MODEL 1
REMARK VINA RESULT:      -7.3      0.000      0.000
REMARK  Name = 
REMARK  10 active torsions:
REMARK  status: ('A' for Active; 'I' for Inactive)
REMARK    1  A    between atoms: C_1  and  O_2
REMARK    2  A    between atoms: O_2  and  C_3
REMARK    3  A    between atoms: C_3  and  C_4
REMARK    4  A    between atoms: C_4  and  N_5
REMARK    5  A    between atoms: C_10  and  C_11
REMARK    6  A    between atoms: C_13  and  C_14
REMARK    7  A    between atoms: C_17  and  N_18
REMARK    8  A    between atoms: N_23  and  C_24
REMARK    9  A    between atoms: C_24  and  C_25
REMARK   10  A    between atoms: C_24  and  C_26
REMARK                            x       y       z     vdW  Elec       q    Type
REMARK                         _______ _______ _______ _____ _____    ______ ____
ROOT
ATOM      1  C   UNL     1       2.892   5.924  18.963  0.00  0.00    +0.000 A 
ATOM      2  C   UNL     1       2.769   7.267  19.233  0.00  0.00    +0.000 A 
ATOM      3  C   UNL     1       1.835   7.344  20.295  0.00  0.00    +0.000 A 
ATOM      4  N   UNL     1       1.568   6.124  20.785  0.00  0.00    +0.000 NA
ATOM      5  N   UNL     1       2.265   5.277  19.994  0.00  0.00    +0.000 N 
ENDROOT
BRANCH   3   6
ATOM      6  C   UNL     1       1.125   8.534  20.741  0.00  0.00    +0.000 A 
ATOM      7  C   UNL     1       1.129   8.927  22.077  0.00  0.00    +0.000 A 
ATOM      8  N   UNL     1       0.611  10.093  22.535  0.00  0.00    +0.000 NA
ATOM      9  C   UNL     1       0.059  10.920  21.623  0.00  0.00    +0.000 A 
ATOM     10  C   UNL     1      -0.008  10.603  20.262  0.00  0.00    +0.000 A 
ATOM     11 CL   UNL     1      -0.716  11.675  19.111  0.00  0.00    +0.000 Cl
ATOM     12  C   UNL     1       0.524   9.394  19.822  0.00  0.00    +0.000 A 
BRANCH   9  13
ATOM     13  N   UNL     1      -0.372  12.146  22.129  0.00  0.00    +0.000 N 
ATOM     14  H   UNL     1      -0.112  12.868  21.466  0.00  0.00    +0.000 HD
ATOM     15  H   UNL     1      -0.021  12.311  23.066  0.00  0.00    +0.000 HD
ENDBRANCH   9  13
ENDBRANCH   3   6
BRANCH   1  21
ATOM     16  N   UNL     1       5.004   4.531  15.440  0.00  0.00    +0.000 NA
ATOM     17  C   UNL     1       5.070   3.570  16.555  0.00  0.00    +0.000 C 
ATOM     18  C   UNL     1       4.696   4.410  17.744  0.00  0.00    +0.000 C 
ATOM     19  C   UNL     1       4.893   5.815  17.354  0.00  0.00    +0.000 C 
ATOM     20  C   UNL     1       5.393   5.852  15.949  0.00  0.00    +0.000 C 
ATOM     21  C   UNL     1       3.485   5.322  17.702  0.00  0.00    +0.000 C 
BRANCH  16  22
ATOM     22  C   UNL     1       5.781   4.143  14.264  0.00  0.00    +0.000 C 
BRANCH  22  23
ATOM     23  C   UNL     1       7.064   4.967  14.124  0.00  0.00    +0.000 C 
BRANCH  23  25
ATOM     24  C   UNL     1       6.841   3.848  12.072  0.00  0.00    +0.000 C 
ATOM     25  O   UNL     1       7.570   4.834  12.794  0.00  0.00    +0.000 OA
ENDBRANCH  23  25
ENDBRANCH  22  23
ENDBRANCH  16  22
ENDBRANCH   1  21
BRANCH   5  26
ATOM     26  C   UNL     1       2.198   3.840  20.251  0.00  0.00    +0.000 C 
ATOM     27  C   UNL     1       2.189   3.534  21.750  0.00  0.00    +0.000 C 
ATOM     28  C   UNL     1       0.997   3.199  19.555  0.00  0.00    +0.000 C 
ENDBRANCH   5  26
TORSDOF 7
ENDMDL
MODEL 2
REMARK VINA RESULT:      -7.2      1.189      1.384
REMARK  Name = 
REMARK  10 active torsions:
REMARK  status: ('A' for Active; 'I' for Inactive)
REMARK    1  A    between atoms: C_1  and  O_2
REMARK    2  A    between atoms: O_2  and  C_3
REMARK    3  A    between atoms: C_3  and  C_4
REMARK    4  A    between atoms: C_4  and  N_5
REMARK    5  A    between atoms: C_10  and  C_11
REMARK    6  A    between atoms: C_13  and  C_14
REMARK    7  A    between atoms: C_17  and  N_18
REMARK    8  A    between atoms: N_23  and  C_24
REMARK    9  A    between atoms: C_24  and  C_25
REMARK   10  A    between atoms: C_24  and  C_26
REMARK                            x       y       z     vdW  Elec       q    Type
REMARK                         _______ _______ _______ _____ _____    ______ ____
ROOT
ATOM      1  C   UNL     1       3.064   5.957  18.687  0.00  0.00    +0.000 A 
ATOM      2  C   UNL     1       2.937   7.313  18.879  0.00  0.00    +0.000 A 
ATOM      3  C   UNL     1       1.973   7.450  19.908  0.00  0.00    +0.000 A 
ATOM      4  N   UNL     1       1.689   6.259  20.457  0.00  0.00    +0.000 NA
ATOM      5  N   UNL     1       2.406   5.368  19.734  0.00  0.00    +0.000 N 
ENDROOT
BRANCH   3   6
ATOM      6  C   UNL     1       1.254   8.663  20.268  0.00  0.00    +0.000 A 
ATOM      7  C   UNL     1       0.983   9.654  19.328  0.00  0.00    +0.000 A 
ATOM      8  N   UNL     1       0.200  10.737  19.560  0.00  0.00    +0.000 NA
ATOM      9  C   UNL     1      -0.348  10.848  20.787  0.00  0.00    +0.000 A 
ATOM     10  C   UNL     1      -0.118   9.911  21.802  0.00  0.00    +0.000 A 
ATOM     11 CL   UNL     1      -0.830  10.069  23.365  0.00  0.00    +0.000 Cl
ATOM     12  C   UNL     1       0.699   8.815  21.538  0.00  0.00    +0.000 A 
BRANCH   9  13
ATOM     13  N   UNL     1      -1.220  11.925  20.945  0.00  0.00    +0.000 N 
ATOM     14  H   UNL     1      -2.104  11.678  20.516  0.00  0.00    +0.000 HD
ATOM     15  H   UNL     1      -0.822  12.786  20.587  0.00  0.00    +0.000 HD
ENDBRANCH   9  13
ENDBRANCH   3   6
BRANCH   1  21
ATOM     16  N   UNL     1       5.230   4.422  15.257  0.00  0.00    +0.000 NA
ATOM     17  C   UNL     1       5.447   3.614  16.471  0.00  0.00    +0.000 C 
ATOM     18  C   UNL     1       5.007   4.538  17.571  0.00  0.00    +0.000 C 
ATOM     19  C   UNL     1       5.015   5.900  17.016  0.00  0.00    +0.000 C 
ATOM     20  C   UNL     1       5.466   5.831  15.596  0.00  0.00    +0.000 C 
ATOM     21  C   UNL     1       3.690   5.286  17.478  0.00  0.00    +0.000 C 
BRANCH  16  22
ATOM     22  C   UNL     1       6.015   3.994  14.101  0.00  0.00    +0.000 C 
BRANCH  22  23
ATOM     23  C   UNL     1       7.220   4.906  13.852  0.00  0.00    +0.000 C 
BRANCH  23  25
ATOM     24  C   UNL     1       6.942   3.742  11.833  0.00  0.00    +0.000 C 
ATOM     25  O   UNL     1       7.598   4.827  12.477  0.00  0.00    +0.000 OA
ENDBRANCH  23  25
ENDBRANCH  22  23
ENDBRANCH  16  22
ENDBRANCH   1  21
BRANCH   5  26
ATOM     26  C   UNL     1       2.328   3.948  20.067  0.00  0.00    +0.000 C 
ATOM     27  C   UNL     1       2.138   3.730  21.570  0.00  0.00    +0.000 C 
ATOM     28  C   UNL     1       1.231   3.242  19.270  0.00  0.00    +0.000 C 
ENDBRANCH   5  26
TORSDOF 7
ENDMDL
MODEL 3
REMARK VINA RESULT:      -7.1      1.861      2.301
REMARK  Name = 
REMARK  10 active torsions:
REMARK  status: ('A' for Active; 'I' for Inactive)
REMARK    1  A    between atoms: C_1  and  O_2
REMARK    2  A    between atoms: O_2  and  C_3
REMARK    3  A    between atoms: C_3  and  C_4
REMARK    4  A    between atoms: C_4  and  N_5
REMARK    5  A    between atoms: C_10  and  C_11
REMARK    6  A    between atoms: C_13  and  C_14
REMARK    7  A    between atoms: C_17  and  N_18
REMARK    8  A    between atoms: N_23  and  C_24
REMARK    9  A    between atoms: C_24  and  C_25
REMARK   10  A    between atoms: C_24  and  C_26
REMARK                            x       y       z     vdW  Elec       q    Type
REMARK                         _______ _______ _______ _____ _____    ______ ____
ROOT
ATOM      1  C   UNL     1       3.591   5.414  18.003  0.00  0.00    +0.000 A 
ATOM      2  C   UNL     1       3.492   6.749  18.318  0.00  0.00    +0.000 A 
ATOM      3  C   UNL     1       2.501   6.815  19.329  0.00  0.00    +0.000 A 
ATOM      4  N   UNL     1       2.172   5.587  19.755  0.00  0.00    +0.000 NA
ATOM      5  N   UNL     1       2.888   4.748  18.972  0.00  0.00    +0.000 N 
ENDROOT
BRANCH   3   6
ATOM      6  C   UNL     1       1.801   8.009  19.780  0.00  0.00    +0.000 A 
ATOM      7  C   UNL     1       1.485   9.043  18.903  0.00  0.00    +0.000 A 
ATOM      8  N   UNL     1       0.715  10.113  19.224  0.00  0.00    +0.000 NA
ATOM      9  C   UNL     1       0.228  10.163  20.481  0.00  0.00    +0.000 A 
ATOM     10  C   UNL     1       0.507   9.180  21.437  0.00  0.00    +0.000 A 
ATOM     11 CL   UNL     1      -0.128   9.262  23.039  0.00  0.00    +0.000 Cl
ATOM     12  C   UNL     1       1.309   8.099  21.082  0.00  0.00    +0.000 A 
BRANCH   9  13
ATOM     13  N   UNL     1      -0.635  11.230  20.733  0.00  0.00    +0.000 N 
ATOM     14  H   UNL     1      -0.165  11.872  21.361  0.00  0.00    +0.000 HD
ATOM     15  H   UNL     1      -1.534  10.913  21.077  0.00  0.00    +0.000 HD
ENDBRANCH   9  13
ENDBRANCH   3   6
BRANCH   1  21
ATOM     16  N   UNL     1       5.726   4.231  14.418  0.00  0.00    +0.000 NA
ATOM     17  C   UNL     1       6.210   3.530  15.621  0.00  0.00    +0.000 C 
ATOM     18  C   UNL     1       5.683   4.384  16.740  0.00  0.00    +0.000 C 
ATOM     19  C   UNL     1       5.360   5.697  16.161  0.00  0.00    +0.000 C 
ATOM     20  C   UNL     1       5.692   5.670  14.707  0.00  0.00    +0.000 C 
ATOM     21  C   UNL     1       4.237   4.841  16.754  0.00  0.00    +0.000 C 
BRANCH  16  22
ATOM     22  C   UNL     1       6.480   3.930  13.202  0.00  0.00    +0.000 C 
BRANCH  22  23
ATOM     23  C   UNL     1       5.676   3.070  12.223  0.00  0.00    +0.000 C 
BRANCH  23  25
ATOM     24  C   UNL     1       3.746   3.176  10.891  0.00  0.00    +0.000 C 
ATOM     25  O   UNL     1       4.353   3.597  12.106  0.00  0.00    +0.000 OA
ENDBRANCH  23  25
ENDBRANCH  22  23
ENDBRANCH  16  22
ENDBRANCH   1  21
BRANCH   5  26
ATOM     26  C   UNL     1       2.766   3.306  19.168  0.00  0.00    +0.000 C 
ATOM     27  C   UNL     1       2.165   2.618  17.940  0.00  0.00    +0.000 C 
ATOM     28  C   UNL     1       4.105   2.674  19.547  0.00  0.00    +0.000 C 
ENDBRANCH   5  26
TORSDOF 7
ENDMDL
MODEL 4
REMARK VINA RESULT:      -7.0      1.161      1.281
REMARK  Name = 
REMARK  10 active torsions:
REMARK  status: ('A' for Active; 'I' for Inactive)
REMARK    1  A    between atoms: C_1  and  O_2
REMARK    2  A    between atoms: O_2  and  C_3
REMARK    3  A    between atoms: C_3  and  C_4
REMARK    4  A    between atoms: C_4  and  N_5
REMARK    5  A    between atoms: C_10  and  C_11
REMARK    6  A    between atoms: C_13  and  C_14
REMARK    7  A    between atoms: C_17  and  N_18
REMARK    8  A    between atoms: N_23  and  C_24
REMARK    9  A    between atoms: C_24  and  C_25
REMARK   10  A    between atoms: C_24  and  C_26
REMARK                            x       y       z     vdW  Elec       q    Type
REMARK                         _______ _______ _______ _____ _____    ______ ____
ROOT
ATOM      1  C   UNL     1       3.315   5.600  18.370  0.00  0.00    +0.000 A 
ATOM      2  C   UNL     1       3.218   6.931  18.702  0.00  0.00    +0.000 A 
ATOM      3  C   UNL     1       2.207   6.991  19.692  0.00  0.00    +0.000 A 
ATOM      4  N   UNL     1       1.859   5.759  20.094  0.00  0.00    +0.000 NA
ATOM      5  N   UNL     1       2.586   4.926  19.314  0.00  0.00    +0.000 N 
ENDROOT
BRANCH   3   6
ATOM      6  C   UNL     1       1.506   8.183  20.145  0.00  0.00    +0.000 A 
ATOM      7  C   UNL     1       1.155   8.358  21.481  0.00  0.00    +0.000 A 
ATOM      8  N   UNL     1       0.631   9.499  21.994  0.00  0.00    +0.000 NA
ATOM      9  C   UNL     1       0.444  10.527  21.140  0.00  0.00    +0.000 A 
ATOM     10  C   UNL     1       0.750  10.439  19.777  0.00  0.00    +0.000 A 
ATOM     11 CL   UNL     1       0.506  11.765  18.702  0.00  0.00    +0.000 Cl
ATOM     12  C   UNL     1       1.277   9.251  19.277  0.00  0.00    +0.000 A 
BRANCH   9  13
ATOM     13  N   UNL     1      -0.005  11.707  21.732  0.00  0.00    +0.000 N 
ATOM     14  H   UNL     1      -0.147  11.528  22.720  0.00  0.00    +0.000 HD
ATOM     15  H   UNL     1      -0.827  12.073  21.265  0.00  0.00    +0.000 HD
ENDBRANCH   9  13
ENDBRANCH   3   6
BRANCH   1  21
ATOM     16  N   UNL     1       5.564   4.416  14.856  0.00  0.00    +0.000 NA
ATOM     17  C   UNL     1       5.875   3.584  16.033  0.00  0.00    +0.000 C 
ATOM     18  C   UNL     1       5.366   4.417  17.175  0.00  0.00    +0.000 C 
ATOM     19  C   UNL     1       5.237   5.795  16.676  0.00  0.00    +0.000 C 
ATOM     20  C   UNL     1       5.671   5.826  15.250  0.00  0.00    +0.000 C 
ATOM     21  C   UNL     1       3.983   5.040  17.128  0.00  0.00    +0.000 C 
BRANCH  16  22
ATOM     22  C   UNL     1       6.368   4.111  13.674  0.00  0.00    +0.000 C 
BRANCH  22  23
ATOM     23  C   UNL     1       5.563   3.365  12.606  0.00  0.00    +0.000 C 
BRANCH  23  25
ATOM     24  C   UNL     1       5.862   1.447  11.287  0.00  0.00    +0.000 C 
ATOM     25  O   UNL     1       6.457   2.653  11.749  0.00  0.00    +0.000 OA
ENDBRANCH  23  25
ENDBRANCH  22  23
ENDBRANCH  16  22
ENDBRANCH   1  21
BRANCH   5  26
ATOM     26  C   UNL     1       2.449   3.482  19.487  0.00  0.00    +0.000 C 
ATOM     27  C   UNL     1       3.692   2.871  20.139  0.00  0.00    +0.000 C 
ATOM     28  C   UNL     1       1.189   3.126  20.276  0.00  0.00    +0.000 C 
ENDBRANCH   5  26
TORSDOF 7
ENDMDL
MODEL 5
REMARK VINA RESULT:      -6.8      4.864      9.671
REMARK  Name = 
REMARK  10 active torsions:
REMARK  status: ('A' for Active; 'I' for Inactive)
REMARK    1  A    between atoms: C_1  and  O_2
REMARK    2  A    between atoms: O_2  and  C_3
REMARK    3  A    between atoms: C_3  and  C_4
REMARK    4  A    between atoms: C_4  and  N_5
REMARK    5  A    between atoms: C_10  and  C_11
REMARK    6  A    between atoms: C_13  and  C_14
REMARK    7  A    between atoms: C_17  and  N_18
REMARK    8  A    between atoms: N_23  and  C_24
REMARK    9  A    between atoms: C_24  and  C_25
REMARK   10  A    between atoms: C_24  and  C_26
REMARK                            x       y       z     vdW  Elec       q    Type
REMARK                         _______ _______ _______ _____ _____    ______ ____
ROOT
ATOM      1  C   UNL     1       1.103   8.814  20.220  0.00  0.00    +0.000 A 
ATOM      2  C   UNL     1       1.730   7.730  20.786  0.00  0.00    +0.000 A 
ATOM      3  C   UNL     1       2.330   7.044  19.702  0.00  0.00    +0.000 A 
ATOM      4  N   UNL     1       2.258   7.773  18.578  0.00  0.00    +0.000 NA
ATOM      5  N   UNL     1       1.554   8.873  18.928  0.00  0.00    +0.000 N 
ENDROOT
BRANCH   3   6
ATOM      6  C   UNL     1       2.841   5.681  19.713  0.00  0.00    +0.000 A 
ATOM      7  C   UNL     1       4.007   5.334  19.035  0.00  0.00    +0.000 A 
ATOM      8  N   UNL     1       4.612   4.124  19.120  0.00  0.00    +0.000 NA
ATOM      9  C   UNL     1       4.036   3.203  19.919  0.00  0.00    +0.000 A 
ATOM     10  C   UNL     1       2.854   3.453  20.626  0.00  0.00    +0.000 A 
ATOM     11 CL   UNL     1       2.133   2.263  21.645  0.00  0.00    +0.000 Cl
ATOM     12  C   UNL     1       2.249   4.702  20.512  0.00  0.00    +0.000 A 
BRANCH   9  13
ATOM     13  N   UNL     1       4.747   2.010  20.048  0.00  0.00    +0.000 N 
ATOM     14  H   UNL     1       4.476   1.576  20.923  0.00  0.00    +0.000 HD
ATOM     15  H   UNL     1       5.747   2.157  19.961  0.00  0.00    +0.000 HD
ENDBRANCH   9  13
ENDBRANCH   3   6
BRANCH   1  21
ATOM     16  N   UNL     1      -1.685  11.174  22.559  0.00  0.00    +0.000 NA
ATOM     17  C   UNL     1      -0.796  12.007  21.730  0.00  0.00    +0.000 C 
ATOM     18  C   UNL     1       0.323  11.065  21.387  0.00  0.00    +0.000 C 
ATOM     19  C   UNL     1       0.270   9.964  22.362  0.00  0.00    +0.000 C 
ATOM     20  C   UNL     1      -0.855  10.221  23.307  0.00  0.00    +0.000 C 
ATOM     21  C   UNL     1       0.032   9.665  20.878  0.00  0.00    +0.000 C 
BRANCH  16  22
ATOM     22  C   UNL     1      -2.578  11.932  23.434  0.00  0.00    +0.000 C 
BRANCH  22  23
ATOM     23  C   UNL     1      -3.522  12.843  22.643  0.00  0.00    +0.000 C 
BRANCH  23  25
ATOM     24  C   UNL     1      -5.562  12.970  23.796  0.00  0.00    +0.000 C 
ATOM     25  O   UNL     1      -4.855  12.338  22.736  0.00  0.00    +0.000 OA
ENDBRANCH  23  25
ENDBRANCH  22  23
ENDBRANCH  16  22
ENDBRANCH   1  21
BRANCH   5  26
ATOM     26  C   UNL     1       1.282   9.899  17.924  0.00  0.00    +0.000 C 
ATOM     27  C   UNL     1      -0.220  10.119  17.732  0.00  0.00    +0.000 C 
ATOM     28  C   UNL     1       1.988  11.213  18.256  0.00  0.00    +0.000 C 
ENDBRANCH   5  26
TORSDOF 7
ENDMDL
MODEL 6
REMARK VINA RESULT:      -6.8      0.783      1.050
REMARK  Name = 
REMARK  10 active torsions:
REMARK  status: ('A' for Active; 'I' for Inactive)
REMARK    1  A    between atoms: C_1  and  O_2
REMARK    2  A    between atoms: O_2  and  C_3
REMARK    3  A    between atoms: C_3  and  C_4
REMARK    4  A    between atoms: C_4  and  N_5
REMARK    5  A    between atoms: C_10  and  C_11
REMARK    6  A    between atoms: C_13  and  C_14
REMARK    7  A    between atoms: C_17  and  N_18
REMARK    8  A    between atoms: N_23  and  C_24
REMARK    9  A    between atoms: C_24  and  C_25
REMARK   10  A    between atoms: C_24  and  C_26
REMARK                            x       y       z     vdW  Elec       q    Type
REMARK                         _______ _______ _______ _____ _____    ______ ____
ROOT
ATOM      1  C   UNL     1       2.415   6.148  19.498  0.00  0.00    +0.000 A 
ATOM      2  C   UNL     1       2.348   7.482  19.826  0.00  0.00    +0.000 A 
ATOM      3  C   UNL     1       1.297   7.576  20.771  0.00  0.00    +0.000 A 
ATOM      4  N   UNL     1       0.891   6.357  21.156  0.00  0.00    +0.000 NA
ATOM      5  N   UNL     1       1.623   5.500  20.409  0.00  0.00    +0.000 N 
ENDROOT
BRANCH   3   6
ATOM      6  C   UNL     1       0.617   8.792  21.194  0.00  0.00    +0.000 A 
ATOM      7  C   UNL     1       0.606   9.194  22.527  0.00  0.00    +0.000 A 
ATOM      8  N   UNL     1       0.117  10.380  22.966  0.00  0.00    +0.000 NA
ATOM      9  C   UNL     1      -0.389  11.218  22.038  0.00  0.00    +0.000 A 
ATOM     10  C   UNL     1      -0.437  10.893  20.677  0.00  0.00    +0.000 A 
ATOM     11 CL   UNL     1      -1.086  11.979  19.504  0.00  0.00    +0.000 Cl
ATOM     12  C   UNL     1       0.063   9.664  20.256  0.00  0.00    +0.000 A 
BRANCH   9  13
ATOM     13  N   UNL     1      -0.790  12.461  22.526  0.00  0.00    +0.000 N 
ATOM     14  H   UNL     1      -0.701  13.137  21.775  0.00  0.00    +0.000 HD
ATOM     15  H   UNL     1      -0.280  12.718  23.365  0.00  0.00    +0.000 HD
ENDBRANCH   9  13
ENDBRANCH   3   6
BRANCH   1  21
ATOM     16  N   UNL     1       4.803   4.856  16.116  0.00  0.00    +0.000 NA
ATOM     17  C   UNL     1       4.924   3.951  17.272  0.00  0.00    +0.000 C 
ATOM     18  C   UNL     1       4.417   4.790  18.410  0.00  0.00    +0.000 C 
ATOM     19  C   UNL     1       4.479   6.193  17.969  0.00  0.00    +0.000 C 
ATOM     20  C   UNL     1       5.029   6.229  16.583  0.00  0.00    +0.000 C 
ATOM     21  C   UNL     1       3.118   5.565  18.286  0.00  0.00    +0.000 C 
BRANCH  16  22
ATOM     22  C   UNL     1       5.663   4.509  14.986  0.00  0.00    +0.000 C 
BRANCH  22  23
ATOM     23  C   UNL     1       7.098   5.008  15.180  0.00  0.00    +0.000 C 
BRANCH  23  25
ATOM     24  C   UNL     1       7.056   4.444  12.902  0.00  0.00    +0.000 C 
ATOM     25  O   UNL     1       7.702   5.222  13.903  0.00  0.00    +0.000 OA
ENDBRANCH  23  25
ENDBRANCH  22  23
ENDBRANCH  16  22
ENDBRANCH   1  21
BRANCH   5  26
ATOM     26  C   UNL     1       1.431   4.061  20.575  0.00  0.00    +0.000 C 
ATOM     27  C   UNL     1       1.066   3.384  19.252  0.00  0.00    +0.000 C 
ATOM     28  C   UNL     1       2.654   3.399  21.208  0.00  0.00    +0.000 C 
ENDBRANCH   5  26
TORSDOF 7
ENDMDL
MODEL 7
REMARK VINA RESULT:      -6.7      1.515      1.884
REMARK  Name = 
REMARK  10 active torsions:
REMARK  status: ('A' for Active; 'I' for Inactive)
REMARK    1  A    between atoms: C_1  and  O_2
REMARK    2  A    between atoms: O_2  and  C_3
REMARK    3  A    between atoms: C_3  and  C_4
REMARK    4  A    between atoms: C_4  and  N_5
REMARK    5  A    between atoms: C_10  and  C_11
REMARK    6  A    between atoms: C_13  and  C_14
REMARK    7  A    between atoms: C_17  and  N_18
REMARK    8  A    between atoms: N_23  and  C_24
REMARK    9  A    between atoms: C_24  and  C_25
REMARK   10  A    between atoms: C_24  and  C_26
REMARK                            x       y       z     vdW  Elec       q    Type
REMARK                         _______ _______ _______ _____ _____    ______ ____
ROOT
ATOM      1  C   UNL     1       3.585   5.257  18.128  0.00  0.00    +0.000 A 
ATOM      2  C   UNL     1       3.467   6.577  18.493  0.00  0.00    +0.000 A 
ATOM      3  C   UNL     1       2.440   6.600  19.468  0.00  0.00    +0.000 A 
ATOM      4  N   UNL     1       2.102   5.354  19.833  0.00  0.00    +0.000 NA
ATOM      5  N   UNL     1       2.851   4.550  19.043  0.00  0.00    +0.000 N 
ENDROOT
BRANCH   3   6
ATOM      6  C   UNL     1       1.719   7.772  19.941  0.00  0.00    +0.000 A 
ATOM      7  C   UNL     1       1.240   7.854  21.246  0.00  0.00    +0.000 A 
ATOM      8  N   UNL     1       0.687   8.966  21.792  0.00  0.00    +0.000 NA
ATOM      9  C   UNL     1       0.603  10.059  21.005  0.00  0.00    +0.000 A 
ATOM     10  C   UNL     1       1.041  10.066  19.676  0.00  0.00    +0.000 A 
ATOM     11 CL   UNL     1       0.927  11.475  18.687  0.00  0.00    +0.000 Cl
ATOM     12  C   UNL     1       1.595   8.907  19.140  0.00  0.00    +0.000 A 
BRANCH   9  13
ATOM     13  N   UNL     1       0.117  11.202  21.640  0.00  0.00    +0.000 N 
ATOM     14  H   UNL     1      -0.282  10.922  22.529  0.00  0.00    +0.000 HD
ATOM     15  H   UNL     1      -0.529  11.714  21.049  0.00  0.00    +0.000 HD
ENDBRANCH   9  13
ENDBRANCH   3   6
BRANCH   1  21
ATOM     16  N   UNL     1       5.807   4.254  14.541  0.00  0.00    +0.000 NA
ATOM     17  C   UNL     1       6.372   3.628  15.750  0.00  0.00    +0.000 C 
ATOM     18  C   UNL     1       5.766   4.438  16.861  0.00  0.00    +0.000 C 
ATOM     19  C   UNL     1       5.299   5.700  16.266  0.00  0.00    +0.000 C 
ATOM     20  C   UNL     1       5.621   5.685  14.809  0.00  0.00    +0.000 C 
ATOM     21  C   UNL     1       4.279   4.737  16.882  0.00  0.00    +0.000 C 
BRANCH  16  22
ATOM     22  C   UNL     1       6.580   4.017  13.322  0.00  0.00    +0.000 C 
BRANCH  22  23
ATOM     23  C   UNL     1       5.816   3.155  12.314  0.00  0.00    +0.000 C 
BRANCH  23  25
ATOM     24  C   UNL     1       3.885   3.247  10.983  0.00  0.00    +0.000 C 
ATOM     25  O   UNL     1       4.463   3.608  12.231  0.00  0.00    +0.000 OA
ENDBRANCH  23  25
ENDBRANCH  22  23
ENDBRANCH  16  22
ENDBRANCH   1  21
BRANCH   5  26
ATOM     26  C   UNL     1       2.729   3.101  19.176  0.00  0.00    +0.000 C 
ATOM     27  C   UNL     1       2.182   2.460  17.899  0.00  0.00    +0.000 C 
ATOM     28  C   UNL     1       4.055   2.459  19.584  0.00  0.00    +0.000 C 
ENDBRANCH   5  26
TORSDOF 7
ENDMDL
MODEL 8
REMARK VINA RESULT:      -6.7      3.178      4.454
REMARK  Name = 
REMARK  10 active torsions:
REMARK  status: ('A' for Active; 'I' for Inactive)
REMARK    1  A    between atoms: C_1  and  O_2
REMARK    2  A    between atoms: O_2  and  C_3
REMARK    3  A    between atoms: C_3  and  C_4
REMARK    4  A    between atoms: C_4  and  N_5
REMARK    5  A    between atoms: C_10  and  C_11
REMARK    6  A    between atoms: C_13  and  C_14
REMARK    7  A    between atoms: C_17  and  N_18
REMARK    8  A    between atoms: N_23  and  C_24
REMARK    9  A    between atoms: C_24  and  C_25
REMARK   10  A    between atoms: C_24  and  C_26
REMARK                            x       y       z     vdW  Elec       q    Type
REMARK                         _______ _______ _______ _____ _____    ______ ____
ROOT
ATOM      1  C   UNL     1       1.531   8.994  18.913  0.00  0.00    +0.000 A 
ATOM      2  C   UNL     1       0.772   9.679  17.993  0.00  0.00    +0.000 A 
ATOM      3  C   UNL     1      -0.441   9.971  18.662  0.00  0.00    +0.000 A 
ATOM      4  N   UNL     1      -0.349   9.676  19.968  0.00  0.00    +0.000 NA
ATOM      5  N   UNL     1       0.881   9.132  20.110  0.00  0.00    +0.000 N 
ENDROOT
BRANCH   3   6
ATOM      6  C   UNL     1      -1.690  10.398  18.048  0.00  0.00    +0.000 A 
ATOM      7  C   UNL     1      -2.552  11.284  18.690  0.00  0.00    +0.000 A 
ATOM      8  N   UNL     1      -3.654  11.830  18.119  0.00  0.00    +0.000 NA
ATOM      9  C   UNL     1      -3.921  11.485  16.843  0.00  0.00    +0.000 A 
ATOM     10  C   UNL     1      -3.123  10.588  16.123  0.00  0.00    +0.000 A 
ATOM     11 CL   UNL     1      -3.479  10.161  14.490  0.00  0.00    +0.000 Cl
ATOM     12  C   UNL     1      -2.003  10.035  16.738  0.00  0.00    +0.000 A 
BRANCH   9  13
ATOM     13  N   UNL     1      -5.007  12.146  16.271  0.00  0.00    +0.000 N 
ATOM     14  H   UNL     1      -4.798  12.306  15.292  0.00  0.00    +0.000 HD
ATOM     15  H   UNL     1      -5.242  12.993  16.779  0.00  0.00    +0.000 HD
ENDBRANCH   9  13
ENDBRANCH   3   6
BRANCH   1  21
ATOM     16  N   UNL     1       4.692   6.180  17.960  0.00  0.00    +0.000 NA
ATOM     17  C   UNL     1       4.397   7.098  16.845  0.00  0.00    +0.000 C 
ATOM     18  C   UNL     1       3.042   7.639  17.205  0.00  0.00    +0.000 C 
ATOM     19  C   UNL     1       2.457   6.710  18.185  0.00  0.00    +0.000 C 
ATOM     20  C   UNL     1       3.425   5.600  18.423  0.00  0.00    +0.000 C 
ATOM     21  C   UNL     1       2.756   8.153  18.604  0.00  0.00    +0.000 C 
BRANCH  16  22
ATOM     22  C   UNL     1       5.687   5.155  17.649  0.00  0.00    +0.000 C 
BRANCH  22  23
ATOM     23  C   UNL     1       6.888   5.729  16.892  0.00  0.00    +0.000 C 
BRANCH  23  25
ATOM     24  C   UNL     1       6.900   4.699  14.782  0.00  0.00    +0.000 C 
ATOM     25  O   UNL     1       7.472   4.705  16.085  0.00  0.00    +0.000 OA
ENDBRANCH  23  25
ENDBRANCH  22  23
ENDBRANCH  16  22
ENDBRANCH   1  21
BRANCH   5  26
ATOM     26  C   UNL     1       1.319   8.687  21.431  0.00  0.00    +0.000 C 
ATOM     27  C   UNL     1       0.558   9.404  22.549  0.00  0.00    +0.000 C 
ATOM     28  C   UNL     1       1.205   7.170  21.580  0.00  0.00    +0.000 C 
ENDBRANCH   5  26
TORSDOF 7
ENDMDL
MODEL 9
REMARK VINA RESULT:      -6.6      1.878      2.395
REMARK  Name = 
REMARK  10 active torsions:
REMARK  status: ('A' for Active; 'I' for Inactive)
REMARK    1  A    between atoms: C_1  and  O_2
REMARK    2  A    between atoms: O_2  and  C_3
REMARK    3  A    between atoms: C_3  and  C_4
REMARK    4  A    between atoms: C_4  and  N_5
REMARK    5  A    between atoms: C_10  and  C_11
REMARK    6  A    between atoms: C_13  and  C_14
REMARK    7  A    between atoms: C_17  and  N_18
REMARK    8  A    between atoms: N_23  and  C_24
REMARK    9  A    between atoms: C_24  and  C_25
REMARK   10  A    between atoms: C_24  and  C_26
REMARK                            x       y       z     vdW  Elec       q    Type
REMARK                         _______ _______ _______ _____ _____    ______ ____
ROOT
ATOM      1  C   UNL     1       4.041   5.057  18.007  0.00  0.00    +0.000 A 
ATOM      2  C   UNL     1       3.913   6.397  18.289  0.00  0.00    +0.000 A 
ATOM      3  C   UNL     1       2.813   6.483  19.176  0.00  0.00    +0.000 A 
ATOM      4  N   UNL     1       2.429   5.262  19.580  0.00  0.00    +0.000 NA
ATOM      5  N   UNL     1       3.227   4.409  18.898  0.00  0.00    +0.000 N 
ENDROOT
BRANCH   3   6
ATOM      6  C   UNL     1       2.072   7.686  19.526  0.00  0.00    +0.000 A 
ATOM      7  C   UNL     1       1.814   8.681  18.587  0.00  0.00    +0.000 A 
ATOM      8  N   UNL     1       1.014   9.754  18.806  0.00  0.00    +0.000 NA
ATOM      9  C   UNL     1       0.434   9.850  20.020  0.00  0.00    +0.000 A 
ATOM     10  C   UNL     1       0.648   8.908  21.034  0.00  0.00    +0.000 A 
ATOM     11 CL   UNL     1      -0.104   9.047  22.579  0.00  0.00    +0.000 Cl
ATOM     12  C   UNL     1       1.483   7.823  20.783  0.00  0.00    +0.000 A 
BRANCH   9  13
ATOM     13  N   UNL     1      -0.453  10.916  20.164  0.00  0.00    +0.000 N 
ATOM     14  H   UNL     1       0.090  11.768  20.245  0.00  0.00    +0.000 HD
ATOM     15  H   UNL     1      -1.095  10.770  20.936  0.00  0.00    +0.000 HD
ENDBRANCH   9  13
ENDBRANCH   3   6
BRANCH   1  21
ATOM     16  N   UNL     1       6.139   3.799  14.426  0.00  0.00    +0.000 NA
ATOM     17  C   UNL     1       7.052   4.297  15.470  0.00  0.00    +0.000 C 
ATOM     18  C   UNL     1       6.134   5.065  16.379  0.00  0.00    +0.000 C 
ATOM     19  C   UNL     1       4.914   5.355  15.609  0.00  0.00    +0.000 C 
ATOM     20  C   UNL     1       5.073   4.790  14.238  0.00  0.00    +0.000 C 
ATOM     21  C   UNL     1       4.824   4.463  16.851  0.00  0.00    +0.000 C 
BRANCH  16  22
ATOM     22  C   UNL     1       6.797   3.451  13.167  0.00  0.00    +0.000 C 
BRANCH  22  23
ATOM     23  C   UNL     1       5.808   3.384  12.000  0.00  0.00    +0.000 C 
BRANCH  23  25
ATOM     24  C   UNL     1       6.677   1.391  11.117  0.00  0.00    +0.000 C 
ATOM     25  O   UNL     1       5.535   2.016  11.688  0.00  0.00    +0.000 OA
ENDBRANCH  23  25
ENDBRANCH  22  23
ENDBRANCH  16  22
ENDBRANCH   1  21
BRANCH   5  26
ATOM     26  C   UNL     1       3.075   2.970  19.099  0.00  0.00    +0.000 C 
ATOM     27  C   UNL     1       4.232   2.389  19.915  0.00  0.00    +0.000 C 
ATOM     28  C   UNL     1       1.730   2.631  19.742  0.00  0.00    +0.000 C 
ENDBRANCH   5  26
TORSDOF 7
ENDMDL
