MODEL 1
REMARK VINA RESULT:      -8.8      0.000      0.000
REMARK  Name = 
REMARK  3 active torsions:
REMARK  status: ('A' for Active; 'I' for Inactive)
REMARK    1  A    between atoms: C_11  and  C_12
REMARK    2  A    between atoms: C_11  and  C_20
REMARK    3  A    between atoms: C_13  and  C_14
REMARK                            x       y       z     vdW  Elec       q    Type
REMARK                         _______ _______ _______ _____ _____    ______ ____
ROOT
ATOM      1  O   UNL     1       7.546   5.486  20.312  0.00  0.00    +0.000 OA
ATOM      2  C   UNL     1       6.961   5.057  19.323  0.00  0.00    +0.000 C 
ATOM      3  N   UNL     1       7.534   5.115  18.089  0.00  0.00    +0.000 N 
ATOM      4  C   UNL     1       6.899   4.780  16.907  0.00  0.00    +0.000 A 
ATOM      5  C   UNL     1       7.602   4.834  15.702  0.00  0.00    +0.000 A 
ATOM      6  C   UNL     1       6.938   4.579  14.501  0.00  0.00    +0.000 A 
ATOM      7  C   UNL     1       5.575   4.300  14.515  0.00  0.00    +0.000 A 
ATOM      8 CL   UNL     1       4.745   4.008  13.037  0.00  0.00    +0.000 Cl
ATOM      9  C   UNL     1       4.878   4.249  15.721  0.00  0.00    +0.000 A 
ATOM     10  C   UNL     1       5.549   4.451  16.943  0.00  0.00    +0.000 A 
ATOM     11  C   UNL     1       4.849   4.356  18.292  0.00  0.00    +0.000 C 
ATOM     12  O   UNL     1       5.768   4.437  19.414  0.00  0.00    +0.000 OA
ATOM     13  H   UNL     1       8.479   5.476  18.082  0.00  0.00    +0.000 HD
ENDROOT
BRANCH  11  14
ATOM     14  C   UNL     1       4.065   3.001  18.436  0.00  0.00    +0.000 C 
ATOM     15  F   UNL     1       2.715   3.159  18.423  0.00  0.00    +0.000 F 
ATOM     16  F   UNL     1       4.341   2.136  17.426  0.00  0.00    +0.000 F 
ATOM     17  F   UNL     1       4.351   2.350  19.592  0.00  0.00    +0.000 F 
ENDBRANCH  11  14
BRANCH  11  18
ATOM     18  C   UNL     1       3.939   5.517  18.457  0.00  0.00    +0.000 C 
ATOM     19  C   UNL     1       3.212   6.462  18.633  0.00  0.00    +0.000 C 
BRANCH  19  20
ATOM     20  C   UNL     1       2.359   7.592  18.808  0.00  0.00    +0.000 A 
ATOM     21  C   UNL     1       2.112   8.458  17.740  0.00  0.00    +0.000 A 
ATOM     22  C   UNL     1       1.353   9.612  17.939  0.00  0.00    +0.000 A 
ATOM     23  C   UNL     1       0.832   9.896  19.203  0.00  0.00    +0.000 A 
ATOM     24  C   UNL     1       1.048   9.013  20.260  0.00  0.00    +0.000 A 
ATOM     25  C   UNL     1       1.809   7.860  20.064  0.00  0.00    +0.000 A 
ENDBRANCH  19  20
ENDBRANCH  11  18
TORSDOF 3
ENDMDL
MODEL 2
REMARK VINA RESULT:      -8.7      0.081      1.247
REMARK  Name = 
REMARK  3 active torsions:
REMARK  status: ('A' for Active; 'I' for Inactive)
REMARK    1  A    between atoms: C_11  and  C_12
REMARK    2  A    between atoms: C_11  and  C_20
REMARK    3  A    between atoms: C_13  and  C_14
REMARK                            x       y       z     vdW  Elec       q    Type
REMARK                         _______ _______ _______ _____ _____    ______ ____
ROOT
ATOM      1  O   UNL     1       7.593   5.437  20.275  0.00  0.00    +0.000 OA
ATOM      2  C   UNL     1       6.990   5.026  19.289  0.00  0.00    +0.000 C 
ATOM      3  N   UNL     1       7.557   5.066  18.052  0.00  0.00    +0.000 N 
ATOM      4  C   UNL     1       6.905   4.750  16.873  0.00  0.00    +0.000 A 
ATOM      5  C   UNL     1       7.601   4.784  15.664  0.00  0.00    +0.000 A 
ATOM      6  C   UNL     1       6.924   4.549  14.468  0.00  0.00    +0.000 A 
ATOM      7  C   UNL     1       5.553   4.310  14.490  0.00  0.00    +0.000 A 
ATOM      8 CL   UNL     1       4.705   4.042  13.017  0.00  0.00    +0.000 Cl
ATOM      9  C   UNL     1       4.862   4.279  15.701  0.00  0.00    +0.000 A 
ATOM     10  C   UNL     1       5.546   4.461  16.918  0.00  0.00    +0.000 A 
ATOM     11  C   UNL     1       4.852   4.387  18.271  0.00  0.00    +0.000 C 
ATOM     12  O   UNL     1       5.779   4.441  19.388  0.00  0.00    +0.000 OA
ATOM     13  H   UNL     1       8.512   5.400  18.039  0.00  0.00    +0.000 HD
ENDROOT
BRANCH  11  14
ATOM     14  C   UNL     1       4.029   3.055  18.420  0.00  0.00    +0.000 C 
ATOM     15  F   UNL     1       4.249   2.420  19.602  0.00  0.00    +0.000 F 
ATOM     16  F   UNL     1       2.690   3.267  18.363  0.00  0.00    +0.000 F 
ATOM     17  F   UNL     1       4.319   2.149  17.452  0.00  0.00    +0.000 F 
ENDBRANCH  11  14
BRANCH  11  18
ATOM     18  C   UNL     1       3.978   5.574  18.442  0.00  0.00    +0.000 C 
ATOM     19  C   UNL     1       3.255   6.522  18.618  0.00  0.00    +0.000 C 
BRANCH  19  20
ATOM     20  C   UNL     1       2.424   7.665  18.812  0.00  0.00    +0.000 A 
ATOM     21  C   UNL     1       1.835   7.903  20.056  0.00  0.00    +0.000 A 
ATOM     22  C   UNL     1       0.949   8.970  20.216  0.00  0.00    +0.000 A 
ATOM     23  C   UNL     1       0.662   9.806  19.136  0.00  0.00    +0.000 A 
ATOM     24  C   UNL     1       1.279   9.592  17.904  0.00  0.00    +0.000 A 
ATOM     25  C   UNL     1       2.161   8.523  17.741  0.00  0.00    +0.000 A 
ENDBRANCH  19  20
ENDBRANCH  11  18
TORSDOF 3
ENDMDL
MODEL 3
REMARK VINA RESULT:      -7.9      2.898      5.969
REMARK  Name = 
REMARK  3 active torsions:
REMARK  status: ('A' for Active; 'I' for Inactive)
REMARK    1  A    between atoms: C_11  and  C_12
REMARK    2  A    between atoms: C_11  and  C_20
REMARK    3  A    between atoms: C_13  and  C_14
REMARK                            x       y       z     vdW  Elec       q    Type
REMARK                         _______ _______ _______ _____ _____    ______ ____
ROOT
ATOM      1  O   UNL     1       7.516   5.410  19.597  0.00  0.00    +0.000 OA
ATOM      2  C   UNL     1       6.341   5.161  19.349  0.00  0.00    +0.000 C 
ATOM      3  N   UNL     1       5.717   4.089  19.910  0.00  0.00    +0.000 N 
ATOM      4  C   UNL     1       4.443   3.659  19.586  0.00  0.00    +0.000 A 
ATOM      5  C   UNL     1       3.885   2.571  20.260  0.00  0.00    +0.000 A 
ATOM      6  C   UNL     1       2.636   2.084  19.875  0.00  0.00    +0.000 A 
ATOM      7  C   UNL     1       1.970   2.671  18.803  0.00  0.00    +0.000 A 
ATOM      8 CL   UNL     1       0.440   2.061  18.307  0.00  0.00    +0.000 Cl
ATOM      9  C   UNL     1       2.532   3.756  18.132  0.00  0.00    +0.000 A 
ATOM     10  C   UNL     1       3.768   4.290  18.547  0.00  0.00    +0.000 A 
ATOM     11  C   UNL     1       4.404   5.504  17.884  0.00  0.00    +0.000 C 
ATOM     12  O   UNL     1       5.588   5.974  18.581  0.00  0.00    +0.000 OA
ATOM     13  H   UNL     1       6.281   3.575  20.574  0.00  0.00    +0.000 HD
ENDROOT
BRANCH  11  14
ATOM     14  C   UNL     1       3.399   6.712  17.818  0.00  0.00    +0.000 C 
ATOM     15  F   UNL     1       2.152   6.349  17.416  0.00  0.00    +0.000 F 
ATOM     16  F   UNL     1       3.233   7.311  19.025  0.00  0.00    +0.000 F 
ATOM     17  F   UNL     1       3.800   7.680  16.956  0.00  0.00    +0.000 F 
ENDBRANCH  11  14
BRANCH  11  18
ATOM     18  C   UNL     1       4.879   5.132  16.529  0.00  0.00    +0.000 C 
ATOM     19  C   UNL     1       5.304   4.844  15.438  0.00  0.00    +0.000 C 
BRANCH  19  20
ATOM     20  C   UNL     1       5.787   4.475  14.148  0.00  0.00    +0.000 A 
ATOM     21  C   UNL     1       5.044   3.607  13.342  0.00  0.00    +0.000 A 
ATOM     22  C   UNL     1       5.563   3.175  12.120  0.00  0.00    +0.000 A 
ATOM     23  C   UNL     1       6.817   3.619  11.698  0.00  0.00    +0.000 A 
ATOM     24  C   UNL     1       7.542   4.514  12.485  0.00  0.00    +0.000 A 
ATOM     25  C   UNL     1       7.027   4.944  13.708  0.00  0.00    +0.000 A 
ENDBRANCH  19  20
ENDBRANCH  11  18
TORSDOF 3
ENDMDL
MODEL 4
REMARK VINA RESULT:      -7.8      2.910      5.962
REMARK  Name = 
REMARK  3 active torsions:
REMARK  status: ('A' for Active; 'I' for Inactive)
REMARK    1  A    between atoms: C_11  and  C_12
REMARK    2  A    between atoms: C_11  and  C_20
REMARK    3  A    between atoms: C_13  and  C_14
REMARK                            x       y       z     vdW  Elec       q    Type
REMARK                         _______ _______ _______ _____ _____    ______ ____
ROOT
ATOM      1  O   UNL     1       7.573   5.482  19.524  0.00  0.00    +0.000 OA
ATOM      2  C   UNL     1       6.398   5.227  19.282  0.00  0.00    +0.000 C 
ATOM      3  N   UNL     1       5.773   4.173  19.876  0.00  0.00    +0.000 N 
ATOM      4  C   UNL     1       4.499   3.733  19.565  0.00  0.00    +0.000 A 
ATOM      5  C   UNL     1       3.940   2.667  20.273  0.00  0.00    +0.000 A 
ATOM      6  C   UNL     1       2.691   2.169  19.902  0.00  0.00    +0.000 A 
ATOM      7  C   UNL     1       2.025   2.722  18.812  0.00  0.00    +0.000 A 
ATOM      8 CL   UNL     1       0.495   2.099  18.335  0.00  0.00    +0.000 Cl
ATOM      9  C   UNL     1       2.589   3.786  18.108  0.00  0.00    +0.000 A 
ATOM     10  C   UNL     1       3.825   4.332  18.507  0.00  0.00    +0.000 A 
ATOM     11  C   UNL     1       4.461   5.525  17.807  0.00  0.00    +0.000 C 
ATOM     12  O   UNL     1       5.646   6.016  18.490  0.00  0.00    +0.000 OA
ATOM     13  H   UNL     1       6.337   3.679  20.556  0.00  0.00    +0.000 HD
ENDROOT
BRANCH  11  14
ATOM     14  C   UNL     1       3.457   6.730  17.703  0.00  0.00    +0.000 C 
ATOM     15  F   UNL     1       3.803   7.634  16.748  0.00  0.00    +0.000 F 
ATOM     16  F   UNL     1       2.200   6.328  17.387  0.00  0.00    +0.000 F 
ATOM     17  F   UNL     1       3.359   7.433  18.861  0.00  0.00    +0.000 F 
ENDBRANCH  11  14
BRANCH  11  18
ATOM     18  C   UNL     1       4.937   5.111  16.464  0.00  0.00    +0.000 C 
ATOM     19  C   UNL     1       5.364   4.781  15.386  0.00  0.00    +0.000 C 
BRANCH  19  20
ATOM     20  C   UNL     1       5.843   4.365  14.108  0.00  0.00    +0.000 A 
ATOM     21  C   UNL     1       7.076   4.823  13.639  0.00  0.00    +0.000 A 
ATOM     22  C   UNL     1       7.499   4.488  12.350  0.00  0.00    +0.000 A 
ATOM     23  C   UNL     1       6.695   3.688  11.538  0.00  0.00    +0.000 A 
ATOM     24  C   UNL     1       5.481   3.201  12.020  0.00  0.00    +0.000 A 
ATOM     25  C   UNL     1       5.054   3.537  13.306  0.00  0.00    +0.000 A 
ENDBRANCH  19  20
ENDBRANCH  11  18
TORSDOF 3
ENDMDL
MODEL 5
REMARK VINA RESULT:      -7.5      2.867      3.693
REMARK  Name = 
REMARK  3 active torsions:
REMARK  status: ('A' for Active; 'I' for Inactive)
REMARK    1  A    between atoms: C_11  and  C_12
REMARK    2  A    between atoms: C_11  and  C_20
REMARK    3  A    between atoms: C_13  and  C_14
REMARK                            x       y       z     vdW  Elec       q    Type
REMARK                         _______ _______ _______ _____ _____    ______ ____
ROOT
ATOM      1  O   UNL     1       4.149   2.903  18.927  0.00  0.00    +0.000 OA
ATOM      2  C   UNL     1       4.815   3.846  18.513  0.00  0.00    +0.000 C 
ATOM      3  N   UNL     1       5.965   4.221  19.139  0.00  0.00    +0.000 N 
ATOM      4  C   UNL     1       6.705   5.346  18.824  0.00  0.00    +0.000 A 
ATOM      5  C   UNL     1       7.895   5.608  19.505  0.00  0.00    +0.000 A 
ATOM      6  C   UNL     1       8.596   6.787  19.247  0.00  0.00    +0.000 A 
ATOM      7  C   UNL     1       8.086   7.703  18.332  0.00  0.00    +0.000 A 
ATOM      8 CL   UNL     1       8.932   9.169  18.026  0.00  0.00    +0.000 Cl
ATOM      9  C   UNL     1       6.896   7.437  17.656  0.00  0.00    +0.000 A 
ATOM     10  C   UNL     1       6.209   6.226  17.869  0.00  0.00    +0.000 A 
ATOM     11  C   UNL     1       4.934   5.862  17.121  0.00  0.00    +0.000 C 
ATOM     12  O   UNL     1       4.494   4.502  17.380  0.00  0.00    +0.000 OA
ATOM     13  H   UNL     1       6.234   3.627  19.913  0.00  0.00    +0.000 HD
ENDROOT
BRANCH  11  14
ATOM     14  C   UNL     1       5.124   5.996  15.566  0.00  0.00    +0.000 C 
ATOM     15  F   UNL     1       4.482   5.026  14.863  0.00  0.00    +0.000 F 
ATOM     16  F   UNL     1       4.643   7.172  15.088  0.00  0.00    +0.000 F 
ATOM     17  F   UNL     1       6.426   5.928  15.189  0.00  0.00    +0.000 F 
ENDBRANCH  11  14
BRANCH  11  18
ATOM     18  C   UNL     1       3.821   6.721  17.597  0.00  0.00    +0.000 C 
ATOM     19  C   UNL     1       2.928   7.408  18.025  0.00  0.00    +0.000 C 
BRANCH  19  20
ATOM     20  C   UNL     1       1.877   8.245  18.505  0.00  0.00    +0.000 A 
ATOM     21  C   UNL     1       1.155   9.045  17.617  0.00  0.00    +0.000 A 
ATOM     22  C   UNL     1       0.191   9.930  18.102  0.00  0.00    +0.000 A 
ATOM     23  C   UNL     1      -0.059  10.008  19.472  0.00  0.00    +0.000 A 
ATOM     24  C   UNL     1       0.635   9.183  20.356  0.00  0.00    +0.000 A 
ATOM     25  C   UNL     1       1.602   8.299  19.874  0.00  0.00    +0.000 A 
ENDBRANCH  19  20
ENDBRANCH  11  18
TORSDOF 3
ENDMDL
MODEL 6
REMARK VINA RESULT:      -7.5      2.845      6.247
REMARK  Name = 
REMARK  3 active torsions:
REMARK  status: ('A' for Active; 'I' for Inactive)
REMARK    1  A    between atoms: C_11  and  C_12
REMARK    2  A    between atoms: C_11  and  C_20
REMARK    3  A    between atoms: C_13  and  C_14
REMARK                            x       y       z     vdW  Elec       q    Type
REMARK                         _______ _______ _______ _____ _____    ______ ____
ROOT
ATOM      1  O   UNL     1       4.458   1.611  19.178  0.00  0.00    +0.000 OA
ATOM      2  C   UNL     1       4.453   2.828  19.028  0.00  0.00    +0.000 C 
ATOM      3  N   UNL     1       3.320   3.556  19.235  0.00  0.00    +0.000 N 
ATOM      4  C   UNL     1       3.188   4.906  18.963  0.00  0.00    +0.000 A 
ATOM      5  C   UNL     1       1.991   5.560  19.259  0.00  0.00    +0.000 A 
ATOM      6  C   UNL     1       1.828   6.900  18.906  0.00  0.00    +0.000 A 
ATOM      7  C   UNL     1       2.852   7.564  18.236  0.00  0.00    +0.000 A 
ATOM      8 CL   UNL     1       2.650   9.209  17.777  0.00  0.00    +0.000 Cl
ATOM      9  C   UNL     1       4.045   6.905  17.941  0.00  0.00    +0.000 A 
ATOM     10  C   UNL     1       4.241   5.568  18.342  0.00  0.00    +0.000 A 
ATOM     11  C   UNL     1       5.541   4.817  18.092  0.00  0.00    +0.000 C 
ATOM     12  O   UNL     1       5.575   3.514  18.734  0.00  0.00    +0.000 OA
ATOM     13  H   UNL     1       2.532   3.019  19.572  0.00  0.00    +0.000 HD
ENDROOT
BRANCH  11  14
ATOM     14  C   UNL     1       6.781   5.625  18.624  0.00  0.00    +0.000 C 
ATOM     15  F   UNL     1       6.885   6.866  18.079  0.00  0.00    +0.000 F 
ATOM     16  F   UNL     1       6.732   5.819  19.967  0.00  0.00    +0.000 F 
ATOM     17  F   UNL     1       7.960   5.005  18.365  0.00  0.00    +0.000 F 
ENDBRANCH  11  14
BRANCH  11  18
ATOM     18  C   UNL     1       5.674   4.533  16.641  0.00  0.00    +0.000 C 
ATOM     19  C   UNL     1       5.777   4.344  15.455  0.00  0.00    +0.000 C 
BRANCH  19  20
ATOM     20  C   UNL     1       5.924   4.096  14.058  0.00  0.00    +0.000 A 
ATOM     21  C   UNL     1       4.902   3.464  13.346  0.00  0.00    +0.000 A 
ATOM     22  C   UNL     1       5.087   3.139  12.001  0.00  0.00    +0.000 A 
ATOM     23  C   UNL     1       6.288   3.457  11.365  0.00  0.00    +0.000 A 
ATOM     24  C   UNL     1       7.294   4.121  12.065  0.00  0.00    +0.000 A 
ATOM     25  C   UNL     1       7.113   4.443  13.411  0.00  0.00    +0.000 A 
ENDBRANCH  19  20
ENDBRANCH  11  18
TORSDOF 3
ENDMDL
MODEL 7
REMARK VINA RESULT:      -7.4      3.369      6.337
REMARK  Name = 
REMARK  3 active torsions:
REMARK  status: ('A' for Active; 'I' for Inactive)
REMARK    1  A    between atoms: C_11  and  C_12
REMARK    2  A    between atoms: C_11  and  C_20
REMARK    3  A    between atoms: C_13  and  C_14
REMARK                            x       y       z     vdW  Elec       q    Type
REMARK                         _______ _______ _______ _____ _____    ______ ____
ROOT
ATOM      1  O   UNL     1       8.479   4.511  18.134  0.00  0.00    +0.000 OA
ATOM      2  C   UNL     1       7.260   4.635  18.071  0.00  0.00    +0.000 C 
ATOM      3  N   UNL     1       6.436   3.881  18.849  0.00  0.00    +0.000 N 
ATOM      4  C   UNL     1       5.057   3.860  18.750  0.00  0.00    +0.000 A 
ATOM      5  C   UNL     1       4.309   3.079  19.633  0.00  0.00    +0.000 A 
ATOM      6  C   UNL     1       2.925   2.991  19.478  0.00  0.00    +0.000 A 
ATOM      7  C   UNL     1       2.307   3.661  18.427  0.00  0.00    +0.000 A 
ATOM      8 CL   UNL     1       0.604   3.539  18.216  0.00  0.00    +0.000 Cl
ATOM      9  C   UNL     1       3.059   4.438  17.546  0.00  0.00    +0.000 A 
ATOM     10  C   UNL     1       4.449   4.577  17.726  0.00  0.00    +0.000 A 
ATOM     11  C   UNL     1       5.311   5.452  16.826  0.00  0.00    +0.000 C 
ATOM     12  O   UNL     1       6.680   5.574  17.297  0.00  0.00    +0.000 OA
ATOM     13  H   UNL     1       6.915   3.275  19.503  0.00  0.00    +0.000 HD
ENDROOT
BRANCH  11  14
ATOM     14  C   UNL     1       4.730   6.910  16.718  0.00  0.00    +0.000 C 
ATOM     15  F   UNL     1       5.544   7.852  17.262  0.00  0.00    +0.000 F 
ATOM     16  F   UNL     1       4.536   7.293  15.431  0.00  0.00    +0.000 F 
ATOM     17  F   UNL     1       3.534   7.045  17.347  0.00  0.00    +0.000 F 
ENDBRANCH  11  14
BRANCH  11  18
ATOM     18  C   UNL     1       5.421   4.823  15.487  0.00  0.00    +0.000 C 
ATOM     19  C   UNL     1       5.542   4.286  14.415  0.00  0.00    +0.000 C 
BRANCH  19  20
ATOM     20  C   UNL     1       5.650   3.653  13.141  0.00  0.00    +0.000 A 
ATOM     21  C   UNL     1       4.501   3.374  12.396  0.00  0.00    +0.000 A 
ATOM     22  C   UNL     1       4.603   2.672  11.194  0.00  0.00    +0.000 A 
ATOM     23  C   UNL     1       5.853   2.259  10.730  0.00  0.00    +0.000 A 
ATOM     24  C   UNL     1       7.003   2.570  11.455  0.00  0.00    +0.000 A 
ATOM     25  C   UNL     1       6.903   3.268  12.659  0.00  0.00    +0.000 A 
ENDBRANCH  19  20
ENDBRANCH  11  18
TORSDOF 3
ENDMDL
MODEL 8
REMARK VINA RESULT:      -7.3      2.853      6.214
REMARK  Name = 
REMARK  3 active torsions:
REMARK  status: ('A' for Active; 'I' for Inactive)
REMARK    1  A    between atoms: C_11  and  C_12
REMARK    2  A    between atoms: C_11  and  C_20
REMARK    3  A    between atoms: C_13  and  C_14
REMARK                            x       y       z     vdW  Elec       q    Type
REMARK                         _______ _______ _______ _____ _____    ______ ____
ROOT
ATOM      1  O   UNL     1       4.502   1.721  19.292  0.00  0.00    +0.000 OA
ATOM      2  C   UNL     1       4.493   2.933  19.107  0.00  0.00    +0.000 C 
ATOM      3  N   UNL     1       3.362   3.665  19.310  0.00  0.00    +0.000 N 
ATOM      4  C   UNL     1       3.224   5.006  19.001  0.00  0.00    +0.000 A 
ATOM      5  C   UNL     1       2.030   5.667  19.295  0.00  0.00    +0.000 A 
ATOM      6  C   UNL     1       1.860   6.996  18.906  0.00  0.00    +0.000 A 
ATOM      7  C   UNL     1       2.873   7.642  18.203  0.00  0.00    +0.000 A 
ATOM      8 CL   UNL     1       2.661   9.273  17.699  0.00  0.00    +0.000 Cl
ATOM      9  C   UNL     1       4.062   6.976  17.910  0.00  0.00    +0.000 A 
ATOM     10  C   UNL     1       4.266   5.652  18.346  0.00  0.00    +0.000 A 
ATOM     11  C   UNL     1       5.564   4.896  18.099  0.00  0.00    +0.000 C 
ATOM     12  O   UNL     1       5.609   3.612  18.777  0.00  0.00    +0.000 OA
ATOM     13  H   UNL     1       2.580   3.137  19.673  0.00  0.00    +0.000 HD
ENDROOT
BRANCH  11  14
ATOM     14  C   UNL     1       6.810   5.720  18.590  0.00  0.00    +0.000 C 
ATOM     15  F   UNL     1       6.848   5.880  19.939  0.00  0.00    +0.000 F 
ATOM     16  F   UNL     1       7.984   5.126  18.259  0.00  0.00    +0.000 F 
ATOM     17  F   UNL     1       6.849   6.972  18.067  0.00  0.00    +0.000 F 
ENDBRANCH  11  14
BRANCH  11  18
ATOM     18  C   UNL     1       5.677   4.570  16.655  0.00  0.00    +0.000 C 
ATOM     19  C   UNL     1       5.802   4.333  15.480  0.00  0.00    +0.000 C 
BRANCH  19  20
ATOM     20  C   UNL     1       5.942   4.019  14.095  0.00  0.00    +0.000 A 
ATOM     21  C   UNL     1       7.134   4.307  13.427  0.00  0.00    +0.000 A 
ATOM     22  C   UNL     1       7.234   4.084  12.052  0.00  0.00    +0.000 A 
ATOM     23  C   UNL     1       6.147   3.561  11.349  0.00  0.00    +0.000 A 
ATOM     24  C   UNL     1       4.970   3.238  12.023  0.00  0.00    +0.000 A 
ATOM     25  C   UNL     1       4.866   3.465  13.396  0.00  0.00    +0.000 A 
ENDBRANCH  19  20
ENDBRANCH  11  18
TORSDOF 3
ENDMDL
MODEL 9
REMARK VINA RESULT:      -7.1      3.316      6.295
REMARK  Name = 
REMARK  3 active torsions:
REMARK  status: ('A' for Active; 'I' for Inactive)
REMARK    1  A    between atoms: C_11  and  C_12
REMARK    2  A    between atoms: C_11  and  C_20
REMARK    3  A    between atoms: C_13  and  C_14
REMARK                            x       y       z     vdW  Elec       q    Type
REMARK                         _______ _______ _______ _____ _____    ______ ____
ROOT
ATOM      1  O   UNL     1       8.387   4.618  18.291  0.00  0.00    +0.000 OA
ATOM      2  C   UNL     1       7.165   4.701  18.225  0.00  0.00    +0.000 C 
ATOM      3  N   UNL     1       6.366   3.929  19.013  0.00  0.00    +0.000 N 
ATOM      4  C   UNL     1       4.988   3.861  18.913  0.00  0.00    +0.000 A 
ATOM      5  C   UNL     1       4.266   3.067  19.806  0.00  0.00    +0.000 A 
ATOM      6  C   UNL     1       2.886   2.931  19.652  0.00  0.00    +0.000 A 
ATOM      7  C   UNL     1       2.247   3.566  18.591  0.00  0.00    +0.000 A 
ATOM      8 CL   UNL     1       0.549   3.384  18.381  0.00  0.00    +0.000 Cl
ATOM      9  C   UNL     1       2.973   4.356  17.701  0.00  0.00    +0.000 A 
ATOM     10  C   UNL     1       4.358   4.544  17.880  0.00  0.00    +0.000 A 
ATOM     11  C   UNL     1       5.191   5.436  16.969  0.00  0.00    +0.000 C 
ATOM     12  O   UNL     1       6.554   5.610  17.440  0.00  0.00    +0.000 OA
ATOM     13  H   UNL     1       6.864   3.348  19.675  0.00  0.00    +0.000 HD
ENDROOT
BRANCH  11  14
ATOM     14  C   UNL     1       4.561   6.871  16.842  0.00  0.00    +0.000 C 
ATOM     15  F   UNL     1       3.338   6.973  17.425  0.00  0.00    +0.000 F 
ATOM     16  F   UNL     1       5.327   7.824  17.433  0.00  0.00    +0.000 F 
ATOM     17  F   UNL     1       4.391   7.256  15.552  0.00  0.00    +0.000 F 
ENDBRANCH  11  14
BRANCH  11  18
ATOM     18  C   UNL     1       5.324   4.793  15.638  0.00  0.00    +0.000 C 
ATOM     19  C   UNL     1       5.469   4.293  14.551  0.00  0.00    +0.000 C 
BRANCH  19  20
ATOM     20  C   UNL     1       5.627   3.670  13.278  0.00  0.00    +0.000 A 
ATOM     21  C   UNL     1       6.905   3.425  12.770  0.00  0.00    +0.000 A 
ATOM     22  C   UNL     1       7.055   2.900  11.485  0.00  0.00    +0.000 A 
ATOM     23  C   UNL     1       5.930   2.611  10.712  0.00  0.00    +0.000 A 
ATOM     24  C   UNL     1       4.653   2.822  11.233  0.00  0.00    +0.000 A 
ATOM     25  C   UNL     1       4.500   3.349  12.516  0.00  0.00    +0.000 A 
ENDBRANCH  19  20
ENDBRANCH  11  18
TORSDOF 3
ENDMDL
