MODEL 1
REMARK VINA RESULT:      -8.4      0.000      0.000
REMARK  Name = 
REMARK  3 active torsions:
REMARK  status: ('A' for Active; 'I' for Inactive)
REMARK    1  A    between atoms: O_1  and  C_2
REMARK    2  A    between atoms: C_14  and  O_15
REMARK    3  A    between atoms: C_16  and  O_17
REMARK                            x       y       z     vdW  Elec       q    Type
REMARK                         _______ _______ _______ _____ _____    ______ ____
ROOT
ATOM      1  C   UNL     1       1.716   2.001  19.151  0.00  0.00    +0.000 C 
ATOM      2  C   UNL     1       2.886   2.417  18.244  0.00  0.00    +0.000 C 
ATOM      3  C   UNL     1       2.774   3.877  17.744  0.00  0.00    +0.000 C 
ATOM      4  C   UNL     1       4.015   4.383  16.999  0.00  0.00    +0.000 A 
ATOM      5  C   UNL     1       4.668   3.613  16.024  0.00  0.00    +0.000 A 
ATOM      6  C   UNL     1       5.794   4.162  15.424  0.00  0.00    +0.000 A 
ATOM      7  C   UNL     1       6.348   5.350  15.843  0.00  0.00    +0.000 A 
ATOM      8  C   UNL     1       5.742   6.132  16.782  0.00  0.00    +0.000 A 
ATOM      9  C   UNL     1       4.496   5.706  17.254  0.00  0.00    +0.000 A 
ATOM     10  C   UNL     1       3.637   6.760  17.914  0.00  0.00    +0.000 C 
ATOM     11  C   UNL     1       2.289   6.241  18.376  0.00  0.00    +0.000 C 
ATOM     12  C   UNL     1       2.483   4.835  18.947  0.00  0.00    +0.000 C 
ATOM     13  C   UNL     1       1.312   4.401  19.814  0.00  0.00    +0.000 C 
ATOM     14  C   UNL     1       1.507   2.967  20.324  0.00  0.00    +0.000 C 
ATOM     15  O   UNL     1       7.436   5.713  15.110  0.00  0.00    +0.000 OA
ATOM     16  C   UNL     1       7.226   4.851  13.980  0.00  0.00    +0.000 C 
ATOM     17  O   UNL     1       6.452   3.679  14.328  0.00  0.00    +0.000 OA
ENDROOT
BRANCH   1  18
ATOM     18  O   UNL     1       0.521   1.954  18.374  0.00  0.00    +0.000 OA
ATOM     19  H   UNL     1       0.303   2.865  18.108  0.00  0.00    +0.000 HD
ENDBRANCH   1  18
BRANCH  13  20
ATOM     20  O   UNL     1       1.238   5.287  20.941  0.00  0.00    +0.000 OA
ATOM     21  H   UNL     1       1.474   4.749  21.724  0.00  0.00    +0.000 HD
ENDBRANCH  13  20
BRANCH  14  22
ATOM     22  O   UNL     1       2.605   2.921  21.252  0.00  0.00    +0.000 OA
ATOM     23  H   UNL     1       3.143   3.727  21.155  0.00  0.00    +0.000 HD
ENDBRANCH  14  22
TORSDOF 3
ENDMDL
MODEL 2
REMARK VINA RESULT:      -8.3      2.600      5.305
REMARK  Name = 
REMARK  3 active torsions:
REMARK  status: ('A' for Active; 'I' for Inactive)
REMARK    1  A    between atoms: O_1  and  C_2
REMARK    2  A    between atoms: C_14  and  O_15
REMARK    3  A    between atoms: C_16  and  O_17
REMARK                            x       y       z     vdW  Elec       q    Type
REMARK                         _______ _______ _______ _____ _____    ______ ____
ROOT
ATOM      1  C   UNL     1       1.704   2.836  20.891  0.00  0.00    +0.000 C 
ATOM      2  C   UNL     1       1.400   4.324  20.644  0.00  0.00    +0.000 C 
ATOM      3  C   UNL     1       2.617   5.105  20.091  0.00  0.00    +0.000 C 
ATOM      4  C   UNL     1       2.296   6.539  19.654  0.00  0.00    +0.000 A 
ATOM      5  C   UNL     1       1.514   7.403  20.436  0.00  0.00    +0.000 A 
ATOM      6  C   UNL     1       1.270   8.676  19.937  0.00  0.00    +0.000 A 
ATOM      7  C   UNL     1       1.654   9.056  18.671  0.00  0.00    +0.000 A 
ATOM      8  C   UNL     1       2.421   8.251  17.881  0.00  0.00    +0.000 A 
ATOM      9  C   UNL     1       2.858   7.046  18.439  0.00  0.00    +0.000 A 
ATOM     10  C   UNL     1       4.046   6.393  17.770  0.00  0.00    +0.000 C 
ATOM     11  C   UNL     1       4.489   5.107  18.441  0.00  0.00    +0.000 C 
ATOM     12  C   UNL     1       3.241   4.337  18.879  0.00  0.00    +0.000 C 
ATOM     13  C   UNL     1       3.540   2.873  19.162  0.00  0.00    +0.000 C 
ATOM     14  C   UNL     1       2.284   2.140  19.653  0.00  0.00    +0.000 C 
ATOM     15  O   UNL     1       1.332  10.348  18.388  0.00  0.00    +0.000 OA
ATOM     16  C   UNL     1       1.098  10.806  19.730  0.00  0.00    +0.000 C 
ATOM     17  O   UNL     1       0.714   9.725  20.612  0.00  0.00    +0.000 OA
ENDROOT
BRANCH   1  18
ATOM     18  O   UNL     1       2.637   2.725  21.963  0.00  0.00    +0.000 OA
ATOM     19  H   UNL     1       2.200   3.044  22.772  0.00  0.00    +0.000 HD
ENDBRANCH   1  18
BRANCH  13  20
ATOM     20  O   UNL     1       3.983   2.263  17.940  0.00  0.00    +0.000 OA
ATOM     21  H   UNL     1       4.015   1.301  18.114  0.00  0.00    +0.000 HD
ENDBRANCH  13  20
BRANCH  14  22
ATOM     22  O   UNL     1       1.319   2.053  18.590  0.00  0.00    +0.000 OA
ATOM     23  H   UNL     1       1.784   2.025  17.735  0.00  0.00    +0.000 HD
ENDBRANCH  14  22
TORSDOF 3
ENDMDL
MODEL 3
REMARK VINA RESULT:      -8.0      2.841      6.003
REMARK  Name = 
REMARK  3 active torsions:
REMARK  status: ('A' for Active; 'I' for Inactive)
REMARK    1  A    between atoms: O_1  and  C_2
REMARK    2  A    between atoms: C_14  and  O_15
REMARK    3  A    between atoms: C_16  and  O_17
REMARK                            x       y       z     vdW  Elec       q    Type
REMARK                         _______ _______ _______ _____ _____    ______ ____
ROOT
ATOM      1  C   UNL     1       5.749   5.491  16.846  0.00  0.00    +0.000 C 
ATOM      2  C   UNL     1       4.791   6.583  17.351  0.00  0.00    +0.000 C 
ATOM      3  C   UNL     1       3.519   6.009  18.021  0.00  0.00    +0.000 C 
ATOM      4  C   UNL     1       2.639   7.064  18.704  0.00  0.00    +0.000 A 
ATOM      5  C   UNL     1       2.324   8.286  18.091  0.00  0.00    +0.000 A 
ATOM      6  C   UNL     1       1.533   9.176  18.807  0.00  0.00    +0.000 A 
ATOM      7  C   UNL     1       1.172   8.952  20.117  0.00  0.00    +0.000 A 
ATOM      8  C   UNL     1       1.453   7.775  20.747  0.00  0.00    +0.000 A 
ATOM      9  C   UNL     1       2.065   6.777  19.983  0.00  0.00    +0.000 A 
ATOM     10  C   UNL     1       1.956   5.367  20.517  0.00  0.00    +0.000 C 
ATOM     11  C   UNL     1       2.614   4.330  19.628  0.00  0.00    +0.000 C 
ATOM     12  C   UNL     1       3.912   4.922  19.075  0.00  0.00    +0.000 C 
ATOM     13  C   UNL     1       4.848   3.851  18.538  0.00  0.00    +0.000 C 
ATOM     14  C   UNL     1       6.114   4.477  17.938  0.00  0.00    +0.000 C 
ATOM     15  O   UNL     1       0.385   9.940  20.623  0.00  0.00    +0.000 OA
ATOM     16  C   UNL     1      -0.015  10.547  19.384  0.00  0.00    +0.000 C 
ATOM     17  O   UNL     1       0.949  10.315  18.330  0.00  0.00    +0.000 OA
ENDROOT
BRANCH   1  18
ATOM     18  O   UNL     1       5.132   4.799  15.762  0.00  0.00    +0.000 OA
ATOM     19  H   UNL     1       5.371   5.262  14.940  0.00  0.00    +0.000 HD
ENDBRANCH   1  18
BRANCH  13  20
ATOM     20  O   UNL     1       5.227   3.000  19.631  0.00  0.00    +0.000 OA
ATOM     21  H   UNL     1       4.642   3.241  20.377  0.00  0.00    +0.000 HD
ENDBRANCH  13  20
BRANCH  14  22
ATOM     22  O   UNL     1       6.905   5.078  18.978  0.00  0.00    +0.000 OA
ATOM     23  H   UNL     1       7.652   4.492  19.195  0.00  0.00    +0.000 HD
ENDBRANCH  14  22
TORSDOF 3
ENDMDL
MODEL 4
REMARK VINA RESULT:      -7.3      1.451      6.016
REMARK  Name = 
REMARK  3 active torsions:
REMARK  status: ('A' for Active; 'I' for Inactive)
REMARK    1  A    between atoms: O_1  and  C_2
REMARK    2  A    between atoms: C_14  and  O_15
REMARK    3  A    between atoms: C_16  and  O_17
REMARK                            x       y       z     vdW  Elec       q    Type
REMARK                         _______ _______ _______ _____ _____    ______ ____
ROOT
ATOM      1  C   UNL     1       6.843   4.076  15.958  0.00  0.00    +0.000 C 
ATOM      2  C   UNL     1       5.821   3.627  17.017  0.00  0.00    +0.000 C 
ATOM      3  C   UNL     1       5.145   4.814  17.745  0.00  0.00    +0.000 C 
ATOM      4  C   UNL     1       3.988   4.409  18.666  0.00  0.00    +0.000 A 
ATOM      5  C   UNL     1       4.080   3.321  19.548  0.00  0.00    +0.000 A 
ATOM      6  C   UNL     1       2.965   3.031  20.325  0.00  0.00    +0.000 A 
ATOM      7  C   UNL     1       1.763   3.681  20.160  0.00  0.00    +0.000 A 
ATOM      8  C   UNL     1       1.633   4.746  19.319  0.00  0.00    +0.000 A 
ATOM      9  C   UNL     1       2.792   5.195  18.679  0.00  0.00    +0.000 A 
ATOM     10  C   UNL     1       2.752   6.605  18.136  0.00  0.00    +0.000 C 
ATOM     11  C   UNL     1       4.049   7.040  17.481  0.00  0.00    +0.000 C 
ATOM     12  C   UNL     1       4.617   5.853  16.700  0.00  0.00    +0.000 C 
ATOM     13  C   UNL     1       5.656   6.284  15.678  0.00  0.00    +0.000 C 
ATOM     14  C   UNL     1       6.250   5.069  14.951  0.00  0.00    +0.000 C 
ATOM     15  O   UNL     1       0.809   3.255  21.033  0.00  0.00    +0.000 OA
ATOM     16  C   UNL     1       1.668   2.598  21.980  0.00  0.00    +0.000 C 
ATOM     17  O   UNL     1       2.907   2.160  21.375  0.00  0.00    +0.000 OA
ENDROOT
BRANCH   1  18
ATOM     18  O   UNL     1       7.951   4.689  16.613  0.00  0.00    +0.000 OA
ATOM     19  H   UNL     1       8.037   5.595  16.266  0.00  0.00    +0.000 HD
ENDBRANCH   1  18
BRANCH  13  20
ATOM     20  O   UNL     1       5.010   7.129  14.713  0.00  0.00    +0.000 OA
ATOM     21  H   UNL     1       4.688   7.909  15.209  0.00  0.00    +0.000 HD
ENDBRANCH  13  20
BRANCH  14  22
ATOM     22  O   UNL     1       5.246   4.453  14.124  0.00  0.00    +0.000 OA
ATOM     23  H   UNL     1       4.850   3.703  14.602  0.00  0.00    +0.000 HD
ENDBRANCH  14  22
TORSDOF 3
ENDMDL
MODEL 5
REMARK VINA RESULT:      -7.2      1.850      3.089
REMARK  Name = 
REMARK  3 active torsions:
REMARK  status: ('A' for Active; 'I' for Inactive)
REMARK    1  A    between atoms: O_1  and  C_2
REMARK    2  A    between atoms: C_14  and  O_15
REMARK    3  A    between atoms: C_16  and  O_17
REMARK                            x       y       z     vdW  Elec       q    Type
REMARK                         _______ _______ _______ _____ _____    ______ ____
ROOT
ATOM      1  C   UNL     1       2.143   3.291  21.591  0.00  0.00    +0.000 C 
ATOM      2  C   UNL     1       3.167   4.179  20.865  0.00  0.00    +0.000 C 
ATOM      3  C   UNL     1       3.681   3.553  19.545  0.00  0.00    +0.000 C 
ATOM      4  C   UNL     1       4.553   4.492  18.703  0.00  0.00    +0.000 A 
ATOM      5  C   UNL     1       5.573   5.274  19.268  0.00  0.00    +0.000 A 
ATOM      6  C   UNL     1       6.290   6.103  18.416  0.00  0.00    +0.000 A 
ATOM      7  C   UNL     1       5.949   6.273  17.093  0.00  0.00    +0.000 A 
ATOM      8  C   UNL     1       4.970   5.529  16.504  0.00  0.00    +0.000 A 
ATOM      9  C   UNL     1       4.370   4.536  17.285  0.00  0.00    +0.000 A 
ATOM     10  C   UNL     1       3.648   3.442  16.533  0.00  0.00    +0.000 C 
ATOM     11  C   UNL     1       3.047   2.382  17.436  0.00  0.00    +0.000 C 
ATOM     12  C   UNL     1       2.472   3.072  18.675  0.00  0.00    +0.000 C 
ATOM     13  C   UNL     1       1.487   2.186  19.420  0.00  0.00    +0.000 C 
ATOM     14  C   UNL     1       0.972   2.882  20.688  0.00  0.00    +0.000 C 
ATOM     15  O   UNL     1       6.792   7.115  16.435  0.00  0.00    +0.000 OA
ATOM     16  C   UNL     1       7.880   7.100  17.373  0.00  0.00    +0.000 C 
ATOM     17  O   UNL     1       7.437   6.784  18.714  0.00  0.00    +0.000 OA
ENDROOT
BRANCH   1  18
ATOM     18  O   UNL     1       2.798   2.113  22.059  0.00  0.00    +0.000 OA
ATOM     19  H   UNL     1       3.754   2.294  22.080  0.00  0.00    +0.000 HD
ENDBRANCH   1  18
BRANCH  13  20
ATOM     20  O   UNL     1       0.374   1.926  18.552  0.00  0.00    +0.000 OA
ATOM     21  H   UNL     1       0.579   2.375  17.707  0.00  0.00    +0.000 HD
ENDBRANCH  13  20
BRANCH  14  22
ATOM     22  O   UNL     1       0.156   4.011  20.332  0.00  0.00    +0.000 OA
ATOM     23  H   UNL     1      -0.417   3.771  19.582  0.00  0.00    +0.000 HD
ENDBRANCH  14  22
TORSDOF 3
ENDMDL
MODEL 6
REMARK VINA RESULT:      -7.2      1.594      6.163
REMARK  Name = 
REMARK  3 active torsions:
REMARK  status: ('A' for Active; 'I' for Inactive)
REMARK    1  A    between atoms: O_1  and  C_2
REMARK    2  A    between atoms: C_14  and  O_15
REMARK    3  A    between atoms: C_16  and  O_17
REMARK                            x       y       z     vdW  Elec       q    Type
REMARK                         _______ _______ _______ _____ _____    ______ ____
ROOT
ATOM      1  C   UNL     1       7.386   5.045  17.444  0.00  0.00    +0.000 C 
ATOM      2  C   UNL     1       6.276   4.379  18.275  0.00  0.00    +0.000 C 
ATOM      3  C   UNL     1       5.076   5.319  18.543  0.00  0.00    +0.000 C 
ATOM      4  C   UNL     1       3.874   4.630  19.200  0.00  0.00    +0.000 A 
ATOM      5  C   UNL     1       4.017   3.748  20.283  0.00  0.00    +0.000 A 
ATOM      6  C   UNL     1       2.862   3.166  20.791  0.00  0.00    +0.000 A 
ATOM      7  C   UNL     1       1.632   3.323  20.193  0.00  0.00    +0.000 A 
ATOM      8  C   UNL     1       1.449   4.176  19.144  0.00  0.00    +0.000 A 
ATOM      9  C   UNL     1       2.553   4.936  18.744  0.00  0.00    +0.000 A 
ATOM     10  C   UNL     1       2.251   6.172  17.928  0.00  0.00    +0.000 C 
ATOM     11  C   UNL     1       3.486   6.967  17.552  0.00  0.00    +0.000 C 
ATOM     12  C   UNL     1       4.607   5.983  17.206  0.00  0.00    +0.000 C 
ATOM     13  C   UNL     1       5.726   6.643  16.417  0.00  0.00    +0.000 C 
ATOM     14  C   UNL     1       6.860   5.648  16.135  0.00  0.00    +0.000 C 
ATOM     15  O   UNL     1       0.635   2.683  20.861  0.00  0.00    +0.000 OA
ATOM     16  C   UNL     1       1.314   2.480  22.111  0.00  0.00    +0.000 C 
ATOM     17  O   UNL     1       2.751   2.449  21.948  0.00  0.00    +0.000 OA
ENDROOT
BRANCH   1  18
ATOM     18  O   UNL     1       7.989   6.079  18.219  0.00  0.00    +0.000 OA
ATOM     19  H   UNL     1       7.299   6.468  18.785  0.00  0.00    +0.000 HD
ENDBRANCH   1  18
BRANCH  13  20
ATOM     20  O   UNL     1       5.185   7.094  15.166  0.00  0.00    +0.000 OA
ATOM     21  H   UNL     1       4.219   6.954  15.222  0.00  0.00    +0.000 HD
ENDBRANCH  13  20
BRANCH  14  22
ATOM     22  O   UNL     1       6.406   4.631  15.225  0.00  0.00    +0.000 OA
ATOM     23  H   UNL     1       5.459   4.762  15.041  0.00  0.00    +0.000 HD
ENDBRANCH  14  22
TORSDOF 3
ENDMDL
MODEL 7
REMARK VINA RESULT:      -7.1      2.522      6.139
REMARK  Name = 
REMARK  3 active torsions:
REMARK  status: ('A' for Active; 'I' for Inactive)
REMARK    1  A    between atoms: O_1  and  C_2
REMARK    2  A    between atoms: C_14  and  O_15
REMARK    3  A    between atoms: C_16  and  O_17
REMARK                            x       y       z     vdW  Elec       q    Type
REMARK                         _______ _______ _______ _____ _____    ______ ____
ROOT
ATOM      1  C   UNL     1       5.665   5.661  16.477  0.00  0.00    +0.000 C 
ATOM      2  C   UNL     1       4.787   6.518  17.404  0.00  0.00    +0.000 C 
ATOM      3  C   UNL     1       3.398   5.888  17.673  0.00  0.00    +0.000 C 
ATOM      4  C   UNL     1       2.575   6.617  18.741  0.00  0.00    +0.000 A 
ATOM      5  C   UNL     1       2.458   8.015  18.772  0.00  0.00    +0.000 A 
ATOM      6  C   UNL     1       1.701   8.572  19.795  0.00  0.00    +0.000 A 
ATOM      7  C   UNL     1       1.187   7.819  20.826  0.00  0.00    +0.000 A 
ATOM      8  C   UNL     1       1.273   6.457  20.831  0.00  0.00    +0.000 A 
ATOM      9  C   UNL     1       1.846   5.853  19.708  0.00  0.00    +0.000 A 
ATOM     10  C   UNL     1       1.531   4.389  19.503  0.00  0.00    +0.000 C 
ATOM     11  C   UNL     1       2.158   3.803  18.254  0.00  0.00    +0.000 C 
ATOM     12  C   UNL     1       3.562   4.391  18.097  0.00  0.00    +0.000 C 
ATOM     13  C   UNL     1       4.425   3.571  17.151  0.00  0.00    +0.000 C 
ATOM     14  C   UNL     1       5.806   4.215  16.968  0.00  0.00    +0.000 C 
ATOM     15  O   UNL     1       0.465   8.558  21.711  0.00  0.00    +0.000 OA
ATOM     16  C   UNL     1       0.262   9.724  20.895  0.00  0.00    +0.000 C 
ATOM     17  O   UNL     1       1.296   9.873  19.895  0.00  0.00    +0.000 OA
ENDROOT
BRANCH   1  18
ATOM     18  O   UNL     1       5.090   5.651  15.172  0.00  0.00    +0.000 OA
ATOM     19  H   UNL     1       4.122   5.628  15.274  0.00  0.00    +0.000 HD
ENDBRANCH   1  18
BRANCH  13  20
ATOM     20  O   UNL     1       4.596   2.264  17.721  0.00  0.00    +0.000 OA
ATOM     21  H   UNL     1       4.819   1.671  16.976  0.00  0.00    +0.000 HD
ENDBRANCH  13  20
BRANCH  14  22
ATOM     22  O   UNL     1       6.549   4.141  18.198  0.00  0.00    +0.000 OA
ATOM     23  H   UNL     1       5.991   3.740  18.888  0.00  0.00    +0.000 HD
ENDBRANCH  14  22
TORSDOF 3
ENDMDL
MODEL 8
REMARK VINA RESULT:      -6.2      4.318      6.913
REMARK  Name = 
REMARK  3 active torsions:
REMARK  status: ('A' for Active; 'I' for Inactive)
REMARK    1  A    between atoms: O_1  and  C_2
REMARK    2  A    between atoms: C_14  and  O_15
REMARK    3  A    between atoms: C_16  and  O_17
REMARK                            x       y       z     vdW  Elec       q    Type
REMARK                         _______ _______ _______ _____ _____    ______ ____
ROOT
ATOM      1  C   UNL     1       0.142  11.094  21.855  0.00  0.00    +0.000 C 
ATOM      2  C   UNL     1       0.786   9.704  21.715  0.00  0.00    +0.000 C 
ATOM      3  C   UNL     1       0.697   9.139  20.276  0.00  0.00    +0.000 C 
ATOM      4  C   UNL     1       1.495   7.847  20.059  0.00  0.00    +0.000 A 
ATOM      5  C   UNL     1       1.458   6.783  20.973  0.00  0.00    +0.000 A 
ATOM      6  C   UNL     1       2.233   5.666  20.686  0.00  0.00    +0.000 A 
ATOM      7  C   UNL     1       3.113   5.632  19.628  0.00  0.00    +0.000 A 
ATOM      8  C   UNL     1       3.174   6.641  18.713  0.00  0.00    +0.000 A 
ATOM      9  C   UNL     1       2.256   7.686  18.858  0.00  0.00    +0.000 A 
ATOM     10  C   UNL     1       2.013   8.536  17.632  0.00  0.00    +0.000 C 
ATOM     11  C   UNL     1       0.986   9.630  17.847  0.00  0.00    +0.000 C 
ATOM     12  C   UNL     1       1.187  10.212  19.248  0.00  0.00    +0.000 C 
ATOM     13  C   UNL     1       0.521  11.570  19.407  0.00  0.00    +0.000 C 
ATOM     14  C   UNL     1       0.690  12.102  20.837  0.00  0.00    +0.000 C 
ATOM     15  O   UNL     1       3.759   4.439  19.518  0.00  0.00    +0.000 OA
ATOM     16  C   UNL     1       2.890   3.651  20.347  0.00  0.00    +0.000 C 
ATOM     17  O   UNL     1       2.191   4.458  21.323  0.00  0.00    +0.000 OA
ENDROOT
BRANCH   1  18
ATOM     18  O   UNL     1      -1.267  10.973  21.672  0.00  0.00    +0.000 OA
ATOM     19  H   UNL     1      -1.419  10.365  20.927  0.00  0.00    +0.000 HD
ENDBRANCH   1  18
BRANCH  13  20
ATOM     20  O   UNL     1       1.148  12.485  18.496  0.00  0.00    +0.000 OA
ATOM     21  H   UNL     1       2.112  12.345  18.592  0.00  0.00    +0.000 HD
ENDBRANCH  13  20
BRANCH  14  22
ATOM     22  O   UNL     1       2.072  12.411  21.085  0.00  0.00    +0.000 OA
ATOM     23  H   UNL     1       2.137  13.293  21.493  0.00  0.00    +0.000 HD
ENDBRANCH  14  22
TORSDOF 3
ENDMDL
MODEL 9
REMARK VINA RESULT:      -6.1     10.091     12.615
REMARK  Name = 
REMARK  3 active torsions:
REMARK  status: ('A' for Active; 'I' for Inactive)
REMARK    1  A    between atoms: O_1  and  C_2
REMARK    2  A    between atoms: C_14  and  O_15
REMARK    3  A    between atoms: C_16  and  O_17
REMARK                            x       y       z     vdW  Elec       q    Type
REMARK                         _______ _______ _______ _____ _____    ______ ____
ROOT
ATOM      1  C   UNL     1      11.026  11.788  18.022  0.00  0.00    +0.000 C 
ATOM      2  C   UNL     1      10.138  11.766  19.277  0.00  0.00    +0.000 C 
ATOM      3  C   UNL     1      10.566  12.808  20.338  0.00  0.00    +0.000 C 
ATOM      4  C   UNL     1       9.590  12.945  21.513  0.00  0.00    +0.000 A 
ATOM      5  C   UNL     1       9.039  11.829  22.162  0.00  0.00    +0.000 A 
ATOM      6  C   UNL     1       8.152  12.067  23.204  0.00  0.00    +0.000 A 
ATOM      7  C   UNL     1       7.709  13.332  23.520  0.00  0.00    +0.000 A 
ATOM      8  C   UNL     1       8.224  14.443  22.919  0.00  0.00    +0.000 A 
ATOM      9  C   UNL     1       9.271  14.247  22.013  0.00  0.00    +0.000 A 
ATOM     10  C   UNL     1      10.127  15.456  21.711  0.00  0.00    +0.000 C 
ATOM     11  C   UNL     1      11.261  15.169  20.747  0.00  0.00    +0.000 C 
ATOM     12  C   UNL     1      10.748  14.211  19.669  0.00  0.00    +0.000 C 
ATOM     13  C   UNL     1      11.643  14.199  18.440  0.00  0.00    +0.000 C 
ATOM     14  C   UNL     1      11.136  13.187  17.402  0.00  0.00    +0.000 C 
ATOM     15  O   UNL     1       6.858  13.343  24.582  0.00  0.00    +0.000 OA
ATOM     16  C   UNL     1       7.160  12.040  25.107  0.00  0.00    +0.000 C 
ATOM     17  O   UNL     1       7.664  11.147  24.087  0.00  0.00    +0.000 OA
ENDROOT
BRANCH   1  18
ATOM     18  O   UNL     1      12.333  11.334  18.369  0.00  0.00    +0.000 OA
ATOM     19  H   UNL     1      12.450  10.446  17.988  0.00  0.00    +0.000 HD
ENDBRANCH   1  18
BRANCH  13  20
ATOM     20  O   UNL     1      11.620  15.510  17.857  0.00  0.00    +0.000 OA
ATOM     21  H   UNL     1      11.116  16.074  18.478  0.00  0.00    +0.000 HD
ENDBRANCH  13  20
BRANCH  14  22
ATOM     22  O   UNL     1       9.880  13.629  16.859  0.00  0.00    +0.000 OA
ATOM     23  H   UNL     1       9.859  14.602  16.842  0.00  0.00    +0.000 HD
ENDBRANCH  14  22
TORSDOF 3
ENDMDL
