MODEL 1
REMARK VINA RESULT:      -6.4      0.000      0.000
REMARK  Name = 
REMARK  11 active torsions:
REMARK  status: ('A' for Active; 'I' for Inactive)
REMARK    1  A    between atoms: C_1  and  C_2
REMARK    2  A    between atoms: C_2  and  C_3
REMARK    3  A    between atoms: C_2  and  C_5
REMARK    4  A    between atoms: C_5  and  N_6
REMARK    5  A    between atoms: N_6  and  C_7
REMARK    6  A    between atoms: C_14  and  N_15
REMARK    7  A    between atoms: C_16  and  O_18
REMARK    8  A    between atoms: O_18  and  C_19
REMARK    9  A    between atoms: C_19  and  C_20
REMARK   10  A    between atoms: C_19  and  C_21
REMARK   11  A    between atoms: C_19  and  C_22
REMARK                            x       y       z     vdW  Elec       q    Type
REMARK                         _______ _______ _______ _____ _____    ______ ____
ROOT
ATOM      1  C   UNL     1       1.336   4.522  20.291  0.00  0.00    +0.000 C 
ATOM      2  C   UNL     1       1.402   5.992  20.740  0.00  0.00    +0.000 C 
ATOM      3  C   UNL     1       2.492   6.811  20.049  0.00  0.00    +0.000 C 
ATOM      4  C   UNL     1       2.542   6.608  18.544  0.00  0.00    +0.000 C 
ATOM      5  C   UNL     1       2.376   5.178  18.079  0.00  0.00    +0.000 C 
ATOM      6  C   UNL     1       1.190   4.499  18.757  0.00  0.00    +0.000 C 
ATOM      7  C   UNL     1       2.055   7.721  17.644  0.00  0.00    +0.000 C 
ATOM      8  C   UNL     1       3.533   7.472  17.789  0.00  0.00    +0.000 C 
ENDROOT
BRANCH   8   9
ATOM      9  N   UNL     1       4.300   6.995  16.678  0.00  0.00    +0.000 N 
ATOM     10  C   UNL     1       5.652   6.812  16.769  0.00  0.00    +0.000 C 
ATOM     11  O   UNL     1       6.300   7.045  17.783  0.00  0.00    +0.000 OA
ATOM     12  H   UNL     1       3.862   6.725  15.811  0.00  0.00    +0.000 HD
BRANCH  10  13
ATOM     13  O   UNL     1       6.159   6.347  15.597  0.00  0.00    +0.000 OA
BRANCH  13  14
ATOM     14  C   UNL     1       6.433   4.924  15.471  0.00  0.00    +0.000 C 
ATOM     15  C   UNL     1       7.443   4.457  16.528  0.00  0.00    +0.000 C 
ATOM     16  C   UNL     1       5.104   4.192  15.727  0.00  0.00    +0.000 C 
ATOM     17  C   UNL     1       6.883   4.581  14.044  0.00  0.00    +0.000 C 
ENDBRANCH  13  14
ENDBRANCH  10  13
ENDBRANCH   8   9
BRANCH   1  18
ATOM     18  N   UNL     1       2.503   3.696  20.645  0.00  0.00    +0.000 NA
ATOM     19  H   UNL     1       3.343   4.163  20.302  0.00  0.00    +0.000 HD
BRANCH  18  20
ATOM     20  C   UNL     1       2.461   2.330  20.118  0.00  0.00    +0.000 C 
BRANCH  20  22
ATOM     21  C   UNL     1       3.516   1.601  17.915  0.00  0.00    +0.000 C 
ATOM     22  C   UNL     1       3.771   1.965  19.379  0.00  0.00    +0.000 C 
BRANCH  22  23
ATOM     23  C   UNL     1       4.694   3.170  19.436  0.00  0.00    +0.000 C 
ATOM     24  N   UNL     1       5.462   4.170  19.484  0.00  0.00    +0.000 NA
ENDBRANCH  22  23
ENDBRANCH  20  22
ENDBRANCH  18  20
ENDBRANCH   1  18
TORSDOF 7
ENDMDL
MODEL 2
REMARK VINA RESULT:      -6.3      2.722      5.380
REMARK  Name = 
REMARK  11 active torsions:
REMARK  status: ('A' for Active; 'I' for Inactive)
REMARK    1  A    between atoms: C_1  and  C_2
REMARK    2  A    between atoms: C_2  and  C_3
REMARK    3  A    between atoms: C_2  and  C_5
REMARK    4  A    between atoms: C_5  and  N_6
REMARK    5  A    between atoms: N_6  and  C_7
REMARK    6  A    between atoms: C_14  and  N_15
REMARK    7  A    between atoms: C_16  and  O_18
REMARK    8  A    between atoms: O_18  and  C_19
REMARK    9  A    between atoms: C_19  and  C_20
REMARK   10  A    between atoms: C_19  and  C_21
REMARK   11  A    between atoms: C_19  and  C_22
REMARK                            x       y       z     vdW  Elec       q    Type
REMARK                         _______ _______ _______ _____ _____    ______ ____
ROOT
ATOM      1  C   UNL     1       3.305   2.679  17.966  0.00  0.00    +0.000 C 
ATOM      2  C   UNL     1       2.870   2.310  19.394  0.00  0.00    +0.000 C 
ATOM      3  C   UNL     1       2.830   3.493  20.363  0.00  0.00    +0.000 C 
ATOM      4  C   UNL     1       2.144   4.723  19.791  0.00  0.00    +0.000 C 
ATOM      5  C   UNL     1       2.484   5.042  18.352  0.00  0.00    +0.000 C 
ATOM      6  C   UNL     1       2.383   3.806  17.462  0.00  0.00    +0.000 C 
ATOM      7  C   UNL     1       0.775   5.098  20.310  0.00  0.00    +0.000 C 
ATOM      8  C   UNL     1       1.980   5.893  20.741  0.00  0.00    +0.000 C 
ENDROOT
BRANCH   8   9
ATOM      9  N   UNL     1       2.130   7.258  20.334  0.00  0.00    +0.000 N 
ATOM     10  C   UNL     1       1.275   8.232  20.772  0.00  0.00    +0.000 C 
ATOM     11  O   UNL     1       0.329   8.015  21.521  0.00  0.00    +0.000 OA
ATOM     12  H   UNL     1       2.903   7.556  19.760  0.00  0.00    +0.000 HD
BRANCH  10  13
ATOM     13  O   UNL     1       1.619   9.444  20.263  0.00  0.00    +0.000 OA
BRANCH  13  14
ATOM     14  C   UNL     1       0.972   9.896  19.040  0.00  0.00    +0.000 C 
ATOM     15  C   UNL     1      -0.548  10.009  19.226  0.00  0.00    +0.000 C 
ATOM     16  C   UNL     1       1.520  11.303  18.741  0.00  0.00    +0.000 C 
ATOM     17  C   UNL     1       1.349   8.992  17.859  0.00  0.00    +0.000 C 
ENDBRANCH  13  14
ENDBRANCH  10  13
ENDBRANCH   8   9
BRANCH   1  18
ATOM     18  N   UNL     1       4.698   3.139  17.824  0.00  0.00    +0.000 NA
ATOM     19  H   UNL     1       4.922   3.735  18.623  0.00  0.00    +0.000 HD
BRANCH  18  20
ATOM     20  C   UNL     1       4.971   3.871  16.585  0.00  0.00    +0.000 C 
BRANCH  20  22
ATOM     21  C   UNL     1       5.293   6.390  16.372  0.00  0.00    +0.000 C 
ATOM     22  C   UNL     1       5.917   5.071  16.829  0.00  0.00    +0.000 C 
BRANCH  22  23
ATOM     23  C   UNL     1       6.203   5.148  18.319  0.00  0.00    +0.000 C 
ATOM     24  N   UNL     1       6.440   5.213  19.557  0.00  0.00    +0.000 NA
ENDBRANCH  22  23
ENDBRANCH  20  22
ENDBRANCH  18  20
ENDBRANCH   1  18
TORSDOF 7
ENDMDL
MODEL 3
REMARK VINA RESULT:      -6.1      2.735      5.451
REMARK  Name = 
REMARK  11 active torsions:
REMARK  status: ('A' for Active; 'I' for Inactive)
REMARK    1  A    between atoms: C_1  and  C_2
REMARK    2  A    between atoms: C_2  and  C_3
REMARK    3  A    between atoms: C_2  and  C_5
REMARK    4  A    between atoms: C_5  and  N_6
REMARK    5  A    between atoms: N_6  and  C_7
REMARK    6  A    between atoms: C_14  and  N_15
REMARK    7  A    between atoms: C_16  and  O_18
REMARK    8  A    between atoms: O_18  and  C_19
REMARK    9  A    between atoms: C_19  and  C_20
REMARK   10  A    between atoms: C_19  and  C_21
REMARK   11  A    between atoms: C_19  and  C_22
REMARK                            x       y       z     vdW  Elec       q    Type
REMARK                         _______ _______ _______ _____ _____    ______ ____
ROOT
ATOM      1  C   UNL     1       3.418   2.869  17.737  0.00  0.00    +0.000 C 
ATOM      2  C   UNL     1       3.054   2.427  19.165  0.00  0.00    +0.000 C 
ATOM      3  C   UNL     1       3.016   3.566  20.183  0.00  0.00    +0.000 C 
ATOM      4  C   UNL     1       2.269   4.795  19.692  0.00  0.00    +0.000 C 
ATOM      5  C   UNL     1       2.539   5.184  18.256  0.00  0.00    +0.000 C 
ATOM      6  C   UNL     1       2.441   3.984  17.319  0.00  0.00    +0.000 C 
ATOM      7  C   UNL     1       0.911   5.103  20.281  0.00  0.00    +0.000 C 
ATOM      8  C   UNL     1       2.107   5.919  20.697  0.00  0.00    +0.000 C 
ENDROOT
BRANCH   8   9
ATOM      9  N   UNL     1       2.197   7.303  20.344  0.00  0.00    +0.000 N 
ATOM     10  C   UNL     1       1.272   8.213  20.778  0.00  0.00    +0.000 C 
ATOM     11  O   UNL     1       0.311   7.919  21.479  0.00  0.00    +0.000 OA
ATOM     12  H   UNL     1       2.975   7.664  19.813  0.00  0.00    +0.000 HD
BRANCH  10  13
ATOM     13  O   UNL     1       1.569   9.460  20.325  0.00  0.00    +0.000 OA
BRANCH  13  14
ATOM     14  C   UNL     1       0.972   9.908  19.075  0.00  0.00    +0.000 C 
ATOM     15  C   UNL     1       1.304   8.946  17.926  0.00  0.00    +0.000 C 
ATOM     16  C   UNL     1      -0.553   9.894  19.281  0.00  0.00    +0.000 C 
ATOM     17  C   UNL     1       1.384  11.353  18.763  0.00  0.00    +0.000 C 
ENDBRANCH  13  14
ENDBRANCH  10  13
ENDBRANCH   8   9
BRANCH   1  18
ATOM     18  N   UNL     1       4.788   3.380  17.560  0.00  0.00    +0.000 NA
ATOM     19  H   UNL     1       4.918   4.175  18.188  0.00  0.00    +0.000 HD
BRANCH  18  20
ATOM     20  C   UNL     1       5.110   3.789  16.191  0.00  0.00    +0.000 C 
BRANCH  20  22
ATOM     21  C   UNL     1       5.504   6.305  16.310  0.00  0.00    +0.000 C 
ATOM     22  C   UNL     1       6.157   4.928  16.169  0.00  0.00    +0.000 C 
BRANCH  22  23
ATOM     23  C   UNL     1       7.112   4.712  17.330  0.00  0.00    +0.000 C 
ATOM     24  N   UNL     1       7.906   4.532  18.294  0.00  0.00    +0.000 NA
ENDBRANCH  22  23
ENDBRANCH  20  22
ENDBRANCH  18  20
ENDBRANCH   1  18
TORSDOF 7
ENDMDL
MODEL 4
REMARK VINA RESULT:      -6.1      0.819      1.288
REMARK  Name = 
REMARK  11 active torsions:
REMARK  status: ('A' for Active; 'I' for Inactive)
REMARK    1  A    between atoms: C_1  and  C_2
REMARK    2  A    between atoms: C_2  and  C_3
REMARK    3  A    between atoms: C_2  and  C_5
REMARK    4  A    between atoms: C_5  and  N_6
REMARK    5  A    between atoms: N_6  and  C_7
REMARK    6  A    between atoms: C_14  and  N_15
REMARK    7  A    between atoms: C_16  and  O_18
REMARK    8  A    between atoms: O_18  and  C_19
REMARK    9  A    between atoms: C_19  and  C_20
REMARK   10  A    between atoms: C_19  and  C_21
REMARK   11  A    between atoms: C_19  and  C_22
REMARK                            x       y       z     vdW  Elec       q    Type
REMARK                         _______ _______ _______ _____ _____    ______ ____
ROOT
ATOM      1  C   UNL     1       0.861   3.416  19.776  0.00  0.00    +0.000 C 
ATOM      2  C   UNL     1       1.221   4.650  20.621  0.00  0.00    +0.000 C 
ATOM      3  C   UNL     1       2.465   5.397  20.141  0.00  0.00    +0.000 C 
ATOM      4  C   UNL     1       2.492   5.630  18.639  0.00  0.00    +0.000 C 
ATOM      5  C   UNL     1       2.043   4.458  17.796  0.00  0.00    +0.000 C 
ATOM      6  C   UNL     1       0.734   3.864  18.308  0.00  0.00    +0.000 C 
ATOM      7  C   UNL     1       2.255   7.029  18.117  0.00  0.00    +0.000 C 
ATOM      8  C   UNL     1       3.649   6.458  18.117  0.00  0.00    +0.000 C 
ENDROOT
BRANCH   8   9
ATOM      9  N   UNL     1       4.317   6.178  16.881  0.00  0.00    +0.000 N 
ATOM     10  C   UNL     1       5.562   6.677  16.613  0.00  0.00    +0.000 C 
ATOM     11  O   UNL     1       6.185   7.394  17.388  0.00  0.00    +0.000 OA
ATOM     12  H   UNL     1       3.917   5.559  16.193  0.00  0.00    +0.000 HD
BRANCH  10  13
ATOM     13  O   UNL     1       5.994   6.272  15.389  0.00  0.00    +0.000 OA
BRANCH  13  14
ATOM     14  C   UNL     1       6.467   4.904  15.234  0.00  0.00    +0.000 C 
ATOM     15  C   UNL     1       5.300   3.907  15.257  0.00  0.00    +0.000 C 
ATOM     16  C   UNL     1       7.136   4.820  13.851  0.00  0.00    +0.000 C 
ATOM     17  C   UNL     1       7.535   4.575  16.287  0.00  0.00    +0.000 C 
ENDBRANCH  13  14
ENDBRANCH  10  13
ENDBRANCH   8   9
BRANCH   1  18
ATOM     18  N   UNL     1       1.829   2.306  19.827  0.00  0.00    +0.000 NA
ATOM     19  H   UNL     1       1.368   1.497  20.246  0.00  0.00    +0.000 HD
BRANCH  18  20
ATOM     20  C   UNL     1       3.054   2.604  20.573  0.00  0.00    +0.000 C 
BRANCH  20  22
ATOM     21  C   UNL     1       3.951   1.376  18.528  0.00  0.00    +0.000 C 
ATOM     22  C   UNL     1       4.312   2.104  19.824  0.00  0.00    +0.000 C 
BRANCH  22  23
ATOM     23  C   UNL     1       5.172   3.312  19.490  0.00  0.00    +0.000 C 
ATOM     24  N   UNL     1       5.885   4.314  19.213  0.00  0.00    +0.000 NA
ENDBRANCH  22  23
ENDBRANCH  20  22
ENDBRANCH  18  20
ENDBRANCH   1  18
TORSDOF 7
ENDMDL
MODEL 5
REMARK VINA RESULT:      -6.0      1.304      1.481
REMARK  Name = 
REMARK  11 active torsions:
REMARK  status: ('A' for Active; 'I' for Inactive)
REMARK    1  A    between atoms: C_1  and  C_2
REMARK    2  A    between atoms: C_2  and  C_3
REMARK    3  A    between atoms: C_2  and  C_5
REMARK    4  A    between atoms: C_5  and  N_6
REMARK    5  A    between atoms: N_6  and  C_7
REMARK    6  A    between atoms: C_14  and  N_15
REMARK    7  A    between atoms: C_16  and  O_18
REMARK    8  A    between atoms: O_18  and  C_19
REMARK    9  A    between atoms: C_19  and  C_20
REMARK   10  A    between atoms: C_19  and  C_21
REMARK   11  A    between atoms: C_19  and  C_22
REMARK                            x       y       z     vdW  Elec       q    Type
REMARK                         _______ _______ _______ _____ _____    ______ ____
ROOT
ATOM      1  C   UNL     1       0.970   3.417  19.726  0.00  0.00    +0.000 C 
ATOM      2  C   UNL     1       1.341   4.630  20.596  0.00  0.00    +0.000 C 
ATOM      3  C   UNL     1       2.559   5.409  20.099  0.00  0.00    +0.000 C 
ATOM      4  C   UNL     1       2.535   5.686  18.605  0.00  0.00    +0.000 C 
ATOM      5  C   UNL     1       2.074   4.533  17.741  0.00  0.00    +0.000 C 
ATOM      6  C   UNL     1       0.791   3.906  18.276  0.00  0.00    +0.000 C 
ATOM      7  C   UNL     1       2.264   7.096  18.132  0.00  0.00    +0.000 C 
ATOM      8  C   UNL     1       3.664   6.546  18.071  0.00  0.00    +0.000 C 
ENDROOT
BRANCH   8   9
ATOM      9  N   UNL     1       4.295   6.312  16.807  0.00  0.00    +0.000 N 
ATOM     10  C   UNL     1       5.608   6.631  16.594  0.00  0.00    +0.000 C 
ATOM     11  O   UNL     1       6.328   7.140  17.446  0.00  0.00    +0.000 OA
ATOM     12  H   UNL     1       3.811   5.852  16.052  0.00  0.00    +0.000 HD
BRANCH  10  13
ATOM     13  O   UNL     1       5.986   6.311  15.328  0.00  0.00    +0.000 OA
BRANCH  13  14
ATOM     14  C   UNL     1       6.575   5.003  15.086  0.00  0.00    +0.000 C 
ATOM     15  C   UNL     1       7.251   4.455  16.350  0.00  0.00    +0.000 C 
ATOM     16  C   UNL     1       5.417   4.057  14.719  0.00  0.00    +0.000 C 
ATOM     17  C   UNL     1       7.532   5.050  13.887  0.00  0.00    +0.000 C 
ENDBRANCH  13  14
ENDBRANCH  10  13
ENDBRANCH   8   9
BRANCH   1  18
ATOM     18  N   UNL     1       1.954   2.320  19.712  0.00  0.00    +0.000 NA
ATOM     19  H   UNL     1       1.467   1.449  19.929  0.00  0.00    +0.000 HD
BRANCH  18  20
ATOM     20  C   UNL     1       3.069   2.494  20.646  0.00  0.00    +0.000 C 
BRANCH  20  22
ATOM     21  C   UNL     1       5.174   3.331  19.477  0.00  0.00    +0.000 C 
ATOM     22  C   UNL     1       4.419   2.106  19.998  0.00  0.00    +0.000 C 
BRANCH  22  23
ATOM     23  C   UNL     1       5.266   1.415  21.054  0.00  0.00    +0.000 C 
ATOM     24  N   UNL     1       5.969   0.842  21.930  0.00  0.00    +0.000 NA
ENDBRANCH  22  23
ENDBRANCH  20  22
ENDBRANCH  18  20
ENDBRANCH   1  18
TORSDOF 7
ENDMDL
MODEL 6
REMARK VINA RESULT:      -6.0      0.965      1.484
REMARK  Name = 
REMARK  11 active torsions:
REMARK  status: ('A' for Active; 'I' for Inactive)
REMARK    1  A    between atoms: C_1  and  C_2
REMARK    2  A    between atoms: C_2  and  C_3
REMARK    3  A    between atoms: C_2  and  C_5
REMARK    4  A    between atoms: C_5  and  N_6
REMARK    5  A    between atoms: N_6  and  C_7
REMARK    6  A    between atoms: C_14  and  N_15
REMARK    7  A    between atoms: C_16  and  O_18
REMARK    8  A    between atoms: O_18  and  C_19
REMARK    9  A    between atoms: C_19  and  C_20
REMARK   10  A    between atoms: C_19  and  C_21
REMARK   11  A    between atoms: C_19  and  C_22
REMARK                            x       y       z     vdW  Elec       q    Type
REMARK                         _______ _______ _______ _____ _____    ______ ____
ROOT
ATOM      1  C   UNL     1       1.461   4.642  20.376  0.00  0.00    +0.000 C 
ATOM      2  C   UNL     1       1.385   6.133  20.746  0.00  0.00    +0.000 C 
ATOM      3  C   UNL     1       2.416   7.009  20.034  0.00  0.00    +0.000 C 
ATOM      4  C   UNL     1       2.522   6.732  18.543  0.00  0.00    +0.000 C 
ATOM      5  C   UNL     1       2.496   5.271  18.153  0.00  0.00    +0.000 C 
ATOM      6  C   UNL     1       1.358   4.524  18.843  0.00  0.00    +0.000 C 
ATOM      7  C   UNL     1       1.962   7.748  17.574  0.00  0.00    +0.000 C 
ATOM      8  C   UNL     1       3.452   7.641  17.764  0.00  0.00    +0.000 C 
ENDROOT
BRANCH   8   9
ATOM      9  N   UNL     1       4.287   7.177  16.696  0.00  0.00    +0.000 N 
ATOM     10  C   UNL     1       5.572   6.766  16.921  0.00  0.00    +0.000 C 
ATOM     11  O   UNL     1       6.101   6.772  18.027  0.00  0.00    +0.000 OA
ATOM     12  H   UNL     1       3.938   7.084  15.755  0.00  0.00    +0.000 HD
BRANCH  10  13
ATOM     13  O   UNL     1       6.163   6.364  15.765  0.00  0.00    +0.000 OA
BRANCH  13  14
ATOM     14  C   UNL     1       6.418   4.945  15.569  0.00  0.00    +0.000 C 
ATOM     15  C   UNL     1       5.116   4.134  15.626  0.00  0.00    +0.000 C 
ATOM     16  C   UNL     1       7.012   4.791  14.158  0.00  0.00    +0.000 C 
ATOM     17  C   UNL     1       7.465   4.438  16.571  0.00  0.00    +0.000 C 
ENDBRANCH  13  14
ENDBRANCH  10  13
ENDBRANCH   8   9
BRANCH   1  18
ATOM     18  N   UNL     1       2.687   3.943  20.799  0.00  0.00    +0.000 NA
ATOM     19  H   UNL     1       3.492   4.485  20.481  0.00  0.00    +0.000 HD
BRANCH  18  20
ATOM     20  C   UNL     1       2.803   2.570  20.304  0.00  0.00    +0.000 C 
BRANCH  20  22
ATOM     21  C   UNL     1       4.939   3.578  19.346  0.00  0.00    +0.000 C 
ATOM     22  C   UNL     1       4.215   2.288  19.735  0.00  0.00    +0.000 C 
BRANCH  22  23
ATOM     23  C   UNL     1       5.019   1.572  20.807  0.00  0.00    +0.000 C 
ATOM     24  N   UNL     1       5.687   0.977  21.696  0.00  0.00    +0.000 NA
ENDBRANCH  22  23
ENDBRANCH  20  22
ENDBRANCH  18  20
ENDBRANCH   1  18
TORSDOF 7
ENDMDL
MODEL 7
REMARK VINA RESULT:      -5.9      4.644      7.227
REMARK  Name = 
REMARK  11 active torsions:
REMARK  status: ('A' for Active; 'I' for Inactive)
REMARK    1  A    between atoms: C_1  and  C_2
REMARK    2  A    between atoms: C_2  and  C_3
REMARK    3  A    between atoms: C_2  and  C_5
REMARK    4  A    between atoms: C_5  and  N_6
REMARK    5  A    between atoms: N_6  and  C_7
REMARK    6  A    between atoms: C_14  and  N_15
REMARK    7  A    between atoms: C_16  and  O_18
REMARK    8  A    between atoms: O_18  and  C_19
REMARK    9  A    between atoms: C_19  and  C_20
REMARK   10  A    between atoms: C_19  and  C_21
REMARK   11  A    between atoms: C_19  and  C_22
REMARK                            x       y       z     vdW  Elec       q    Type
REMARK                         _______ _______ _______ _____ _____    ______ ____
ROOT
ATOM      1  C   UNL     1      -0.313  11.110  18.588  0.00  0.00    +0.000 C 
ATOM      2  C   UNL     1      -0.960  10.748  19.935  0.00  0.00    +0.000 C 
ATOM      3  C   UNL     1      -0.599   9.354  20.450  0.00  0.00    +0.000 C 
ATOM      4  C   UNL     1       0.884   9.038  20.357  0.00  0.00    +0.000 C 
ATOM      5  C   UNL     1       1.560   9.479  19.078  0.00  0.00    +0.000 C 
ATOM      6  C   UNL     1       1.210  10.922  18.725  0.00  0.00    +0.000 C 
ATOM      7  C   UNL     1       1.701   9.000  21.629  0.00  0.00    +0.000 C 
ATOM      8  C   UNL     1       1.319   7.712  20.949  0.00  0.00    +0.000 C 
ENDROOT
BRANCH   8   9
ATOM      9  N   UNL     1       2.323   6.881  20.356  0.00  0.00    +0.000 N 
ATOM     10  C   UNL     1       2.172   5.524  20.276  0.00  0.00    +0.000 C 
ATOM     11  O   UNL     1       1.192   4.925  20.705  0.00  0.00    +0.000 OA
ATOM     12  H   UNL     1       3.147   7.273  19.926  0.00  0.00    +0.000 HD
BRANCH  10  13
ATOM     13  O   UNL     1       3.245   4.951  19.668  0.00  0.00    +0.000 OA
BRANCH  13  14
ATOM     14  C   UNL     1       3.114   4.519  18.285  0.00  0.00    +0.000 C 
ATOM     15  C   UNL     1       1.668   4.671  17.790  0.00  0.00    +0.000 C 
ATOM     16  C   UNL     1       4.004   5.450  17.443  0.00  0.00    +0.000 C 
ATOM     17  C   UNL     1       3.642   3.089  18.109  0.00  0.00    +0.000 C 
ENDBRANCH  13  14
ENDBRANCH  10  13
ENDBRANCH   8   9
BRANCH   1  18
ATOM     18  N   UNL     1      -0.763  10.314  17.432  0.00  0.00    +0.000 NA
ATOM     19  H   UNL     1      -0.431  10.770  16.580  0.00  0.00    +0.000 HD
BRANCH  18  20
ATOM     20  C   UNL     1      -2.214  10.133  17.349  0.00  0.00    +0.000 C 
BRANCH  20  22
ATOM     21  C   UNL     1      -3.003  10.093  14.926  0.00  0.00    +0.000 C 
ATOM     22  C   UNL     1      -2.823  10.947  16.183  0.00  0.00    +0.000 C 
BRANCH  22  23
ATOM     23  C   UNL     1      -4.181  11.463  16.628  0.00  0.00    +0.000 C 
ATOM     24  N   UNL     1      -5.307  11.893  16.998  0.00  0.00    +0.000 NA
ENDBRANCH  22  23
ENDBRANCH  20  22
ENDBRANCH  18  20
ENDBRANCH   1  18
TORSDOF 7
ENDMDL
MODEL 8
REMARK VINA RESULT:      -5.8      2.984      5.859
REMARK  Name = 
REMARK  11 active torsions:
REMARK  status: ('A' for Active; 'I' for Inactive)
REMARK    1  A    between atoms: C_1  and  C_2
REMARK    2  A    between atoms: C_2  and  C_3
REMARK    3  A    between atoms: C_2  and  C_5
REMARK    4  A    between atoms: C_5  and  N_6
REMARK    5  A    between atoms: N_6  and  C_7
REMARK    6  A    between atoms: C_14  and  N_15
REMARK    7  A    between atoms: C_16  and  O_18
REMARK    8  A    between atoms: O_18  and  C_19
REMARK    9  A    between atoms: C_19  and  C_20
REMARK   10  A    between atoms: C_19  and  C_21
REMARK   11  A    between atoms: C_19  and  C_22
REMARK                            x       y       z     vdW  Elec       q    Type
REMARK                         _______ _______ _______ _____ _____    ______ ____
ROOT
ATOM      1  C   UNL     1       3.695   2.615  17.855  0.00  0.00    +0.000 C 
ATOM      2  C   UNL     1       3.606   2.439  19.381  0.00  0.00    +0.000 C 
ATOM      3  C   UNL     1       3.439   3.747  20.154  0.00  0.00    +0.000 C 
ATOM      4  C   UNL     1       2.388   4.672  19.563  0.00  0.00    +0.000 C 
ATOM      5  C   UNL     1       2.396   4.778  18.054  0.00  0.00    +0.000 C 
ATOM      6  C   UNL     1       2.455   3.405  17.393  0.00  0.00    +0.000 C 
ATOM      7  C   UNL     1       1.074   4.839  20.292  0.00  0.00    +0.000 C 
ATOM      8  C   UNL     1       2.102   5.938  20.346  0.00  0.00    +0.000 C 
ENDROOT
BRANCH   8   9
ATOM      9  N   UNL     1       1.845   7.202  19.724  0.00  0.00    +0.000 N 
ATOM     10  C   UNL     1       1.566   8.319  20.463  0.00  0.00    +0.000 C 
ATOM     11  O   UNL     1       1.507   8.323  21.688  0.00  0.00    +0.000 OA
ATOM     12  H   UNL     1       1.917   7.324  18.726  0.00  0.00    +0.000 HD
BRANCH  10  13
ATOM     13  O   UNL     1       1.366   9.396  19.658  0.00  0.00    +0.000 OA
BRANCH  13  14
ATOM     14  C   UNL     1       0.362  10.377  20.043  0.00  0.00    +0.000 C 
ATOM     15  C   UNL     1       1.001  11.573  20.761  0.00  0.00    +0.000 C 
ATOM     16  C   UNL     1      -0.277  10.891  18.741  0.00  0.00    +0.000 C 
ATOM     17  C   UNL     1      -0.747   9.721  20.877  0.00  0.00    +0.000 C 
ENDBRANCH  13  14
ENDBRANCH  10  13
ENDBRANCH   8   9
BRANCH   1  18
ATOM     18  N   UNL     1       4.889   3.326  17.366  0.00  0.00    +0.000 NA
ATOM     19  H   UNL     1       5.079   4.107  17.996  0.00  0.00    +0.000 HD
BRANCH  18  20
ATOM     20  C   UNL     1       4.776   3.828  15.995  0.00  0.00    +0.000 C 
BRANCH  20  22
ATOM     21  C   UNL     1       5.348   6.312  16.052  0.00  0.00    +0.000 C 
ATOM     22  C   UNL     1       5.842   4.909  15.695  0.00  0.00    +0.000 C 
BRANCH  22  23
ATOM     23  C   UNL     1       7.077   4.594  16.522  0.00  0.00    +0.000 C 
ATOM     24  N   UNL     1       8.102   4.332  17.209  0.00  0.00    +0.000 NA
ENDBRANCH  22  23
ENDBRANCH  20  22
ENDBRANCH  18  20
ENDBRANCH   1  18
TORSDOF 7
ENDMDL
MODEL 9
REMARK VINA RESULT:      -5.8      3.257      5.900
REMARK  Name = 
REMARK  11 active torsions:
REMARK  status: ('A' for Active; 'I' for Inactive)
REMARK    1  A    between atoms: C_1  and  C_2
REMARK    2  A    between atoms: C_2  and  C_3
REMARK    3  A    between atoms: C_2  and  C_5
REMARK    4  A    between atoms: C_5  and  N_6
REMARK    5  A    between atoms: N_6  and  C_7
REMARK    6  A    between atoms: C_14  and  N_15
REMARK    7  A    between atoms: C_16  and  O_18
REMARK    8  A    between atoms: O_18  and  C_19
REMARK    9  A    between atoms: C_19  and  C_20
REMARK   10  A    between atoms: C_19  and  C_21
REMARK   11  A    between atoms: C_19  and  C_22
REMARK                            x       y       z     vdW  Elec       q    Type
REMARK                         _______ _______ _______ _____ _____    ______ ____
ROOT
ATOM      1  C   UNL     1       3.595   3.445  17.541  0.00  0.00    +0.000 C 
ATOM      2  C   UNL     1       4.261   3.709  18.902  0.00  0.00    +0.000 C 
ATOM      3  C   UNL     1       4.102   5.141  19.412  0.00  0.00    +0.000 C 
ATOM      4  C   UNL     1       2.684   5.676  19.288  0.00  0.00    +0.000 C 
ATOM      5  C   UNL     1       1.977   5.338  17.995  0.00  0.00    +0.000 C 
ATOM      6  C   UNL     1       2.115   3.859  17.646  0.00  0.00    +0.000 C 
ATOM      7  C   UNL     1       1.857   5.837  20.543  0.00  0.00    +0.000 C 
ATOM      8  C   UNL     1       2.441   7.053  19.874  0.00  0.00    +0.000 C 
ENDROOT
BRANCH   8   9
ATOM      9  N   UNL     1       1.584   8.023  19.260  0.00  0.00    +0.000 N 
ATOM     10  C   UNL     1       1.038   9.050  19.981  0.00  0.00    +0.000 C 
ATOM     11  O   UNL     1       1.226   9.210  21.181  0.00  0.00    +0.000 OA
ATOM     12  H   UNL     1       1.402   8.016  18.269  0.00  0.00    +0.000 HD
BRANCH  10  13
ATOM     13  O   UNL     1       0.272   9.845  19.187  0.00  0.00    +0.000 OA
BRANCH  13  14
ATOM     14  C   UNL     1       0.376  11.289  19.338  0.00  0.00    +0.000 C 
ATOM     15  C   UNL     1       1.733  11.803  18.838  0.00  0.00    +0.000 C 
ATOM     16  C   UNL     1      -0.722  11.908  18.455  0.00  0.00    +0.000 C 
ATOM     17  C   UNL     1       0.093  11.706  20.788  0.00  0.00    +0.000 C 
ENDBRANCH  13  14
ENDBRANCH  10  13
ENDBRANCH   8   9
BRANCH   1  18
ATOM     18  N   UNL     1       4.183   4.163  16.396  0.00  0.00    +0.000 NA
ATOM     19  H   UNL     1       3.612   3.973  15.571  0.00  0.00    +0.000 HD
BRANCH  18  20
ATOM     20  C   UNL     1       5.576   3.811  16.112  0.00  0.00    +0.000 C 
BRANCH  20  22
ATOM     21  C   UNL     1       5.725   6.347  16.320  0.00  0.00    +0.000 C 
ATOM     22  C   UNL     1       6.511   5.036  16.247  0.00  0.00    +0.000 C 
BRANCH  22  23
ATOM     23  C   UNL     1       7.319   4.872  17.523  0.00  0.00    +0.000 C 
ATOM     24  N   UNL     1       7.990   4.736  18.583  0.00  0.00    +0.000 NA
ENDBRANCH  22  23
ENDBRANCH  20  22
ENDBRANCH  18  20
ENDBRANCH   1  18
TORSDOF 7
ENDMDL
