MODEL 1
REMARK VINA RESULT:      -8.7      0.000      0.000
REMARK  Name = 
REMARK  7 active torsions:
REMARK  status: ('A' for Active; 'I' for Inactive)
REMARK    1  A    between atoms: N_1  and  C_2
REMARK    2  A    between atoms: C_2  and  C_3
REMARK    3  A    between atoms: C_3  and  C_4
REMARK    4  A    between atoms: C_7  and  C_8
REMARK    5  A    between atoms: C_11  and  N_12
REMARK    6  A    between atoms: C_14  and  C_15
REMARK    7  A    between atoms: C_15  and  N_16
REMARK                            x       y       z     vdW  Elec       q    Type
REMARK                         _______ _______ _______ _____ _____    ______ ____
ROOT
ATOM      1  C   UNL     1       1.442   8.808  19.407  0.00  0.00    +0.000 A 
ATOM      2  C   UNL     1       2.054   8.917  18.148  0.00  0.00    +0.000 A 
ATOM      3  C   UNL     1       2.943   7.951  17.686  0.00  0.00    +0.000 A 
ATOM      4  C   UNL     1       3.218   6.810  18.437  0.00  0.00    +0.000 A 
ATOM      5  C   UNL     1       2.577   6.652  19.670  0.00  0.00    +0.000 A 
ATOM      6  C   UNL     1       1.720   7.648  20.149  0.00  0.00    +0.000 A 
ATOM      7  F   UNL     1       1.196   7.485  21.374  0.00  0.00    +0.000 F 
ENDROOT
BRANCH   1  11
ATOM      8  C   UNL     1      -1.026  11.944  20.901  0.00  0.00    +0.000 A 
ATOM      9  C   UNL     1       0.252  11.752  21.422  0.00  0.00    +0.000 A 
ATOM     10  C   UNL     1       1.047  10.727  20.939  0.00  0.00    +0.000 A 
ATOM     11  C   UNL     1       0.597   9.909  19.897  0.00  0.00    +0.000 A 
ATOM     12  C   UNL     1      -0.668  10.211  19.396  0.00  0.00    +0.000 A 
ATOM     13  N   UNL     1      -1.477  11.203  19.858  0.00  0.00    +0.000 NA
BRANCH   8  14
ATOM     14  C   UNL     1      -1.981  12.859  21.655  0.00  0.00    +0.000 C 
ATOM     15  C   UNL     1      -1.651  13.337  23.067  0.00  0.00    +0.000 C 
ATOM     16  C   UNL     1      -2.362  14.449  23.766  0.00  0.00    +0.000 C 
ATOM     17  N   UNL     1      -3.796  14.099  23.743  0.00  0.00    +0.000 NA
ATOM     18  C   UNL     1      -3.903  12.650  23.540  0.00  0.00    +0.000 C 
ATOM     19  C   UNL     1      -2.626  12.236  22.910  0.00  0.00    +0.000 C 
ATOM     20  H   UNL     1      -4.232  14.560  22.948  0.00  0.00    +0.000 HD
BRANCH  14  21
ATOM     21  C   UNL     1      -2.673  13.827  20.712  0.00  0.00    +0.000 C 
BRANCH  21  22
ATOM     22  N   UNL     1      -3.686  13.149  19.906  0.00  0.00    +0.000 NA
ATOM     23  H   UNL     1      -3.739  12.173  20.186  0.00  0.00    +0.000 HD
ATOM     24  H   UNL     1      -3.424  13.174  18.926  0.00  0.00    +0.000 HD
ENDBRANCH  21  22
ENDBRANCH  14  21
ENDBRANCH   8  14
ENDBRANCH   1  11
BRANCH   4  25
ATOM     25  N   UNL     1       4.103   5.842  17.931  0.00  0.00    +0.000 N 
ATOM     26  C   UNL     1       4.548   5.799  16.575  0.00  0.00    +0.000 C 
ATOM     27  C   UNL     1       5.736   4.857  16.651  0.00  0.00    +0.000 C 
ATOM     28  O   UNL     1       5.519   4.103  17.857  0.00  0.00    +0.000 OA
ATOM     29  C   UNL     1       4.653   4.798  18.650  0.00  0.00    +0.000 C 
ATOM     30  O   UNL     1       4.415   4.453  19.802  0.00  0.00    +0.000 OA
BRANCH  27  31
ATOM     31  C   UNL     1       5.795   3.909  15.466  0.00  0.00    +0.000 C 
BRANCH  31  32
ATOM     32  N   UNL     1       6.660   4.412  14.420  0.00  0.00    +0.000 N 
ATOM     33  C   UNL     1       6.627   4.119  13.089  0.00  0.00    +0.000 A 
ATOM     34  C   UNL     1       7.610   4.919  12.559  0.00  0.00    +0.000 A 
ATOM     35  N   UNL     1       8.198   5.642  13.558  0.00  0.00    +0.000 NA
ATOM     36  N   UNL     1       7.607   5.321  14.701  0.00  0.00    +0.000 NA
ENDBRANCH  31  32
ENDBRANCH  27  31
ENDBRANCH   4  25
TORSDOF 7
ENDMDL
MODEL 2
REMARK VINA RESULT:      -8.5      0.868      1.106
REMARK  Name = 
REMARK  7 active torsions:
REMARK  status: ('A' for Active; 'I' for Inactive)
REMARK    1  A    between atoms: N_1  and  C_2
REMARK    2  A    between atoms: C_2  and  C_3
REMARK    3  A    between atoms: C_3  and  C_4
REMARK    4  A    between atoms: C_7  and  C_8
REMARK    5  A    between atoms: C_11  and  N_12
REMARK    6  A    between atoms: C_14  and  C_15
REMARK    7  A    between atoms: C_15  and  N_16
REMARK                            x       y       z     vdW  Elec       q    Type
REMARK                         _______ _______ _______ _____ _____    ______ ____
ROOT
ATOM      1  C   UNL     1       1.377   8.810  19.533  0.00  0.00    +0.000 A 
ATOM      2  C   UNL     1       1.998   8.845  18.274  0.00  0.00    +0.000 A 
ATOM      3  C   UNL     1       2.913   7.870  17.888  0.00  0.00    +0.000 A 
ATOM      4  C   UNL     1       3.206   6.790  18.719  0.00  0.00    +0.000 A 
ATOM      5  C   UNL     1       2.557   6.704  19.956  0.00  0.00    +0.000 A 
ATOM      6  C   UNL     1       1.674   7.712  20.357  0.00  0.00    +0.000 A 
ATOM      7  F   UNL     1       1.142   7.622  21.586  0.00  0.00    +0.000 F 
ENDROOT
BRANCH   1  11
ATOM      8  C   UNL     1      -1.178  11.983  20.781  0.00  0.00    +0.000 A 
ATOM      9  C   UNL     1       0.069  11.812  21.381  0.00  0.00    +0.000 A 
ATOM     10  C   UNL     1       0.891  10.776  20.977  0.00  0.00    +0.000 A 
ATOM     11  C   UNL     1       0.503   9.923  19.939  0.00  0.00    +0.000 A 
ATOM     12  C   UNL     1      -0.731  10.205  19.356  0.00  0.00    +0.000 A 
ATOM     13  N   UNL     1      -1.567  11.208  19.739  0.00  0.00    +0.000 NA
BRANCH   8  14
ATOM     14  C   UNL     1      -2.177  12.919  21.450  0.00  0.00    +0.000 C 
ATOM     15  C   UNL     1      -1.872  13.541  22.811  0.00  0.00    +0.000 C 
ATOM     16  C   UNL     1      -2.636  14.679  23.405  0.00  0.00    +0.000 C 
ATOM     17  N   UNL     1      -4.052  14.261  23.418  0.00  0.00    +0.000 NA
ATOM     18  C   UNL     1      -4.090  12.796  23.351  0.00  0.00    +0.000 C 
ATOM     19  C   UNL     1      -2.793  12.385  22.759  0.00  0.00    +0.000 C 
ATOM     20  H   UNL     1      -4.507  14.625  22.585  0.00  0.00    +0.000 HD
BRANCH  14  21
ATOM     21  C   UNL     1      -2.912  13.761  20.423  0.00  0.00    +0.000 C 
BRANCH  21  22
ATOM     22  N   UNL     1      -3.893  12.965  19.689  0.00  0.00    +0.000 NA
ATOM     23  H   UNL     1      -4.798  13.042  20.147  0.00  0.00    +0.000 HD
ATOM     24  H   UNL     1      -3.625  11.986  19.699  0.00  0.00    +0.000 HD
ENDBRANCH  21  22
ENDBRANCH  14  21
ENDBRANCH   8  14
ENDBRANCH   1  11
BRANCH   4  25
ATOM     25  N   UNL     1       4.117   5.810  18.289  0.00  0.00    +0.000 N 
ATOM     26  C   UNL     1       5.530   5.904  18.460  0.00  0.00    +0.000 C 
ATOM     27  C   UNL     1       5.986   4.480  18.198  0.00  0.00    +0.000 C 
ATOM     28  O   UNL     1       4.917   3.895  17.435  0.00  0.00    +0.000 OA
ATOM     29  C   UNL     1       3.789   4.636  17.635  0.00  0.00    +0.000 C 
ATOM     30  O   UNL     1       2.695   4.271  17.221  0.00  0.00    +0.000 OA
BRANCH  27  31
ATOM     31  C   UNL     1       7.272   4.427  17.391  0.00  0.00    +0.000 C 
BRANCH  31  32
ATOM     32  N   UNL     1       7.017   4.531  15.970  0.00  0.00    +0.000 N 
ATOM     33  C   UNL     1       6.336   3.660  15.173  0.00  0.00    +0.000 A 
ATOM     34  C   UNL     1       6.336   4.279  13.946  0.00  0.00    +0.000 A 
ATOM     35  N   UNL     1       7.005   5.466  14.034  0.00  0.00    +0.000 NA
ATOM     36  N   UNL     1       7.423   5.611  15.285  0.00  0.00    +0.000 NA
ENDBRANCH  31  32
ENDBRANCH  27  31
ENDBRANCH   4  25
TORSDOF 7
ENDMDL
MODEL 3
REMARK VINA RESULT:      -8.5      1.565      2.070
REMARK  Name = 
REMARK  7 active torsions:
REMARK  status: ('A' for Active; 'I' for Inactive)
REMARK    1  A    between atoms: N_1  and  C_2
REMARK    2  A    between atoms: C_2  and  C_3
REMARK    3  A    between atoms: C_3  and  C_4
REMARK    4  A    between atoms: C_7  and  C_8
REMARK    5  A    between atoms: C_11  and  N_12
REMARK    6  A    between atoms: C_14  and  C_15
REMARK    7  A    between atoms: C_15  and  N_16
REMARK                            x       y       z     vdW  Elec       q    Type
REMARK                         _______ _______ _______ _____ _____    ______ ____
ROOT
ATOM      1  C   UNL     1       0.861   9.137  20.273  0.00  0.00    +0.000 A 
ATOM      2  C   UNL     1       1.166   8.012  21.055  0.00  0.00    +0.000 A 
ATOM      3  C   UNL     1       1.954   6.976  20.563  0.00  0.00    +0.000 A 
ATOM      4  C   UNL     1       2.516   7.044  19.290  0.00  0.00    +0.000 A 
ATOM      5  C   UNL     1       2.272   8.181  18.512  0.00  0.00    +0.000 A 
ATOM      6  C   UNL     1       1.441   9.197  18.995  0.00  0.00    +0.000 A 
ATOM      7  F   UNL     1       1.175  10.227  18.176  0.00  0.00    +0.000 F 
ENDROOT
BRANCH   1  11
ATOM      8  C   UNL     1      -1.887  12.006  21.812  0.00  0.00    +0.000 A 
ATOM      9  C   UNL     1      -1.083  11.272  22.682  0.00  0.00    +0.000 A 
ATOM     10  C   UNL     1      -0.198  10.336  22.177  0.00  0.00    +0.000 A 
ATOM     11  C   UNL     1      -0.068  10.152  20.797  0.00  0.00    +0.000 A 
ATOM     12  C   UNL     1      -0.866  10.972  20.001  0.00  0.00    +0.000 A 
ATOM     13  N   UNL     1      -1.754  11.891  20.467  0.00  0.00    +0.000 NA
BRANCH   8  14
ATOM     14  C   UNL     1      -3.056  12.787  22.398  0.00  0.00    +0.000 C 
ATOM     15  C   UNL     1      -2.843  13.757  23.558  0.00  0.00    +0.000 C 
ATOM     16  C   UNL     1      -3.846  14.770  24.003  0.00  0.00    +0.000 C 
ATOM     17  N   UNL     1      -5.091  14.024  24.275  0.00  0.00    +0.000 NA
ATOM     18  C   UNL     1      -4.733  12.620  24.507  0.00  0.00    +0.000 C 
ATOM     19  C   UNL     1      -3.416  12.426  23.853  0.00  0.00    +0.000 C 
ATOM     20  H   UNL     1      -5.682  14.064  23.448  0.00  0.00    +0.000 HD
BRANCH  14  21
ATOM     21  C   UNL     1      -4.059  13.164  21.322  0.00  0.00    +0.000 C 
BRANCH  21  22
ATOM     22  N   UNL     1      -3.561  14.258  20.493  0.00  0.00    +0.000 NA
ATOM     23  H   UNL     1      -4.344  14.835  20.194  0.00  0.00    +0.000 HD
ATOM     24  H   UNL     1      -3.115  13.889  19.659  0.00  0.00    +0.000 HD
ENDBRANCH  21  22
ENDBRANCH  14  21
ENDBRANCH   8  14
ENDBRANCH   1  11
BRANCH   4  25
ATOM     25  N   UNL     1       3.327   5.991  18.832  0.00  0.00    +0.000 N 
ATOM     26  C   UNL     1       4.732   5.905  19.070  0.00  0.00    +0.000 C 
ATOM     27  C   UNL     1       5.033   4.457  18.730  0.00  0.00    +0.000 C 
ATOM     28  O   UNL     1       3.943   4.053  17.882  0.00  0.00    +0.000 OA
ATOM     29  C   UNL     1       2.900   4.910  18.084  0.00  0.00    +0.000 C 
ATOM     30  O   UNL     1       1.793   4.704  17.599  0.00  0.00    +0.000 OA
BRANCH  27  31
ATOM     31  C   UNL     1       6.343   4.303  17.977  0.00  0.00    +0.000 C 
BRANCH  31  32
ATOM     32  N   UNL     1       6.192   4.610  16.570  0.00  0.00    +0.000 N 
ATOM     33  C   UNL     1       5.966   3.745  15.542  0.00  0.00    +0.000 A 
ATOM     34  C   UNL     1       5.836   4.569  14.450  0.00  0.00    +0.000 A 
ATOM     35  N   UNL     1       5.994   5.869  14.839  0.00  0.00    +0.000 NA
ATOM     36  N   UNL     1       6.215   5.883  16.147  0.00  0.00    +0.000 NA
ENDBRANCH  31  32
ENDBRANCH  27  31
ENDBRANCH   4  25
TORSDOF 7
ENDMDL
MODEL 4
REMARK VINA RESULT:      -8.4      1.296      1.591
REMARK  Name = 
REMARK  7 active torsions:
REMARK  status: ('A' for Active; 'I' for Inactive)
REMARK    1  A    between atoms: N_1  and  C_2
REMARK    2  A    between atoms: C_2  and  C_3
REMARK    3  A    between atoms: C_3  and  C_4
REMARK    4  A    between atoms: C_7  and  C_8
REMARK    5  A    between atoms: C_11  and  N_12
REMARK    6  A    between atoms: C_14  and  C_15
REMARK    7  A    between atoms: C_15  and  N_16
REMARK                            x       y       z     vdW  Elec       q    Type
REMARK                         _______ _______ _______ _____ _____    ______ ____
ROOT
ATOM      1  C   UNL     1       0.925   9.149  20.088  0.00  0.00    +0.000 A 
ATOM      2  C   UNL     1       1.314   8.065  20.892  0.00  0.00    +0.000 A 
ATOM      3  C   UNL     1       2.095   7.029  20.389  0.00  0.00    +0.000 A 
ATOM      4  C   UNL     1       2.567   7.058  19.078  0.00  0.00    +0.000 A 
ATOM      5  C   UNL     1       2.239   8.155  18.274  0.00  0.00    +0.000 A 
ATOM      6  C   UNL     1       1.415   9.169  18.772  0.00  0.00    +0.000 A 
ATOM      7  F   UNL     1       1.065  10.156  17.932  0.00  0.00    +0.000 F 
ENDROOT
BRANCH   1  11
ATOM      8  C   UNL     1      -1.793  12.011  21.692  0.00  0.00    +0.000 A 
ATOM      9  C   UNL     1      -0.957  11.288  22.541  0.00  0.00    +0.000 A 
ATOM     10  C   UNL     1      -0.081  10.355  22.016  0.00  0.00    +0.000 A 
ATOM     11  C   UNL     1       0.007  10.161  20.633  0.00  0.00    +0.000 A 
ATOM     12  C   UNL     1      -0.822  10.970  19.857  0.00  0.00    +0.000 A 
ATOM     13  N   UNL     1      -1.701  11.887  20.345  0.00  0.00    +0.000 NA
BRANCH   8  14
ATOM     14  C   UNL     1      -2.948  12.789  22.308  0.00  0.00    +0.000 C 
ATOM     15  C   UNL     1      -2.722  13.692  23.519  0.00  0.00    +0.000 C 
ATOM     16  C   UNL     1      -3.705  14.705  24.008  0.00  0.00    +0.000 C 
ATOM     17  N   UNL     1      -4.969  13.976  24.231  0.00  0.00    +0.000 NA
ATOM     18  C   UNL     1      -4.646  12.554  24.394  0.00  0.00    +0.000 C 
ATOM     19  C   UNL     1      -3.329  12.362  23.741  0.00  0.00    +0.000 C 
ATOM     20  H   UNL     1      -5.553  14.072  23.404  0.00  0.00    +0.000 HD
BRANCH  14  21
ATOM     21  C   UNL     1      -3.933  13.243  21.246  0.00  0.00    +0.000 C 
BRANCH  21  22
ATOM     22  N   UNL     1      -3.388  14.343  20.454  0.00  0.00    +0.000 NA
ATOM     23  H   UNL     1      -2.561  14.021  19.958  0.00  0.00    +0.000 HD
ATOM     24  H   UNL     1      -3.105  15.104  21.063  0.00  0.00    +0.000 HD
ENDBRANCH  21  22
ENDBRANCH  14  21
ENDBRANCH   8  14
ENDBRANCH   1  11
BRANCH   4  25
ATOM     25  N   UNL     1       3.374   6.007  18.608  0.00  0.00    +0.000 N 
ATOM     26  C   UNL     1       3.953   5.968  17.304  0.00  0.00    +0.000 C 
ATOM     27  C   UNL     1       5.001   4.878  17.445  0.00  0.00    +0.000 C 
ATOM     28  O   UNL     1       4.564   4.105  18.576  0.00  0.00    +0.000 OA
ATOM     29  C   UNL     1       3.711   4.870  19.318  0.00  0.00    +0.000 C 
ATOM     30  O   UNL     1       3.310   4.507  20.418  0.00  0.00    +0.000 OA
BRANCH  27  31
ATOM     31  C   UNL     1       5.069   3.985  16.218  0.00  0.00    +0.000 C 
BRANCH  31  32
ATOM     32  N   UNL     1       6.084   4.429  15.287  0.00  0.00    +0.000 N 
ATOM     33  C   UNL     1       6.163   4.181  13.949  0.00  0.00    +0.000 A 
ATOM     34  C   UNL     1       7.270   4.893  13.555  0.00  0.00    +0.000 A 
ATOM     35  N   UNL     1       7.816   5.523  14.636  0.00  0.00    +0.000 NA
ATOM     36  N   UNL     1       7.080   5.229  15.699  0.00  0.00    +0.000 NA
ENDBRANCH  31  32
ENDBRANCH  27  31
ENDBRANCH   4  25
TORSDOF 7
ENDMDL
MODEL 5
REMARK VINA RESULT:      -8.4      1.269      1.615
REMARK  Name = 
REMARK  7 active torsions:
REMARK  status: ('A' for Active; 'I' for Inactive)
REMARK    1  A    between atoms: N_1  and  C_2
REMARK    2  A    between atoms: C_2  and  C_3
REMARK    3  A    between atoms: C_3  and  C_4
REMARK    4  A    between atoms: C_7  and  C_8
REMARK    5  A    between atoms: C_11  and  N_12
REMARK    6  A    between atoms: C_14  and  C_15
REMARK    7  A    between atoms: C_15  and  N_16
REMARK                            x       y       z     vdW  Elec       q    Type
REMARK                         _______ _______ _______ _____ _____    ______ ____
ROOT
ATOM      1  C   UNL     1       1.308   8.962  19.326  0.00  0.00    +0.000 A 
ATOM      2  C   UNL     1       1.983   8.920  18.095  0.00  0.00    +0.000 A 
ATOM      3  C   UNL     1       2.895   7.912  17.800  0.00  0.00    +0.000 A 
ATOM      4  C   UNL     1       3.131   6.872  18.697  0.00  0.00    +0.000 A 
ATOM      5  C   UNL     1       2.428   6.862  19.907  0.00  0.00    +0.000 A 
ATOM      6  C   UNL     1       1.548   7.903  20.217  0.00  0.00    +0.000 A 
ATOM      7  F   UNL     1       0.963   7.887  21.425  0.00  0.00    +0.000 F 
ENDROOT
BRANCH   1  11
ATOM      8  C   UNL     1      -1.243  12.235  20.292  0.00  0.00    +0.000 A 
ATOM      9  C   UNL     1      -0.073  12.023  21.019  0.00  0.00    +0.000 A 
ATOM     10  C   UNL     1       0.748  10.954  20.706  0.00  0.00    +0.000 A 
ATOM     11  C   UNL     1       0.439  10.109  19.635  0.00  0.00    +0.000 A 
ATOM     12  C   UNL     1      -0.717  10.432  18.926  0.00  0.00    +0.000 A 
ATOM     13  N   UNL     1      -1.550  11.468  19.217  0.00  0.00    +0.000 NA
BRANCH   8  14
ATOM     14  C   UNL     1      -2.270  13.211  20.850  0.00  0.00    +0.000 C 
ATOM     15  C   UNL     1      -3.185  12.806  22.004  0.00  0.00    +0.000 C 
ATOM     16  C   UNL     1      -4.006  13.765  22.803  0.00  0.00    +0.000 C 
ATOM     17  N   UNL     1      -4.827  14.513  21.831  0.00  0.00    +0.000 NA
ATOM     18  C   UNL     1      -4.912  13.714  20.604  0.00  0.00    +0.000 C 
ATOM     19  C   UNL     1      -3.742  12.802  20.633  0.00  0.00    +0.000 C 
ATOM     20  H   UNL     1      -4.353  15.384  21.605  0.00  0.00    +0.000 HD
BRANCH  14  21
ATOM     21  C   UNL     1      -1.750  14.637  20.812  0.00  0.00    +0.000 C 
BRANCH  21  22
ATOM     22  N   UNL     1      -1.371  15.027  19.456  0.00  0.00    +0.000 NA
ATOM     23  H   UNL     1      -0.523  15.587  19.493  0.00  0.00    +0.000 HD
ATOM     24  H   UNL     1      -2.100  15.598  19.042  0.00  0.00    +0.000 HD
ENDBRANCH  21  22
ENDBRANCH  14  21
ENDBRANCH   8  14
ENDBRANCH   1  11
BRANCH   4  25
ATOM     25  N   UNL     1       4.041   5.855  18.358  0.00  0.00    +0.000 N 
ATOM     26  C   UNL     1       5.454   5.960  18.527  0.00  0.00    +0.000 C 
ATOM     27  C   UNL     1       5.907   4.518  18.393  0.00  0.00    +0.000 C 
ATOM     28  O   UNL     1       4.839   3.871  17.678  0.00  0.00    +0.000 OA
ATOM     29  C   UNL     1       3.713   4.630  17.808  0.00  0.00    +0.000 C 
ATOM     30  O   UNL     1       2.619   4.233  17.422  0.00  0.00    +0.000 OA
BRANCH  27  31
ATOM     31  C   UNL     1       7.196   4.391  17.599  0.00  0.00    +0.000 C 
BRANCH  31  32
ATOM     32  N   UNL     1       6.964   4.518  16.176  0.00  0.00    +0.000 N 
ATOM     33  C   UNL     1       6.286   3.666  15.356  0.00  0.00    +0.000 A 
ATOM     34  C   UNL     1       6.310   4.302  14.139  0.00  0.00    +0.000 A 
ATOM     35  N   UNL     1       6.991   5.481  14.254  0.00  0.00    +0.000 NA
ATOM     36  N   UNL     1       7.391   5.604  15.513  0.00  0.00    +0.000 NA
ENDBRANCH  31  32
ENDBRANCH  27  31
ENDBRANCH   4  25
TORSDOF 7
ENDMDL
MODEL 6
REMARK VINA RESULT:      -8.4      1.579      2.090
REMARK  Name = 
REMARK  7 active torsions:
REMARK  status: ('A' for Active; 'I' for Inactive)
REMARK    1  A    between atoms: N_1  and  C_2
REMARK    2  A    between atoms: C_2  and  C_3
REMARK    3  A    between atoms: C_3  and  C_4
REMARK    4  A    between atoms: C_7  and  C_8
REMARK    5  A    between atoms: C_11  and  N_12
REMARK    6  A    between atoms: C_14  and  C_15
REMARK    7  A    between atoms: C_15  and  N_16
REMARK                            x       y       z     vdW  Elec       q    Type
REMARK                         _______ _______ _______ _____ _____    ______ ____
ROOT
ATOM      1  C   UNL     1       1.105   8.863  20.523  0.00  0.00    +0.000 A 
ATOM      2  C   UNL     1       1.330   7.658  21.208  0.00  0.00    +0.000 A 
ATOM      3  C   UNL     1       1.965   6.581  20.596  0.00  0.00    +0.000 A 
ATOM      4  C   UNL     1       2.450   6.680  19.293  0.00  0.00    +0.000 A 
ATOM      5  C   UNL     1       2.288   7.891  18.610  0.00  0.00    +0.000 A 
ATOM      6  C   UNL     1       1.608   8.953  19.215  0.00  0.00    +0.000 A 
ATOM      7  F   UNL     1       1.408  10.061  18.485  0.00  0.00    +0.000 F 
ENDROOT
BRANCH   1  11
ATOM      8  C   UNL     1      -1.214  11.905  22.400  0.00  0.00    +0.000 A 
ATOM      9  C   UNL     1      -0.855  10.761  23.111  0.00  0.00    +0.000 A 
ATOM     10  C   UNL     1      -0.108   9.773  22.494  0.00  0.00    +0.000 A 
ATOM     11  C   UNL     1       0.331   9.931  21.175  0.00  0.00    +0.000 A 
ATOM     12  C   UNL     1      -0.023  11.132  20.562  0.00  0.00    +0.000 A 
ATOM     13  N   UNL     1      -0.766  12.116  21.138  0.00  0.00    +0.000 NA
BRANCH   8  14
ATOM     14  C   UNL     1      -2.284  12.814  22.991  0.00  0.00    +0.000 C 
ATOM     15  C   UNL     1      -3.533  12.226  23.642  0.00  0.00    +0.000 C 
ATOM     16  C   UNL     1      -4.481  13.004  24.496  0.00  0.00    +0.000 C 
ATOM     17  N   UNL     1      -4.909  14.162  23.687  0.00  0.00    +0.000 NA
ATOM     18  C   UNL     1      -4.679  13.834  22.275  0.00  0.00    +0.000 C 
ATOM     19  C   UNL     1      -3.647  12.769  22.271  0.00  0.00    +0.000 C 
ATOM     20  H   UNL     1      -4.324  14.959  23.923  0.00  0.00    +0.000 HD
BRANCH  14  21
ATOM     21  C   UNL     1      -1.668  14.057  23.608  0.00  0.00    +0.000 C 
BRANCH  21  22
ATOM     22  N   UNL     1      -0.381  14.373  22.993  0.00  0.00    +0.000 NA
ATOM     23  H   UNL     1      -0.497  15.158  22.357  0.00  0.00    +0.000 HD
ATOM     24  H   UNL     1      -0.052  13.581  22.449  0.00  0.00    +0.000 HD
ENDBRANCH  21  22
ENDBRANCH  14  21
ENDBRANCH   8  14
ENDBRANCH   1  11
BRANCH   4  25
ATOM     25  N   UNL     1       3.108   5.582  18.712  0.00  0.00    +0.000 N 
ATOM     26  C   UNL     1       3.858   5.651  17.499  0.00  0.00    +0.000 C 
ATOM     27  C   UNL     1       4.650   4.357  17.531  0.00  0.00    +0.000 C 
ATOM     28  O   UNL     1       3.914   3.507  18.427  0.00  0.00    +0.000 OA
ATOM     29  C   UNL     1       3.117   4.292  19.209  0.00  0.00    +0.000 C 
ATOM     30  O   UNL     1       2.497   3.835  20.162  0.00  0.00    +0.000 OA
BRANCH  27  31
ATOM     31  C   UNL     1       4.733   3.700  16.164  0.00  0.00    +0.000 C 
BRANCH  31  32
ATOM     32  N   UNL     1       5.839   4.216  15.387  0.00  0.00    +0.000 N 
ATOM     33  C   UNL     1       6.049   4.101  14.045  0.00  0.00    +0.000 A 
ATOM     34  C   UNL     1       7.195   4.829  13.834  0.00  0.00    +0.000 A 
ATOM     35  N   UNL     1       7.637   5.339  15.022  0.00  0.00    +0.000 NA
ATOM     36  N   UNL     1       6.795   4.954  15.973  0.00  0.00    +0.000 NA
ENDBRANCH  31  32
ENDBRANCH  27  31
ENDBRANCH   4  25
TORSDOF 7
ENDMDL
MODEL 7
REMARK VINA RESULT:      -8.3      1.635      2.188
REMARK  Name = 
REMARK  7 active torsions:
REMARK  status: ('A' for Active; 'I' for Inactive)
REMARK    1  A    between atoms: N_1  and  C_2
REMARK    2  A    between atoms: C_2  and  C_3
REMARK    3  A    between atoms: C_3  and  C_4
REMARK    4  A    between atoms: C_7  and  C_8
REMARK    5  A    between atoms: C_11  and  N_12
REMARK    6  A    between atoms: C_14  and  C_15
REMARK    7  A    between atoms: C_15  and  N_16
REMARK                            x       y       z     vdW  Elec       q    Type
REMARK                         _______ _______ _______ _____ _____    ______ ____
ROOT
ATOM      1  C   UNL     1       1.313   8.899  19.455  0.00  0.00    +0.000 A 
ATOM      2  C   UNL     1       1.600   7.814  20.299  0.00  0.00    +0.000 A 
ATOM      3  C   UNL     1       2.477   6.804  19.914  0.00  0.00    +0.000 A 
ATOM      4  C   UNL     1       3.145   6.862  18.692  0.00  0.00    +0.000 A 
ATOM      5  C   UNL     1       2.919   7.962  17.858  0.00  0.00    +0.000 A 
ATOM      6  C   UNL     1       2.001   8.949  18.231  0.00  0.00    +0.000 A 
ATOM      7  F   UNL     1       1.761   9.939  17.357  0.00  0.00    +0.000 F 
ENDROOT
BRANCH   1  11
ATOM      8  C   UNL     1      -1.583  11.810  20.589  0.00  0.00    +0.000 A 
ATOM      9  C   UNL     1      -1.572  11.305  19.290  0.00  0.00    +0.000 A 
ATOM     10  C   UNL     1      -0.624  10.365  18.925  0.00  0.00    +0.000 A 
ATOM     11  C   UNL     1       0.296   9.882  19.861  0.00  0.00    +0.000 A 
ATOM     12  C   UNL     1       0.172  10.396  21.150  0.00  0.00    +0.000 A 
ATOM     13  N   UNL     1      -0.741  11.329  21.536  0.00  0.00    +0.000 NA
BRANCH   8  14
ATOM     14  C   UNL     1      -2.418  13.052  20.871  0.00  0.00    +0.000 C 
ATOM     15  C   UNL     1      -3.309  13.128  22.110  0.00  0.00    +0.000 C 
ATOM     16  C   UNL     1      -3.928  14.387  22.624  0.00  0.00    +0.000 C 
ATOM     17  N   UNL     1      -4.689  14.961  21.498  0.00  0.00    +0.000 NA
ATOM     18  C   UNL     1      -4.967  13.881  20.545  0.00  0.00    +0.000 C 
ATOM     19  C   UNL     1      -3.945  12.839  20.806  0.00  0.00    +0.000 C 
ATOM     20  H   UNL     1      -4.108  15.651  21.028  0.00  0.00    +0.000 HD
BRANCH  14  21
ATOM     21  C   UNL     1      -1.697  14.311  20.426  0.00  0.00    +0.000 C 
BRANCH  21  22
ATOM     22  N   UNL     1      -0.324  14.340  20.924  0.00  0.00    +0.000 NA
ATOM     23  H   UNL     1       0.307  14.553  20.155  0.00  0.00    +0.000 HD
ATOM     24  H   UNL     1      -0.068  13.429  21.290  0.00  0.00    +0.000 HD
ENDBRANCH  21  22
ENDBRANCH  14  21
ENDBRANCH   8  14
ENDBRANCH   1  11
BRANCH   4  25
ATOM     25  N   UNL     1       4.043   5.838  18.343  0.00  0.00    +0.000 N 
ATOM     26  C   UNL     1       5.457   5.925  18.510  0.00  0.00    +0.000 C 
ATOM     27  C   UNL     1       5.894   4.479  18.363  0.00  0.00    +0.000 C 
ATOM     28  O   UNL     1       4.817   3.850  17.645  0.00  0.00    +0.000 OA
ATOM     29  C   UNL     1       3.700   4.621  17.783  0.00  0.00    +0.000 C 
ATOM     30  O   UNL     1       2.601   4.239  17.397  0.00  0.00    +0.000 OA
BRANCH  27  31
ATOM     31  C   UNL     1       7.180   4.344  17.566  0.00  0.00    +0.000 C 
BRANCH  31  32
ATOM     32  N   UNL     1       6.947   4.489  16.145  0.00  0.00    +0.000 N 
ATOM     33  C   UNL     1       6.259   3.653  15.317  0.00  0.00    +0.000 A 
ATOM     34  C   UNL     1       6.289   4.302  14.107  0.00  0.00    +0.000 A 
ATOM     35  N   UNL     1       6.982   5.472  14.233  0.00  0.00    +0.000 NA
ATOM     36  N   UNL     1       7.385   5.577  15.493  0.00  0.00    +0.000 NA
ENDBRANCH  31  32
ENDBRANCH  27  31
ENDBRANCH   4  25
TORSDOF 7
ENDMDL
MODEL 8
REMARK VINA RESULT:      -8.3      1.062      1.792
REMARK  Name = 
REMARK  7 active torsions:
REMARK  status: ('A' for Active; 'I' for Inactive)
REMARK    1  A    between atoms: N_1  and  C_2
REMARK    2  A    between atoms: C_2  and  C_3
REMARK    3  A    between atoms: C_3  and  C_4
REMARK    4  A    between atoms: C_7  and  C_8
REMARK    5  A    between atoms: C_11  and  N_12
REMARK    6  A    between atoms: C_14  and  C_15
REMARK    7  A    between atoms: C_15  and  N_16
REMARK                            x       y       z     vdW  Elec       q    Type
REMARK                         _______ _______ _______ _____ _____    ______ ____
ROOT
ATOM      1  C   UNL     1       1.544   8.626  19.429  0.00  0.00    +0.000 A 
ATOM      2  C   UNL     1       2.202   8.895  18.218  0.00  0.00    +0.000 A 
ATOM      3  C   UNL     1       3.174   8.037  17.712  0.00  0.00    +0.000 A 
ATOM      4  C   UNL     1       3.491   6.847  18.364  0.00  0.00    +0.000 A 
ATOM      5  C   UNL     1       2.808   6.529  19.543  0.00  0.00    +0.000 A 
ATOM      6  C   UNL     1       1.867   7.419  20.071  0.00  0.00    +0.000 A 
ATOM      7  F   UNL     1       1.301   7.103  21.247  0.00  0.00    +0.000 F 
ENDROOT
BRANCH   1  11
ATOM      8  C   UNL     1      -1.127  11.565  20.971  0.00  0.00    +0.000 A 
ATOM      9  C   UNL     1      -1.322  11.046  19.692  0.00  0.00    +0.000 A 
ATOM     10  C   UNL     1      -0.447  10.097  19.193  0.00  0.00    +0.000 A 
ATOM     11  C   UNL     1       0.607   9.618  19.979  0.00  0.00    +0.000 A 
ATOM     12  C   UNL     1       0.689  10.147  21.266  0.00  0.00    +0.000 A 
ATOM     13  N   UNL     1      -0.148  11.090  21.779  0.00  0.00    +0.000 NA
BRANCH   8  14
ATOM     14  C   UNL     1      -1.903  12.815  21.366  0.00  0.00    +0.000 C 
ATOM     15  C   UNL     1      -3.035  13.341  20.487  0.00  0.00    +0.000 C 
ATOM     16  C   UNL     1      -4.032  14.365  20.922  0.00  0.00    +0.000 C 
ATOM     17  N   UNL     1      -3.250  15.531  21.379  0.00  0.00    +0.000 NA
ATOM     18  C   UNL     1      -1.918  15.448  20.768  0.00  0.00    +0.000 C 
ATOM     19  C   UNL     1      -1.723  14.019  20.419  0.00  0.00    +0.000 C 
ATOM     20  H   UNL     1      -3.136  15.474  22.387  0.00  0.00    +0.000 HD
BRANCH  14  21
ATOM     21  C   UNL     1      -2.059  12.910  22.873  0.00  0.00    +0.000 C 
BRANCH  21  22
ATOM     22  N   UNL     1      -2.912  11.840  23.386  0.00  0.00    +0.000 NA
ATOM     23  H   UNL     1      -3.392  12.165  24.221  0.00  0.00    +0.000 HD
ATOM     24  H   UNL     1      -2.345  11.040  23.649  0.00  0.00    +0.000 HD
ENDBRANCH  21  22
ENDBRANCH  14  21
ENDBRANCH   8  14
ENDBRANCH   1  11
BRANCH   4  25
ATOM     25  N   UNL     1       4.460   5.991  17.813  0.00  0.00    +0.000 N 
ATOM     26  C   UNL     1       4.608   5.748  16.415  0.00  0.00    +0.000 C 
ATOM     27  C   UNL     1       5.980   5.102  16.339  0.00  0.00    +0.000 C 
ATOM     28  O   UNL     1       6.212   4.596  17.665  0.00  0.00    +0.000 OA
ATOM     29  C   UNL     1       5.388   5.257  18.529  0.00  0.00    +0.000 C 
ATOM     30  O   UNL     1       5.489   5.127  19.743  0.00  0.00    +0.000 OA
BRANCH  27  31
ATOM     31  C   UNL     1       6.020   3.954  15.345  0.00  0.00    +0.000 C 
BRANCH  31  32
ATOM     32  N   UNL     1       6.690   4.329  14.119  0.00  0.00    +0.000 N 
ATOM     33  C   UNL     1       6.535   3.789  12.877  0.00  0.00    +0.000 A 
ATOM     34  C   UNL     1       7.348   4.562  12.085  0.00  0.00    +0.000 A 
ATOM     35  N   UNL     1       7.960   5.514  12.850  0.00  0.00    +0.000 NA
ATOM     36  N   UNL     1       7.550   5.360  14.103  0.00  0.00    +0.000 NA
ENDBRANCH  31  32
ENDBRANCH  27  31
ENDBRANCH   4  25
TORSDOF 7
ENDMDL
MODEL 9
REMARK VINA RESULT:      -8.3      1.081      1.404
REMARK  Name = 
REMARK  7 active torsions:
REMARK  status: ('A' for Active; 'I' for Inactive)
REMARK    1  A    between atoms: N_1  and  C_2
REMARK    2  A    between atoms: C_2  and  C_3
REMARK    3  A    between atoms: C_3  and  C_4
REMARK    4  A    between atoms: C_7  and  C_8
REMARK    5  A    between atoms: C_11  and  N_12
REMARK    6  A    between atoms: C_14  and  C_15
REMARK    7  A    between atoms: C_15  and  N_16
REMARK                            x       y       z     vdW  Elec       q    Type
REMARK                         _______ _______ _______ _____ _____    ______ ____
ROOT
ATOM      1  C   UNL     1       1.470   8.756  19.441  0.00  0.00    +0.000 A 
ATOM      2  C   UNL     1       2.078   8.833  18.177  0.00  0.00    +0.000 A 
ATOM      3  C   UNL     1       2.944   7.842  17.725  0.00  0.00    +0.000 A 
ATOM      4  C   UNL     1       3.198   6.706  18.493  0.00  0.00    +0.000 A 
ATOM      5  C   UNL     1       2.560   6.581  19.731  0.00  0.00    +0.000 A 
ATOM      6  C   UNL     1       1.727   7.602  20.199  0.00  0.00    +0.000 A 
ATOM      7  F   UNL     1       1.206   7.468  21.429  0.00  0.00    +0.000 F 
ENDROOT
BRANCH   1  11
ATOM      8  C   UNL     1      -0.863  12.069  20.756  0.00  0.00    +0.000 A 
ATOM      9  C   UNL     1      -1.262  11.331  19.643  0.00  0.00    +0.000 A 
ATOM     10  C   UNL     1      -0.497  10.261  19.216  0.00  0.00    +0.000 A 
ATOM     11  C   UNL     1       0.652   9.882  19.918  0.00  0.00    +0.000 A 
ATOM     12  C   UNL     1       0.941  10.638  21.053  0.00  0.00    +0.000 A 
ATOM     13  N   UNL     1       0.215  11.702  21.491  0.00  0.00    +0.000 NA
BRANCH   8  14
ATOM     14  C   UNL     1      -1.539  13.410  21.011  0.00  0.00    +0.000 C 
ATOM     15  C   UNL     1      -1.930  13.830  22.427  0.00  0.00    +0.000 C 
ATOM     16  C   UNL     1      -2.320  15.219  22.815  0.00  0.00    +0.000 C 
ATOM     17  N   UNL     1      -3.431  15.598  21.919  0.00  0.00    +0.000 NA
ATOM     18  C   UNL     1      -4.034  14.365  21.402  0.00  0.00    +0.000 C 
ATOM     19  C   UNL     1      -2.989  13.320  21.529  0.00  0.00    +0.000 C 
ATOM     20  H   UNL     1      -3.052  16.117  21.131  0.00  0.00    +0.000 HD
BRANCH  14  21
ATOM     21  C   UNL     1      -1.019  14.476  20.063  0.00  0.00    +0.000 C 
BRANCH  21  22
ATOM     22  N   UNL     1       0.441  14.476  20.016  0.00  0.00    +0.000 NA
ATOM     23  H   UNL     1       0.761  15.317  19.541  0.00  0.00    +0.000 HD
ATOM     24  H   UNL     1       0.772  13.677  19.485  0.00  0.00    +0.000 HD
ENDBRANCH  21  22
ENDBRANCH  14  21
ENDBRANCH   8  14
ENDBRANCH   1  11
BRANCH   4  25
ATOM     25  N   UNL     1       4.060   5.712  17.997  0.00  0.00    +0.000 N 
ATOM     26  C   UNL     1       4.574   5.693  16.666  0.00  0.00    +0.000 C 
ATOM     27  C   UNL     1       5.708   4.689  16.768  0.00  0.00    +0.000 C 
ATOM     28  O   UNL     1       5.390   3.906  17.931  0.00  0.00    +0.000 OA
ATOM     29  C   UNL     1       4.519   4.617  18.705  0.00  0.00    +0.000 C 
ATOM     30  O   UNL     1       4.203   4.245  19.829  0.00  0.00    +0.000 OA
BRANCH  27  31
ATOM     31  C   UNL     1       5.783   3.781  15.552  0.00  0.00    +0.000 C 
BRANCH  31  32
ATOM     32  N   UNL     1       6.639   4.332  14.524  0.00  0.00    +0.000 N 
ATOM     33  C   UNL     1       6.601   4.093  13.182  0.00  0.00    +0.000 A 
ATOM     34  C   UNL     1       7.576   4.921  12.680  0.00  0.00    +0.000 A 
ATOM     35  N   UNL     1       8.164   5.607  13.704  0.00  0.00    +0.000 NA
ATOM     36  N   UNL     1       7.581   5.236  14.836  0.00  0.00    +0.000 NA
ENDBRANCH  31  32
ENDBRANCH  27  31
ENDBRANCH   4  25
TORSDOF 7
ENDMDL
