MODEL 1
REMARK VINA RESULT:      -8.8      0.000      0.000
REMARK  Name = 
REMARK  12 active torsions:
REMARK  status: ('A' for Active; 'I' for Inactive)
REMARK    1  A    between atoms: C_1  and  C_2
REMARK    2  A    between atoms: C_2  and  C_3
REMARK    3  A    between atoms: N_7  and  C_8
REMARK    4  A    between atoms: C_8  and  C_9
REMARK    5  A    between atoms: C_9  and  C_10
REMARK    6  A    between atoms: C_9  and  N_28
REMARK    7  A    between atoms: C_10  and  O_11
REMARK    8  A    between atoms: O_11  and  C_12
REMARK    9  A    between atoms: C_15  and  C_16
REMARK   10  A    between atoms: C_19  and  S_20
REMARK   11  A    between atoms: S_20  and  C_21
REMARK   12  A    between atoms: N_28  and  O_29
REMARK                            x       y       z     vdW  Elec       q    Type
REMARK                         _______ _______ _______ _____ _____    ______ ____
ROOT
ATOM      1  C   UNL     1       4.247   6.320  18.467  0.00  0.00    +0.000 C 
ENDROOT
BRANCH   1   2
ATOM      2  C   UNL     1       5.181   5.479  17.585  0.00  0.00    +0.000 C 
BRANCH   2   3
ATOM      3  N   UNL     1       6.570   5.455  18.103  0.00  0.00    +0.000 N 
ATOM      4  C   UNL     1       7.423   6.516  17.842  0.00  0.00    +0.000 C 
ATOM      5  O   UNL     1       7.281   7.347  16.953  0.00  0.00    +0.000 OA
BRANCH   3   6
ATOM      6  O   UNL     1       6.682   5.048  19.458  0.00  0.00    +0.000 OA
ATOM      7  H   UNL     1       6.063   4.291  19.486  0.00  0.00    +0.000 HD
ENDBRANCH   3   6
ENDBRANCH   2   3
BRANCH   2   8
ATOM      8  C   UNL     1       4.646   4.041  17.395  0.00  0.00    +0.000 C 
BRANCH   8  15
ATOM      9  C   UNL     1       0.463   2.006  19.047  0.00  0.00    +0.000 C 
ATOM     10  C   UNL     1       1.583   2.983  19.363  0.00  0.00    +0.000 C 
ATOM     11  C   UNL     1       1.099   4.138  20.236  0.00  0.00    +0.000 C 
ATOM     12  N   UNL     1       2.734   2.366  19.972  0.00  0.00    +0.000 N 
ATOM     13  C   UNL     1       3.910   2.845  19.435  0.00  0.00    +0.000 C 
ATOM     14  O   UNL     1       5.011   2.604  19.900  0.00  0.00    +0.000 OA
ATOM     15  N   UNL     1       3.616   3.588  18.326  0.00  0.00    +0.000 N 
ATOM     16  C   UNL     1       2.265   3.542  18.101  0.00  0.00    +0.000 C 
ATOM     17  O   UNL     1       1.677   3.971  17.118  0.00  0.00    +0.000 OA
ATOM     18  H   UNL     1       2.748   1.889  20.865  0.00  0.00    +0.000 HD
ENDBRANCH   8  15
ENDBRANCH   2   8
ENDBRANCH   1   2
BRANCH   1  19
ATOM     19  O   UNL     1       3.221   6.986  17.709  0.00  0.00    +0.000 OA
BRANCH  19  20
ATOM     20  C   UNL     1       2.402   7.794  18.461  0.00  0.00    +0.000 A 
ATOM     21  C   UNL     1       2.133   7.595  19.812  0.00  0.00    +0.000 A 
ATOM     22  C   UNL     1       1.342   8.494  20.517  0.00  0.00    +0.000 A 
ATOM     23  C   UNL     1       0.829   9.656  19.921  0.00  0.00    +0.000 A 
ATOM     24  C   UNL     1       1.038   9.811  18.541  0.00  0.00    +0.000 A 
ATOM     25  C   UNL     1       1.816   8.885  17.818  0.00  0.00    +0.000 A 
BRANCH  23  26
ATOM     26  C   UNL     1       0.193  10.676  20.780  0.00  0.00    +0.000 A 
ATOM     27  C   UNL     1       0.225  12.031  20.375  0.00  0.00    +0.000 A 
ATOM     28  C   UNL     1      -0.353  13.044  21.131  0.00  0.00    +0.000 A 
ATOM     29  C   UNL     1      -1.016  12.710  22.305  0.00  0.00    +0.000 A 
ATOM     30  C   UNL     1      -1.060  11.386  22.750  0.00  0.00    +0.000 A 
ATOM     31  C   UNL     1      -0.458  10.375  21.986  0.00  0.00    +0.000 A 
BRANCH  29  32
ATOM     32  S   UNL     1      -1.829  13.999  23.214  0.00  0.00    +0.000 S 
ATOM     33  C   UNL     1      -3.175  13.126  23.978  0.00  0.00    +0.000 C 
ATOM     34  O   UNL     1      -0.920  14.436  24.259  0.00  0.00    +0.000 OA
ATOM     35  O   UNL     1      -2.381  14.934  22.258  0.00  0.00    +0.000 OA
ENDBRANCH  29  32
ENDBRANCH  23  26
ENDBRANCH  19  20
ENDBRANCH   1  19
TORSDOF 9
ENDMDL
MODEL 2
REMARK VINA RESULT:      -8.6      1.309      1.466
REMARK  Name = 
REMARK  12 active torsions:
REMARK  status: ('A' for Active; 'I' for Inactive)
REMARK    1  A    between atoms: C_1  and  C_2
REMARK    2  A    between atoms: C_2  and  C_3
REMARK    3  A    between atoms: N_7  and  C_8
REMARK    4  A    between atoms: C_8  and  C_9
REMARK    5  A    between atoms: C_9  and  C_10
REMARK    6  A    between atoms: C_9  and  N_28
REMARK    7  A    between atoms: C_10  and  O_11
REMARK    8  A    between atoms: O_11  and  C_12
REMARK    9  A    between atoms: C_15  and  C_16
REMARK   10  A    between atoms: C_19  and  S_20
REMARK   11  A    between atoms: S_20  and  C_21
REMARK   12  A    between atoms: N_28  and  O_29
REMARK                            x       y       z     vdW  Elec       q    Type
REMARK                         _______ _______ _______ _____ _____    ______ ____
ROOT
ATOM      1  C   UNL     1       4.351   6.205  17.982  0.00  0.00    +0.000 C 
ENDROOT
BRANCH   1   2
ATOM      2  C   UNL     1       4.938   5.221  16.960  0.00  0.00    +0.000 C 
BRANCH   2   3
ATOM      3  N   UNL     1       6.327   5.571  16.578  0.00  0.00    +0.000 N 
ATOM      4  C   UNL     1       6.863   5.082  15.397  0.00  0.00    +0.000 C 
ATOM      5  O   UNL     1       6.444   4.121  14.765  0.00  0.00    +0.000 OA
BRANCH   3   6
ATOM      6  O   UNL     1       6.650   6.943  16.743  0.00  0.00    +0.000 OA
ATOM      7  H   UNL     1       5.862   7.274  17.218  0.00  0.00    +0.000 HD
ENDBRANCH   3   6
ENDBRANCH   2   3
BRANCH   2   8
ATOM      8  C   UNL     1       4.863   3.761  17.466  0.00  0.00    +0.000 C 
BRANCH   8  15
ATOM      9  C   UNL     1       0.517   2.037  19.050  0.00  0.00    +0.000 C 
ATOM     10  C   UNL     1       1.662   2.992  19.345  0.00  0.00    +0.000 C 
ATOM     11  C   UNL     1       1.185   4.235  20.094  0.00  0.00    +0.000 C 
ATOM     12  N   UNL     1       2.752   2.384  20.063  0.00  0.00    +0.000 N 
ATOM     13  C   UNL     1       3.974   2.770  19.553  0.00  0.00    +0.000 C 
ATOM     14  O   UNL     1       5.038   2.526  20.095  0.00  0.00    +0.000 OA
ATOM     15  N   UNL     1       3.769   3.429  18.374  0.00  0.00    +0.000 N 
ATOM     16  C   UNL     1       2.430   3.417  18.080  0.00  0.00    +0.000 C 
ATOM     17  O   UNL     1       1.911   3.785  17.036  0.00  0.00    +0.000 OA
ATOM     18  H   UNL     1       2.701   1.983  20.992  0.00  0.00    +0.000 HD
ENDBRANCH   8  15
ENDBRANCH   2   8
ENDBRANCH   1   2
BRANCH   1  19
ATOM     19  O   UNL     1       3.686   7.319  17.359  0.00  0.00    +0.000 OA
BRANCH  19  20
ATOM     20  C   UNL     1       2.726   7.911  18.143  0.00  0.00    +0.000 A 
ATOM     21  C   UNL     1       2.438   7.528  19.450  0.00  0.00    +0.000 A 
ATOM     22  C   UNL     1       1.492   8.218  20.199  0.00  0.00    +0.000 A 
ATOM     23  C   UNL     1       0.831   9.349  19.698  0.00  0.00    +0.000 A 
ATOM     24  C   UNL     1       1.067   9.683  18.355  0.00  0.00    +0.000 A 
ATOM     25  C   UNL     1       2.005   8.967  17.584  0.00  0.00    +0.000 A 
BRANCH  23  26
ATOM     26  C   UNL     1       0.015  10.164  20.621  0.00  0.00    +0.000 A 
ATOM     27  C   UNL     1      -0.699  11.273  20.109  0.00  0.00    +0.000 A 
ATOM     28  C   UNL     1      -1.489  12.083  20.916  0.00  0.00    +0.000 A 
ATOM     29  C   UNL     1      -1.609  11.772  22.265  0.00  0.00    +0.000 A 
ATOM     30  C   UNL     1      -0.911  10.694  22.815  0.00  0.00    +0.000 A 
ATOM     31  C   UNL     1      -0.104   9.894  21.993  0.00  0.00    +0.000 A 
BRANCH  29  32
ATOM     32  S   UNL     1      -2.692  12.758  23.268  0.00  0.00    +0.000 S 
ATOM     33  C   UNL     1      -3.688  13.579  22.047  0.00  0.00    +0.000 C 
ATOM     34  O   UNL     1      -3.544  11.849  24.013  0.00  0.00    +0.000 OA
ATOM     35  O   UNL     1      -1.886  13.756  23.938  0.00  0.00    +0.000 OA
ENDBRANCH  29  32
ENDBRANCH  23  26
ENDBRANCH  19  20
ENDBRANCH   1  19
TORSDOF 9
ENDMDL
MODEL 3
REMARK VINA RESULT:      -8.6      1.040      1.319
REMARK  Name = 
REMARK  12 active torsions:
REMARK  status: ('A' for Active; 'I' for Inactive)
REMARK    1  A    between atoms: C_1  and  C_2
REMARK    2  A    between atoms: C_2  and  C_3
REMARK    3  A    between atoms: N_7  and  C_8
REMARK    4  A    between atoms: C_8  and  C_9
REMARK    5  A    between atoms: C_9  and  C_10
REMARK    6  A    between atoms: C_9  and  N_28
REMARK    7  A    between atoms: C_10  and  O_11
REMARK    8  A    between atoms: O_11  and  C_12
REMARK    9  A    between atoms: C_15  and  C_16
REMARK   10  A    between atoms: C_19  and  S_20
REMARK   11  A    between atoms: S_20  and  C_21
REMARK   12  A    between atoms: N_28  and  O_29
REMARK                            x       y       z     vdW  Elec       q    Type
REMARK                         _______ _______ _______ _____ _____    ______ ____
ROOT
ATOM      1  C   UNL     1       4.247   6.324  18.308  0.00  0.00    +0.000 C 
ENDROOT
BRANCH   1   2
ATOM      2  C   UNL     1       5.139   5.503  17.366  0.00  0.00    +0.000 C 
BRANCH   2   3
ATOM      3  N   UNL     1       6.575   5.838  17.522  0.00  0.00    +0.000 N 
ATOM      4  C   UNL     1       7.230   5.538  18.705  0.00  0.00    +0.000 C 
ATOM      5  O   UNL     1       6.695   5.313  19.783  0.00  0.00    +0.000 OA
BRANCH   3   6
ATOM      6  O   UNL     1       7.380   5.494  16.404  0.00  0.00    +0.000 OA
ATOM      7  H   UNL     1       8.094   4.978  16.829  0.00  0.00    +0.000 HD
ENDBRANCH   3   6
ENDBRANCH   2   3
BRANCH   2   8
ATOM      8  C   UNL     1       4.912   3.983  17.545  0.00  0.00    +0.000 C 
BRANCH   8  15
ATOM      9  C   UNL     1       0.580   2.105  18.983  0.00  0.00    +0.000 C 
ATOM     10  C   UNL     1       1.714   3.047  19.351  0.00  0.00    +0.000 C 
ATOM     11  C   UNL     1       1.222   4.227  20.188  0.00  0.00    +0.000 C 
ATOM     12  N   UNL     1       2.809   2.399  20.027  0.00  0.00    +0.000 N 
ATOM     13  C   UNL     1       4.027   2.833  19.551  0.00  0.00    +0.000 C 
ATOM     14  O   UNL     1       5.093   2.561  20.077  0.00  0.00    +0.000 OA
ATOM     15  N   UNL     1       3.819   3.575  18.422  0.00  0.00    +0.000 N 
ATOM     16  C   UNL     1       2.481   3.571  18.124  0.00  0.00    +0.000 C 
ATOM     17  O   UNL     1       1.962   4.009  17.107  0.00  0.00    +0.000 OA
ATOM     18  H   UNL     1       2.758   1.931  20.923  0.00  0.00    +0.000 HD
ENDBRANCH   8  15
ENDBRANCH   2   8
ENDBRANCH   1   2
BRANCH   1  19
ATOM     19  O   UNL     1       3.480   7.324  17.613  0.00  0.00    +0.000 OA
BRANCH  19  20
ATOM     20  C   UNL     1       2.519   7.931  18.383  0.00  0.00    +0.000 A 
ATOM     21  C   UNL     1       2.240   7.587  19.703  0.00  0.00    +0.000 A 
ATOM     22  C   UNL     1       1.292   8.292  20.435  0.00  0.00    +0.000 A 
ATOM     23  C   UNL     1       0.619   9.401  19.902  0.00  0.00    +0.000 A 
ATOM     24  C   UNL     1       0.846   9.696  18.548  0.00  0.00    +0.000 A 
ATOM     25  C   UNL     1       1.786   8.964  17.795  0.00  0.00    +0.000 A 
BRANCH  23  26
ATOM     26  C   UNL     1      -0.200  10.238  20.803  0.00  0.00    +0.000 A 
ATOM     27  C   UNL     1      -0.935  11.317  20.259  0.00  0.00    +0.000 A 
ATOM     28  C   UNL     1      -1.728  12.145  21.044  0.00  0.00    +0.000 A 
ATOM     29  C   UNL     1      -1.831  11.881  22.404  0.00  0.00    +0.000 A 
ATOM     30  C   UNL     1      -1.111  10.835  22.986  0.00  0.00    +0.000 A 
ATOM     31  C   UNL     1      -0.301  10.017  22.185  0.00  0.00    +0.000 A 
BRANCH  29  32
ATOM     32  S   UNL     1      -2.918  12.888  23.382  0.00  0.00    +0.000 S 
ATOM     33  C   UNL     1      -3.931  13.657  22.142  0.00  0.00    +0.000 C 
ATOM     34  O   UNL     1      -3.754  11.994  24.163  0.00  0.00    +0.000 OA
ATOM     35  O   UNL     1      -2.119  13.915  24.014  0.00  0.00    +0.000 OA
ENDBRANCH  29  32
ENDBRANCH  23  26
ENDBRANCH  19  20
ENDBRANCH   1  19
TORSDOF 9
ENDMDL
MODEL 4
REMARK VINA RESULT:      -8.3      1.772      3.932
REMARK  Name = 
REMARK  12 active torsions:
REMARK  status: ('A' for Active; 'I' for Inactive)
REMARK    1  A    between atoms: C_1  and  C_2
REMARK    2  A    between atoms: C_2  and  C_3
REMARK    3  A    between atoms: N_7  and  C_8
REMARK    4  A    between atoms: C_8  and  C_9
REMARK    5  A    between atoms: C_9  and  C_10
REMARK    6  A    between atoms: C_9  and  N_28
REMARK    7  A    between atoms: C_10  and  O_11
REMARK    8  A    between atoms: O_11  and  C_12
REMARK    9  A    between atoms: C_15  and  C_16
REMARK   10  A    between atoms: C_19  and  S_20
REMARK   11  A    between atoms: S_20  and  C_21
REMARK   12  A    between atoms: N_28  and  O_29
REMARK                            x       y       z     vdW  Elec       q    Type
REMARK                         _______ _______ _______ _____ _____    ______ ____
ROOT
ATOM      1  C   UNL     1       3.269   6.043  19.568  0.00  0.00    +0.000 C 
ENDROOT
BRANCH   1   2
ATOM      2  C   UNL     1       4.484   5.270  19.035  0.00  0.00    +0.000 C 
BRANCH   2   3
ATOM      3  N   UNL     1       4.090   4.035  18.316  0.00  0.00    +0.000 N 
ATOM      4  C   UNL     1       4.176   2.807  18.953  0.00  0.00    +0.000 C 
ATOM      5  O   UNL     1       4.848   2.562  19.946  0.00  0.00    +0.000 OA
BRANCH   3   6
ATOM      6  O   UNL     1       2.869   4.140  17.599  0.00  0.00    +0.000 OA
ATOM      7  H   UNL     1       2.886   5.077  17.321  0.00  0.00    +0.000 HD
ENDBRANCH   3   6
ENDBRANCH   2   3
BRANCH   2   8
ATOM      8  C   UNL     1       5.379   6.160  18.140  0.00  0.00    +0.000 C 
BRANCH   8  15
ATOM      9  C   UNL     1       7.605   5.541  13.778  0.00  0.00    +0.000 C 
ATOM     10  C   UNL     1       6.889   4.843  14.923  0.00  0.00    +0.000 C 
ATOM     11  C   UNL     1       6.111   3.619  14.443  0.00  0.00    +0.000 C 
ATOM     12  N   UNL     1       7.761   4.466  16.006  0.00  0.00    +0.000 N 
ATOM     13  C   UNL     1       7.195   4.742  17.232  0.00  0.00    +0.000 C 
ATOM     14  O   UNL     1       7.662   4.361  18.292  0.00  0.00    +0.000 OA
ATOM     15  N   UNL     1       6.076   5.503  17.038  0.00  0.00    +0.000 N 
ATOM     16  C   UNL     1       5.948   5.779  15.702  0.00  0.00    +0.000 C 
ATOM     17  O   UNL     1       5.148   6.551  15.193  0.00  0.00    +0.000 OA
ATOM     18  H   UNL     1       8.535   3.816  15.946  0.00  0.00    +0.000 HD
ENDBRANCH   8  15
ENDBRANCH   2   8
ENDBRANCH   1   2
BRANCH   1  19
ATOM     19  O   UNL     1       2.757   6.995  18.617  0.00  0.00    +0.000 OA
BRANCH  19  20
ATOM     20  C   UNL     1       2.036   8.019  19.180  0.00  0.00    +0.000 A 
ATOM     21  C   UNL     1       1.585   9.135  18.480  0.00  0.00    +0.000 A 
ATOM     22  C   UNL     1       0.807  10.100  19.109  0.00  0.00    +0.000 A 
ATOM     23  C   UNL     1       0.401   9.969  20.445  0.00  0.00    +0.000 A 
ATOM     24  C   UNL     1       0.922   8.884  21.167  0.00  0.00    +0.000 A 
ATOM     25  C   UNL     1       1.735   7.919  20.539  0.00  0.00    +0.000 A 
BRANCH  23  26
ATOM     26  C   UNL     1      -0.606  10.909  20.978  0.00  0.00    +0.000 A 
ATOM     27  C   UNL     1      -0.822  10.964  22.375  0.00  0.00    +0.000 A 
ATOM     28  C   UNL     1      -1.751  11.825  22.949  0.00  0.00    +0.000 A 
ATOM     29  C   UNL     1      -2.467  12.684  22.124  0.00  0.00    +0.000 A 
ATOM     30  C   UNL     1      -2.297  12.653  20.738  0.00  0.00    +0.000 A 
ATOM     31  C   UNL     1      -1.368  11.768  20.171  0.00  0.00    +0.000 A 
BRANCH  29  32
ATOM     32  S   UNL     1      -3.584  13.841  22.875  0.00  0.00    +0.000 S 
ATOM     33  C   UNL     1      -5.127  12.961  22.819  0.00  0.00    +0.000 C 
ATOM     34  O   UNL     1      -3.193  13.985  24.266  0.00  0.00    +0.000 OA
ATOM     35  O   UNL     1      -3.686  14.988  21.999  0.00  0.00    +0.000 OA
ENDBRANCH  29  32
ENDBRANCH  23  26
ENDBRANCH  19  20
ENDBRANCH   1  19
TORSDOF 9
ENDMDL
MODEL 5
REMARK VINA RESULT:      -8.1      1.024      1.875
REMARK  Name = 
REMARK  12 active torsions:
REMARK  status: ('A' for Active; 'I' for Inactive)
REMARK    1  A    between atoms: C_1  and  C_2
REMARK    2  A    between atoms: C_2  and  C_3
REMARK    3  A    between atoms: N_7  and  C_8
REMARK    4  A    between atoms: C_8  and  C_9
REMARK    5  A    between atoms: C_9  and  C_10
REMARK    6  A    between atoms: C_9  and  N_28
REMARK    7  A    between atoms: C_10  and  O_11
REMARK    8  A    between atoms: O_11  and  C_12
REMARK    9  A    between atoms: C_15  and  C_16
REMARK   10  A    between atoms: C_19  and  S_20
REMARK   11  A    between atoms: S_20  and  C_21
REMARK   12  A    between atoms: N_28  and  O_29
REMARK                            x       y       z     vdW  Elec       q    Type
REMARK                         _______ _______ _______ _____ _____    ______ ____
ROOT
ATOM      1  C   UNL     1       4.317   6.220  18.430  0.00  0.00    +0.000 C 
ENDROOT
BRANCH   1   2
ATOM      2  C   UNL     1       5.046   5.134  17.626  0.00  0.00    +0.000 C 
BRANCH   2   3
ATOM      3  N   UNL     1       6.255   4.636  18.325  0.00  0.00    +0.000 N 
ATOM      4  C   UNL     1       7.480   4.642  17.676  0.00  0.00    +0.000 C 
ATOM      5  O   UNL     1       7.648   4.709  16.465  0.00  0.00    +0.000 OA
BRANCH   3   6
ATOM      6  O   UNL     1       6.395   5.106  19.657  0.00  0.00    +0.000 OA
ATOM      7  H   UNL     1       7.307   5.459  19.646  0.00  0.00    +0.000 HD
ENDBRANCH   3   6
ENDBRANCH   2   3
BRANCH   2   8
ATOM      8  C   UNL     1       4.104   3.962  17.264  0.00  0.00    +0.000 C 
BRANCH   8  15
ATOM      9  C   UNL     1       1.907   3.289  21.633  0.00  0.00    +0.000 C 
ATOM     10  C   UNL     1       1.912   2.892  20.166  0.00  0.00    +0.000 C 
ATOM     11  C   UNL     1       1.449   1.451  19.966  0.00  0.00    +0.000 C 
ATOM     12  N   UNL     1       1.136   3.769  19.326  0.00  0.00    +0.000 N 
ATOM     13  C   UNL     1       1.794   4.058  18.149  0.00  0.00    +0.000 C 
ATOM     14  O   UNL     1       1.274   4.635  17.210  0.00  0.00    +0.000 OA
ATOM     15  N   UNL     1       3.081   3.608  18.244  0.00  0.00    +0.000 N 
ATOM     16  C   UNL     1       3.284   3.089  19.496  0.00  0.00    +0.000 C 
ATOM     17  O   UNL     1       4.353   2.734  19.971  0.00  0.00    +0.000 OA
ATOM     18  H   UNL     1       0.139   3.926  19.395  0.00  0.00    +0.000 HD
ENDBRANCH   8  15
ENDBRANCH   2   8
ENDBRANCH   1   2
BRANCH   1  19
ATOM     19  O   UNL     1       3.535   7.095  17.597  0.00  0.00    +0.000 OA
BRANCH  19  20
ATOM     20  C   UNL     1       2.584   7.816  18.276  0.00  0.00    +0.000 A 
ATOM     21  C   UNL     1       2.242   7.602  19.609  0.00  0.00    +0.000 A 
ATOM     22  C   UNL     1       1.312   8.417  20.242  0.00  0.00    +0.000 A 
ATOM     23  C   UNL     1       0.720   9.510  19.593  0.00  0.00    +0.000 A 
ATOM     24  C   UNL     1       1.008   9.674  18.229  0.00  0.00    +0.000 A 
ATOM     25  C   UNL     1       1.930   8.831  17.576  0.00  0.00    +0.000 A 
BRANCH  23  26
ATOM     26  C   UNL     1      -0.081  10.463  20.389  0.00  0.00    +0.000 A 
ATOM     27  C   UNL     1      -0.065  10.362  21.799  0.00  0.00    +0.000 A 
ATOM     28  C   UNL     1      -0.791  11.224  22.613  0.00  0.00    +0.000 A 
ATOM     29  C   UNL     1      -1.529  12.242  22.021  0.00  0.00    +0.000 A 
ATOM     30  C   UNL     1      -1.584  12.369  20.631  0.00  0.00    +0.000 A 
ATOM     31  C   UNL     1      -0.860  11.482  19.821  0.00  0.00    +0.000 A 
BRANCH  29  32
ATOM     32  S   UNL     1      -2.379  13.392  23.071  0.00  0.00    +0.000 S 
ATOM     33  C   UNL     1      -3.516  12.338  23.938  0.00  0.00    +0.000 C 
ATOM     34  O   UNL     1      -1.413  13.904  24.028  0.00  0.00    +0.000 OA
ATOM     35  O   UNL     1      -3.143  14.282  22.225  0.00  0.00    +0.000 OA
ENDBRANCH  29  32
ENDBRANCH  23  26
ENDBRANCH  19  20
ENDBRANCH   1  19
TORSDOF 9
ENDMDL
MODEL 6
REMARK VINA RESULT:      -8.1      1.607      3.783
REMARK  Name = 
REMARK  12 active torsions:
REMARK  status: ('A' for Active; 'I' for Inactive)
REMARK    1  A    between atoms: C_1  and  C_2
REMARK    2  A    between atoms: C_2  and  C_3
REMARK    3  A    between atoms: N_7  and  C_8
REMARK    4  A    between atoms: C_8  and  C_9
REMARK    5  A    between atoms: C_9  and  C_10
REMARK    6  A    between atoms: C_9  and  N_28
REMARK    7  A    between atoms: C_10  and  O_11
REMARK    8  A    between atoms: O_11  and  C_12
REMARK    9  A    between atoms: C_15  and  C_16
REMARK   10  A    between atoms: C_19  and  S_20
REMARK   11  A    between atoms: S_20  and  C_21
REMARK   12  A    between atoms: N_28  and  O_29
REMARK                            x       y       z     vdW  Elec       q    Type
REMARK                         _______ _______ _______ _____ _____    ______ ____
ROOT
ATOM      1  C   UNL     1       3.287   5.907  19.624  0.00  0.00    +0.000 C 
ENDROOT
BRANCH   1   2
ATOM      2  C   UNL     1       4.515   5.164  19.079  0.00  0.00    +0.000 C 
BRANCH   2   3
ATOM      3  N   UNL     1       4.143   3.930  18.346  0.00  0.00    +0.000 N 
ATOM      4  C   UNL     1       4.213   2.701  18.983  0.00  0.00    +0.000 C 
ATOM      5  O   UNL     1       4.857   2.454  19.994  0.00  0.00    +0.000 OA
BRANCH   3   6
ATOM      6  O   UNL     1       2.943   4.035  17.595  0.00  0.00    +0.000 OA
ATOM      7  H   UNL     1       2.954   3.197  17.092  0.00  0.00    +0.000 HD
ENDBRANCH   3   6
ENDBRANCH   2   3
BRANCH   2   8
ATOM      8  C   UNL     1       5.391   6.081  18.194  0.00  0.00    +0.000 C 
BRANCH   8  15
ATOM      9  C   UNL     1       7.567   5.567  13.793  0.00  0.00    +0.000 C 
ATOM     10  C   UNL     1       6.883   4.839  14.938  0.00  0.00    +0.000 C 
ATOM     11  C   UNL     1       6.124   3.605  14.453  0.00  0.00    +0.000 C 
ATOM     12  N   UNL     1       7.778   4.467  16.004  0.00  0.00    +0.000 N 
ATOM     13  C   UNL     1       7.224   4.715  17.242  0.00  0.00    +0.000 C 
ATOM     14  O   UNL     1       7.713   4.330  18.290  0.00  0.00    +0.000 OA
ATOM     15  N   UNL     1       6.086   5.454  17.073  0.00  0.00    +0.000 N 
ATOM     16  C   UNL     1       5.933   5.744  15.743  0.00  0.00    +0.000 C 
ATOM     17  O   UNL     1       5.110   6.506  15.255  0.00  0.00    +0.000 OA
ATOM     18  H   UNL     1       8.564   3.834  15.925  0.00  0.00    +0.000 HD
ENDBRANCH   8  15
ENDBRANCH   2   8
ENDBRANCH   1   2
BRANCH   1  19
ATOM     19  O   UNL     1       2.799   6.910  18.715  0.00  0.00    +0.000 OA
BRANCH  19  20
ATOM     20  C   UNL     1       2.055   7.898  19.314  0.00  0.00    +0.000 A 
ATOM     21  C   UNL     1       1.591   7.842  20.625  0.00  0.00    +0.000 A 
ATOM     22  C   UNL     1       0.896   8.911  21.178  0.00  0.00    +0.000 A 
ATOM     23  C   UNL     1       0.680  10.101  20.468  0.00  0.00    +0.000 A 
ATOM     24  C   UNL     1       1.081  10.123  19.123  0.00  0.00    +0.000 A 
ATOM     25  C   UNL     1       1.760   9.029  18.551  0.00  0.00    +0.000 A 
BRANCH  23  26
ATOM     26  C   UNL     1       0.140  11.272  21.188  0.00  0.00    +0.000 A 
ATOM     27  C   UNL     1      -0.926  11.086  22.100  0.00  0.00    +0.000 A 
ATOM     28  C   UNL     1      -1.483  12.140  22.815  0.00  0.00    +0.000 A 
ATOM     29  C   UNL     1      -0.951  13.413  22.654  0.00  0.00    +0.000 A 
ATOM     30  C   UNL     1       0.091  13.645  21.754  0.00  0.00    +0.000 A 
ATOM     31  C   UNL     1       0.634  12.576  21.026  0.00  0.00    +0.000 A 
BRANCH  29  32
ATOM     32  S   UNL     1      -1.609  14.735  23.639  0.00  0.00    +0.000 S 
ATOM     33  C   UNL     1      -2.954  13.938  24.484  0.00  0.00    +0.000 C 
ATOM     34  O   UNL     1      -0.601  15.090  24.622  0.00  0.00    +0.000 OA
ATOM     35  O   UNL     1      -2.164  15.723  22.739  0.00  0.00    +0.000 OA
ENDBRANCH  29  32
ENDBRANCH  23  26
ENDBRANCH  19  20
ENDBRANCH   1  19
TORSDOF 9
ENDMDL
MODEL 7
REMARK VINA RESULT:      -8.1      1.276      2.137
REMARK  Name = 
REMARK  12 active torsions:
REMARK  status: ('A' for Active; 'I' for Inactive)
REMARK    1  A    between atoms: C_1  and  C_2
REMARK    2  A    between atoms: C_2  and  C_3
REMARK    3  A    between atoms: N_7  and  C_8
REMARK    4  A    between atoms: C_8  and  C_9
REMARK    5  A    between atoms: C_9  and  C_10
REMARK    6  A    between atoms: C_9  and  N_28
REMARK    7  A    between atoms: C_10  and  O_11
REMARK    8  A    between atoms: O_11  and  C_12
REMARK    9  A    between atoms: C_15  and  C_16
REMARK   10  A    between atoms: C_19  and  S_20
REMARK   11  A    between atoms: S_20  and  C_21
REMARK   12  A    between atoms: N_28  and  O_29
REMARK                            x       y       z     vdW  Elec       q    Type
REMARK                         _______ _______ _______ _____ _____    ______ ____
ROOT
ATOM      1  C   UNL     1       4.135   6.263  18.189  0.00  0.00    +0.000 C 
ENDROOT
BRANCH   1   2
ATOM      2  C   UNL     1       4.870   5.257  17.290  0.00  0.00    +0.000 C 
BRANCH   2   3
ATOM      3  N   UNL     1       6.224   4.935  17.800  0.00  0.00    +0.000 N 
ATOM      4  C   UNL     1       7.343   5.424  17.145  0.00  0.00    +0.000 C 
ATOM      5  O   UNL     1       7.375   5.834  15.992  0.00  0.00    +0.000 OA
BRANCH   3   6
ATOM      6  O   UNL     1       6.368   5.076  19.206  0.00  0.00    +0.000 OA
ATOM      7  H   UNL     1       7.160   5.647  19.265  0.00  0.00    +0.000 HD
ENDBRANCH   3   6
ENDBRANCH   2   3
BRANCH   2   8
ATOM      8  C   UNL     1       4.043   3.966  17.085  0.00  0.00    +0.000 C 
BRANCH   8  15
ATOM      9  C   UNL     1       2.181   3.411  21.623  0.00  0.00    +0.000 C 
ATOM     10  C   UNL     1       2.130   2.919  20.186  0.00  0.00    +0.000 C 
ATOM     11  C   UNL     1       1.778   1.435  20.106  0.00  0.00    +0.000 C 
ATOM     12  N   UNL     1       1.233   3.674  19.347  0.00  0.00    +0.000 N 
ATOM     13  C   UNL     1       1.791   3.935  18.114  0.00  0.00    +0.000 C 
ATOM     14  O   UNL     1       1.168   4.405  17.178  0.00  0.00    +0.000 OA
ATOM     15  N   UNL     1       3.115   3.597  18.150  0.00  0.00    +0.000 N 
ATOM     16  C   UNL     1       3.437   3.180  19.416  0.00  0.00    +0.000 C 
ATOM     17  O   UNL     1       4.559   2.944  19.839  0.00  0.00    +0.000 OA
ATOM     18  H   UNL     1       0.232   3.754  19.472  0.00  0.00    +0.000 HD
ENDBRANCH   8  15
ENDBRANCH   2   8
ENDBRANCH   1   2
BRANCH   1  19
ATOM     19  O   UNL     1       3.162   7.041  17.469  0.00  0.00    +0.000 OA
BRANCH  19  20
ATOM     20  C   UNL     1       2.476   7.942  18.246  0.00  0.00    +0.000 A 
ATOM     21  C   UNL     1       2.035   9.185  17.799  0.00  0.00    +0.000 A 
ATOM     22  C   UNL     1       1.293  10.015  18.631  0.00  0.00    +0.000 A 
ATOM     23  C   UNL     1       0.915   9.623  19.923  0.00  0.00    +0.000 A 
ATOM     24  C   UNL     1       1.426   8.404  20.396  0.00  0.00    +0.000 A 
ATOM     25  C   UNL     1       2.203   7.574  19.564  0.00  0.00    +0.000 A 
BRANCH  23  26
ATOM     26  C   UNL     1      -0.060  10.452  20.662  0.00  0.00    +0.000 A 
ATOM     27  C   UNL     1      -0.899  11.332  19.940  0.00  0.00    +0.000 A 
ATOM     28  C   UNL     1      -1.841  12.141  20.566  0.00  0.00    +0.000 A 
ATOM     29  C   UNL     1      -1.985  12.055  21.945  0.00  0.00    +0.000 A 
ATOM     30  C   UNL     1      -1.167  11.211  22.700  0.00  0.00    +0.000 A 
ATOM     31  C   UNL     1      -0.210  10.412  22.057  0.00  0.00    +0.000 A 
BRANCH  29  32
ATOM     32  S   UNL     1      -3.251  13.025  22.725  0.00  0.00    +0.000 S 
ATOM     33  C   UNL     1      -3.231  14.514  21.757  0.00  0.00    +0.000 C 
ATOM     34  O   UNL     1      -4.518  12.352  22.498  0.00  0.00    +0.000 OA
ATOM     35  O   UNL     1      -2.800  13.349  24.061  0.00  0.00    +0.000 OA
ENDBRANCH  29  32
ENDBRANCH  23  26
ENDBRANCH  19  20
ENDBRANCH   1  19
TORSDOF 9
ENDMDL
MODEL 8
REMARK VINA RESULT:      -8.0      1.507      2.028
REMARK  Name = 
REMARK  12 active torsions:
REMARK  status: ('A' for Active; 'I' for Inactive)
REMARK    1  A    between atoms: C_1  and  C_2
REMARK    2  A    between atoms: C_2  and  C_3
REMARK    3  A    between atoms: N_7  and  C_8
REMARK    4  A    between atoms: C_8  and  C_9
REMARK    5  A    between atoms: C_9  and  C_10
REMARK    6  A    between atoms: C_9  and  N_28
REMARK    7  A    between atoms: C_10  and  O_11
REMARK    8  A    between atoms: O_11  and  C_12
REMARK    9  A    between atoms: C_15  and  C_16
REMARK   10  A    between atoms: C_19  and  S_20
REMARK   11  A    between atoms: S_20  and  C_21
REMARK   12  A    between atoms: N_28  and  O_29
REMARK                            x       y       z     vdW  Elec       q    Type
REMARK                         _______ _______ _______ _____ _____    ______ ____
ROOT
ATOM      1  C   UNL     1       4.050   7.508  17.790  0.00  0.00    +0.000 C 
ENDROOT
BRANCH   1   2
ATOM      2  C   UNL     1       4.438   6.023  17.839  0.00  0.00    +0.000 C 
BRANCH   2   3
ATOM      3  N   UNL     1       5.752   5.767  17.201  0.00  0.00    +0.000 N 
ATOM      4  C   UNL     1       5.917   4.662  16.381  0.00  0.00    +0.000 C 
ATOM      5  O   UNL     1       5.199   3.670  16.362  0.00  0.00    +0.000 OA
BRANCH   3   6
ATOM      6  O   UNL     1       6.354   6.913  16.620  0.00  0.00    +0.000 OA
ATOM      7  H   UNL     1       6.511   6.609  15.704  0.00  0.00    +0.000 HD
ENDBRANCH   3   6
ENDBRANCH   2   3
BRANCH   2   8
ATOM      8  C   UNL     1       4.419   5.476  19.286  0.00  0.00    +0.000 C 
BRANCH   8  15
ATOM      9  C   UNL     1       0.737   2.220  18.836  0.00  0.00    +0.000 C 
ATOM     10  C   UNL     1       1.802   2.776  19.766  0.00  0.00    +0.000 C 
ATOM     11  C   UNL     1       1.359   2.733  21.227  0.00  0.00    +0.000 C 
ATOM     12  N   UNL     1       3.083   2.130  19.630  0.00  0.00    +0.000 N 
ATOM     13  C   UNL     1       4.115   3.044  19.639  0.00  0.00    +0.000 C 
ATOM     14  O   UNL     1       5.291   2.732  19.709  0.00  0.00    +0.000 OA
ATOM     15  N   UNL     1       3.589   4.302  19.539  0.00  0.00    +0.000 N 
ATOM     16  C   UNL     1       2.228   4.209  19.400  0.00  0.00    +0.000 C 
ATOM     17  O   UNL     1       1.461   5.125  19.141  0.00  0.00    +0.000 OA
ATOM     18  H   UNL     1       3.276   1.154  19.812  0.00  0.00    +0.000 HD
ENDBRANCH   8  15
ENDBRANCH   2   8
ENDBRANCH   1   2
BRANCH   1  19
ATOM     19  O   UNL     1       2.664   7.707  17.459  0.00  0.00    +0.000 OA
BRANCH  19  20
ATOM     20  C   UNL     1       1.990   8.527  18.332  0.00  0.00    +0.000 A 
ATOM     21  C   UNL     1       1.413   9.743  17.976  0.00  0.00    +0.000 A 
ATOM     22  C   UNL     1       0.694  10.486  18.905  0.00  0.00    +0.000 A 
ATOM     23  C   UNL     1       0.475  10.026  20.212  0.00  0.00    +0.000 A 
ATOM     24  C   UNL     1       1.123   8.839  20.587  0.00  0.00    +0.000 A 
ATOM     25  C   UNL     1       1.877   8.098  19.655  0.00  0.00    +0.000 A 
BRANCH  23  26
ATOM     26  C   UNL     1      -0.483  10.751  21.071  0.00  0.00    +0.000 A 
ATOM     27  C   UNL     1      -1.253  11.797  20.509  0.00  0.00    +0.000 A 
ATOM     28  C   UNL     1      -2.176  12.522  21.255  0.00  0.00    +0.000 A 
ATOM     29  C   UNL     1      -2.373  12.184  22.588  0.00  0.00    +0.000 A 
ATOM     30  C   UNL     1      -1.624  11.168  23.187  0.00  0.00    +0.000 A 
ATOM     31  C   UNL     1      -0.685  10.455  22.428  0.00  0.00    +0.000 A 
BRANCH  29  32
ATOM     32  S   UNL     1      -3.617  13.055  23.506  0.00  0.00    +0.000 S 
ATOM     33  C   UNL     1      -2.674  14.343  24.285  0.00  0.00    +0.000 C 
ATOM     34  O   UNL     1      -4.518  13.668  22.547  0.00  0.00    +0.000 OA
ATOM     35  O   UNL     1      -4.107  12.168  24.538  0.00  0.00    +0.000 OA
ENDBRANCH  29  32
ENDBRANCH  23  26
ENDBRANCH  19  20
ENDBRANCH   1  19
TORSDOF 9
ENDMDL
MODEL 9
REMARK VINA RESULT:      -8.0      1.719      4.110
REMARK  Name = 
REMARK  12 active torsions:
REMARK  status: ('A' for Active; 'I' for Inactive)
REMARK    1  A    between atoms: C_1  and  C_2
REMARK    2  A    between atoms: C_2  and  C_3
REMARK    3  A    between atoms: N_7  and  C_8
REMARK    4  A    between atoms: C_8  and  C_9
REMARK    5  A    between atoms: C_9  and  C_10
REMARK    6  A    between atoms: C_9  and  N_28
REMARK    7  A    between atoms: C_10  and  O_11
REMARK    8  A    between atoms: O_11  and  C_12
REMARK    9  A    between atoms: C_15  and  C_16
REMARK   10  A    between atoms: C_19  and  S_20
REMARK   11  A    between atoms: S_20  and  C_21
REMARK   12  A    between atoms: N_28  and  O_29
REMARK                            x       y       z     vdW  Elec       q    Type
REMARK                         _______ _______ _______ _____ _____    ______ ____
ROOT
ATOM      1  C   UNL     1       1.419   5.850  20.096  0.00  0.00    +0.000 C 
ENDROOT
BRANCH   1   2
ATOM      2  C   UNL     1       2.271   4.586  19.906  0.00  0.00    +0.000 C 
BRANCH   2   3
ATOM      3  N   UNL     1       1.534   3.354  20.273  0.00  0.00    +0.000 N 
ATOM      4  C   UNL     1       1.679   2.814  21.542  0.00  0.00    +0.000 C 
ATOM      5  O   UNL     1       2.599   3.044  22.316  0.00  0.00    +0.000 OA
BRANCH   3   6
ATOM      6  O   UNL     1       0.169   3.350  19.884  0.00  0.00    +0.000 OA
ATOM      7  H   UNL     1       0.103   2.498  19.408  0.00  0.00    +0.000 HD
ENDBRANCH   3   6
ENDBRANCH   2   3
BRANCH   2   8
ATOM      8  C   UNL     1       2.823   4.482  18.465  0.00  0.00    +0.000 C 
BRANCH   8  15
ATOM      9  C   UNL     1       7.354   6.418  18.170  0.00  0.00    +0.000 C 
ATOM     10  C   UNL     1       6.479   5.231  17.801  0.00  0.00    +0.000 C 
ATOM     11  C   UNL     1       6.910   4.597  16.480  0.00  0.00    +0.000 C 
ATOM     12  N   UNL     1       6.415   4.219  18.824  0.00  0.00    +0.000 N 
ATOM     13  C   UNL     1       5.129   3.752  18.996  0.00  0.00    +0.000 C 
ATOM     14  O   UNL     1       4.849   2.781  19.677  0.00  0.00    +0.000 OA
ATOM     15  N   UNL     1       4.272   4.560  18.302  0.00  0.00    +0.000 N 
ATOM     16  C   UNL     1       4.982   5.587  17.736  0.00  0.00    +0.000 C 
ATOM     17  O   UNL     1       4.518   6.568  17.173  0.00  0.00    +0.000 OA
ATOM     18  H   UNL     1       7.195   3.677  19.171  0.00  0.00    +0.000 HD
ENDBRANCH   8  15
ENDBRANCH   2   8
ENDBRANCH   1   2
BRANCH   1  19
ATOM     19  O   UNL     1       2.199   7.057  20.036  0.00  0.00    +0.000 OA
BRANCH  19  20
ATOM     20  C   UNL     1       1.509   8.191  20.393  0.00  0.00    +0.000 A 
ATOM     21  C   UNL     1       1.113   9.180  19.498  0.00  0.00    +0.000 A 
ATOM     22  C   UNL     1       0.364  10.268  19.929  0.00  0.00    +0.000 A 
ATOM     23  C   UNL     1      -0.067  10.391  21.258  0.00  0.00    +0.000 A 
ATOM     24  C   UNL     1       0.400   9.433  22.171  0.00  0.00    +0.000 A 
ATOM     25  C   UNL     1       1.184   8.344  21.741  0.00  0.00    +0.000 A 
BRANCH  23  26
ATOM     26  C   UNL     1      -1.045  11.446  21.594  0.00  0.00    +0.000 A 
ATOM     27  C   UNL     1      -1.550  11.518  22.914  0.00  0.00    +0.000 A 
ATOM     28  C   UNL     1      -2.470  12.484  23.304  0.00  0.00    +0.000 A 
ATOM     29  C   UNL     1      -2.882  13.431  22.375  0.00  0.00    +0.000 A 
ATOM     30  C   UNL     1      -2.421  13.389  21.057  0.00  0.00    +0.000 A 
ATOM     31  C   UNL     1      -1.505  12.399  20.672  0.00  0.00    +0.000 A 
BRANCH  29  32
ATOM     32  S   UNL     1      -3.987  14.714  22.908  0.00  0.00    +0.000 S 
ATOM     33  C   UNL     1      -5.536  14.184  22.217  0.00  0.00    +0.000 C 
ATOM     34  O   UNL     1      -4.084  14.633  24.354  0.00  0.00    +0.000 OA
ATOM     35  O   UNL     1      -3.594  15.939  22.247  0.00  0.00    +0.000 OA
ENDBRANCH  29  32
ENDBRANCH  23  26
ENDBRANCH  19  20
ENDBRANCH   1  19
TORSDOF 9
ENDMDL
