MODEL 1
REMARK VINA RESULT:      -8.5      0.000      0.000
REMARK  Name = 
REMARK  10 active torsions:
REMARK  status: ('A' for Active; 'I' for Inactive)
REMARK    1  A    between atoms: C_1  and  C_2
REMARK    2  A    between atoms: C_2  and  C_3
REMARK    3  A    between atoms: C_2  and  C_4
REMARK    4  A    between atoms: C_4  and  N_5
REMARK    5  A    between atoms: C_4  and  C_15
REMARK    6  A    between atoms: C_6  and  C_8
REMARK    7  A    between atoms: C_8  and  C_9
REMARK    8  A    between atoms: C_15  and  O_17
REMARK    9  A    between atoms: O_17  and  C_18
REMARK   10  A    between atoms: C_18  and  C_19
REMARK                            x       y       z     vdW  Elec       q    Type
REMARK                         _______ _______ _______ _____ _____    ______ ____
ROOT
ATOM      1  C   UNL     1       7.726   6.870  18.059  0.00  0.00    +0.000 C 
ATOM      2  O   UNL     1       8.323   6.643  19.102  0.00  0.00    +0.000 OA
ENDROOT
BRANCH   1   3
ATOM      3  C   UNL     1       6.755   5.871  17.381  0.00  0.00    +0.000 C 
BRANCH   3   4
ATOM      4  N   UNL     1       5.445   6.093  18.002  0.00  0.00    +0.000 N 
ATOM      5  C   UNL     1       5.025   5.283  19.037  0.00  0.00    +0.000 C 
ATOM      6  O   UNL     1       5.668   4.306  19.408  0.00  0.00    +0.000 OA
ATOM      7  H   UNL     1       5.001   6.996  17.876  0.00  0.00    +0.000 HD
BRANCH   5   8
ATOM      8  C   UNL     1       3.704   5.668  19.666  0.00  0.00    +0.000 C 
BRANCH   8   9
ATOM      9  C   UNL     1       2.650   4.584  19.644  0.00  0.00    +0.000 A 
ATOM     10  C   UNL     1       2.122   3.997  20.798  0.00  0.00    +0.000 A 
ATOM     11  C   UNL     1       1.159   2.992  20.700  0.00  0.00    +0.000 A 
ATOM     12  C   UNL     1       0.696   2.574  19.458  0.00  0.00    +0.000 A 
ATOM     13  C   UNL     1       1.197   3.158  18.306  0.00  0.00    +0.000 A 
ATOM     14  C   UNL     1       2.175   4.156  18.396  0.00  0.00    +0.000 A 
ENDBRANCH   8   9
ENDBRANCH   5   8
ENDBRANCH   3   4
BRANCH   3  16
ATOM     15  C   UNL     1       5.245   6.434  15.416  0.00  0.00    +0.000 C 
ATOM     16  C   UNL     1       6.664   6.021  15.845  0.00  0.00    +0.000 C 
ATOM     17  C   UNL     1       7.028   4.716  15.130  0.00  0.00    +0.000 C 
ENDBRANCH   3  16
ENDBRANCH   1   3
BRANCH   1  18
ATOM     18  O   UNL     1       7.946   7.933  17.231  0.00  0.00    +0.000 OA
BRANCH  18  19
ATOM     19  C   UNL     1       7.658   9.261  17.722  0.00  0.00    +0.000 C 
BRANCH  19  20
ATOM     20  C   UNL     1       8.866   9.959  18.340  0.00  0.00    +0.000 A 
ATOM     21  C   UNL     1       9.016  10.038  19.674  0.00  0.00    +0.000 A 
ATOM     22  C   UNL     1       9.485  11.352  20.177  0.00  0.00    +0.000 A 
ATOM     23  O   UNL     1       9.664  11.538  21.376  0.00  0.00    +0.000 OA
ATOM     24  N   UNL     1       9.664  12.265  19.184  0.00  0.00    +0.000 N 
ATOM     25  C   UNL     1      10.061  11.798  17.963  0.00  0.00    +0.000 A 
ATOM     26  N   UNL     1       9.685  10.673  17.477  0.00  0.00    +0.000 NA
ATOM     27  S   UNL     1      10.968  13.057  17.127  0.00  0.00    +0.000 S 
ATOM     28  C   UNL     1      10.157  14.280  18.148  0.00  0.00    +0.000 A 
ATOM     29  C   UNL     1       9.920  15.594  17.789  0.00  0.00    +0.000 A 
ATOM     30  C   UNL     1       8.806  16.220  18.345  0.00  0.00    +0.000 A 
ATOM     31  C   UNL     1       8.012  15.557  19.299  0.00  0.00    +0.000 A 
ATOM     32  C   UNL     1       8.365  14.285  19.775  0.00  0.00    +0.000 A 
ATOM     33  C   UNL     1       9.444  13.648  19.177  0.00  0.00    +0.000 A 
ENDBRANCH  19  20
ENDBRANCH  18  19
ENDBRANCH   1  18
TORSDOF 8
ENDMDL
MODEL 2
REMARK VINA RESULT:      -7.8      5.959      9.068
REMARK  Name = 
REMARK  10 active torsions:
REMARK  status: ('A' for Active; 'I' for Inactive)
REMARK    1  A    between atoms: C_1  and  C_2
REMARK    2  A    between atoms: C_2  and  C_3
REMARK    3  A    between atoms: C_2  and  C_4
REMARK    4  A    between atoms: C_4  and  N_5
REMARK    5  A    between atoms: C_4  and  C_15
REMARK    6  A    between atoms: C_6  and  C_8
REMARK    7  A    between atoms: C_8  and  C_9
REMARK    8  A    between atoms: C_15  and  O_17
REMARK    9  A    between atoms: O_17  and  C_18
REMARK   10  A    between atoms: C_18  and  C_19
REMARK                            x       y       z     vdW  Elec       q    Type
REMARK                         _______ _______ _______ _____ _____    ______ ____
ROOT
ATOM      1  C   UNL     1       1.255   9.364  21.771  0.00  0.00    +0.000 C 
ATOM      2  O   UNL     1       1.952   9.440  22.773  0.00  0.00    +0.000 OA
ENDROOT
BRANCH   1   3
ATOM      3  C   UNL     1       0.515  10.568  21.136  0.00  0.00    +0.000 C 
BRANCH   3   4
ATOM      4  N   UNL     1      -0.237  10.028  19.998  0.00  0.00    +0.000 N 
ATOM      5  C   UNL     1       0.037  10.467  18.719  0.00  0.00    +0.000 C 
ATOM      6  O   UNL     1       0.832  11.374  18.492  0.00  0.00    +0.000 OA
ATOM      7  H   UNL     1      -0.725   9.148  20.120  0.00  0.00    +0.000 HD
BRANCH   5   8
ATOM      8  C   UNL     1      -0.729   9.769  17.616  0.00  0.00    +0.000 C 
BRANCH   8   9
ATOM      9  C   UNL     1      -2.065  10.389  17.280  0.00  0.00    +0.000 A 
ATOM     10  C   UNL     1      -2.641  10.341  16.006  0.00  0.00    +0.000 A 
ATOM     11  C   UNL     1      -3.873  10.948  15.767  0.00  0.00    +0.000 A 
ATOM     12  C   UNL     1      -4.559  11.590  16.792  0.00  0.00    +0.000 A 
ATOM     13  C   UNL     1      -4.010  11.631  18.064  0.00  0.00    +0.000 A 
ATOM     14  C   UNL     1      -2.766  11.038  18.308  0.00  0.00    +0.000 A 
ENDBRANCH   8   9
ENDBRANCH   5   8
ENDBRANCH   3   4
BRANCH   3  16
ATOM     15  C   UNL     1      -1.078  10.339  23.102  0.00  0.00    +0.000 C 
ATOM     16  C   UNL     1      -0.425  11.316  22.108  0.00  0.00    +0.000 C 
ATOM     17  C   UNL     1      -1.534  12.058  21.357  0.00  0.00    +0.000 C 
ENDBRANCH   3  16
ENDBRANCH   1   3
BRANCH   1  18
ATOM     18  O   UNL     1       0.861   8.208  21.162  0.00  0.00    +0.000 OA
BRANCH  18  19
ATOM     19  C   UNL     1       1.636   7.009  21.387  0.00  0.00    +0.000 C 
BRANCH  19  20
ATOM     20  C   UNL     1       1.996   6.266  20.105  0.00  0.00    +0.000 A 
ATOM     21  C   UNL     1       2.178   4.933  20.100  0.00  0.00    +0.000 A 
ATOM     22  C   UNL     1       3.333   4.458  19.302  0.00  0.00    +0.000 A 
ATOM     23  O   UNL     1       3.590   3.261  19.221  0.00  0.00    +0.000 OA
ATOM     24  N   UNL     1       4.029   5.473  18.722  0.00  0.00    +0.000 N 
ATOM     25  C   UNL     1       3.327   6.585  18.349  0.00  0.00    +0.000 A 
ATOM     26  N   UNL     1       2.323   7.042  19.003  0.00  0.00    +0.000 NA
ATOM     27  S   UNL     1       4.144   7.360  16.994  0.00  0.00    +0.000 S 
ATOM     28  C   UNL     1       5.665   6.561  17.490  0.00  0.00    +0.000 A 
ATOM     29  C   UNL     1       6.938   7.043  17.251  0.00  0.00    +0.000 A 
ATOM     30  C   UNL     1       7.934   6.707  18.166  0.00  0.00    +0.000 A 
ATOM     31  C   UNL     1       7.659   5.840  19.239  0.00  0.00    +0.000 A 
ATOM     32  C   UNL     1       6.402   5.228  19.372  0.00  0.00    +0.000 A 
ATOM     33  C   UNL     1       5.402   5.610  18.487  0.00  0.00    +0.000 A 
ENDBRANCH  19  20
ENDBRANCH  18  19
ENDBRANCH   1  18
TORSDOF 8
ENDMDL
MODEL 3
REMARK VINA RESULT:      -7.7      6.662     10.227
REMARK  Name = 
REMARK  10 active torsions:
REMARK  status: ('A' for Active; 'I' for Inactive)
REMARK    1  A    between atoms: C_1  and  C_2
REMARK    2  A    between atoms: C_2  and  C_3
REMARK    3  A    between atoms: C_2  and  C_4
REMARK    4  A    between atoms: C_4  and  N_5
REMARK    5  A    between atoms: C_4  and  C_15
REMARK    6  A    between atoms: C_6  and  C_8
REMARK    7  A    between atoms: C_8  and  C_9
REMARK    8  A    between atoms: C_15  and  O_17
REMARK    9  A    between atoms: O_17  and  C_18
REMARK   10  A    between atoms: C_18  and  C_19
REMARK                            x       y       z     vdW  Elec       q    Type
REMARK                         _______ _______ _______ _____ _____    ______ ____
ROOT
ATOM      1  C   UNL     1       0.972  10.905  18.794  0.00  0.00    +0.000 C 
ATOM      2  O   UNL     1       1.598  11.690  19.493  0.00  0.00    +0.000 OA
ENDROOT
BRANCH   1   3
ATOM      3  C   UNL     1      -0.453  10.394  19.127  0.00  0.00    +0.000 C 
BRANCH   3   4
ATOM      4  N   UNL     1      -0.725  10.818  20.504  0.00  0.00    +0.000 N 
ATOM      5  C   UNL     1      -0.521   9.941  21.549  0.00  0.00    +0.000 C 
ATOM      6  O   UNL     1      -0.206   8.768  21.370  0.00  0.00    +0.000 OA
ATOM      7  H   UNL     1      -0.769  11.812  20.700  0.00  0.00    +0.000 HD
BRANCH   5   8
ATOM      8  C   UNL     1      -0.738  10.518  22.931  0.00  0.00    +0.000 C 
BRANCH   8   9
ATOM      9  C   UNL     1      -1.447  11.852  22.959  0.00  0.00    +0.000 A 
ATOM     10  C   UNL     1      -2.805  11.999  23.259  0.00  0.00    +0.000 A 
ATOM     11  C   UNL     1      -3.395  13.263  23.253  0.00  0.00    +0.000 A 
ATOM     12  C   UNL     1      -2.641  14.396  22.971  0.00  0.00    +0.000 A 
ATOM     13  C   UNL     1      -1.290  14.269  22.689  0.00  0.00    +0.000 A 
ATOM     14  C   UNL     1      -0.695  13.002  22.677  0.00  0.00    +0.000 A 
ENDBRANCH   8   9
ENDBRANCH   5   8
ENDBRANCH   3   4
BRANCH   3  16
ATOM     15  C   UNL     1      -2.423  11.975  18.857  0.00  0.00    +0.000 C 
ATOM     16  C   UNL     1      -1.550  10.911  18.168  0.00  0.00    +0.000 C 
ATOM     17  C   UNL     1      -2.456   9.775  17.686  0.00  0.00    +0.000 C 
ENDBRANCH   3  16
ENDBRANCH   1   3
BRANCH   1  18
ATOM     18  O   UNL     1       1.473  10.213  17.731  0.00  0.00    +0.000 OA
BRANCH  18  19
ATOM     19  C   UNL     1       1.299   8.779  17.694  0.00  0.00    +0.000 C 
BRANCH  19  20
ATOM     20  C   UNL     1       2.431   8.009  18.367  0.00  0.00    +0.000 A 
ATOM     21  C   UNL     1       3.582   7.758  17.720  0.00  0.00    +0.000 A 
ATOM     22  C   UNL     1       4.125   6.391  17.908  0.00  0.00    +0.000 A 
ATOM     23  O   UNL     1       5.174   6.052  17.370  0.00  0.00    +0.000 OA
ATOM     24  N   UNL     1       3.337   5.614  18.700  0.00  0.00    +0.000 N 
ATOM     25  C   UNL     1       2.637   6.235  19.696  0.00  0.00    +0.000 A 
ATOM     26  N   UNL     1       2.144   7.413  19.587  0.00  0.00    +0.000 NA
ATOM     27  S   UNL     1       2.366   5.096  21.013  0.00  0.00    +0.000 S 
ATOM     28  C   UNL     1       2.585   3.750  19.857  0.00  0.00    +0.000 A 
ATOM     29  C   UNL     1       2.020   2.494  19.973  0.00  0.00    +0.000 A 
ATOM     30  C   UNL     1       1.749   1.800  18.796  0.00  0.00    +0.000 A 
ATOM     31  C   UNL     1       2.119   2.333  17.548  0.00  0.00    +0.000 A 
ATOM     32  C   UNL     1       2.841   3.533  17.459  0.00  0.00    +0.000 A 
ATOM     33  C   UNL     1       3.059   4.243  18.632  0.00  0.00    +0.000 A 
ENDBRANCH  19  20
ENDBRANCH  18  19
ENDBRANCH   1  18
TORSDOF 8
ENDMDL
MODEL 4
REMARK VINA RESULT:      -7.5      5.738      8.753
REMARK  Name = 
REMARK  10 active torsions:
REMARK  status: ('A' for Active; 'I' for Inactive)
REMARK    1  A    between atoms: C_1  and  C_2
REMARK    2  A    between atoms: C_2  and  C_3
REMARK    3  A    between atoms: C_2  and  C_4
REMARK    4  A    between atoms: C_4  and  N_5
REMARK    5  A    between atoms: C_4  and  C_15
REMARK    6  A    between atoms: C_6  and  C_8
REMARK    7  A    between atoms: C_8  and  C_9
REMARK    8  A    between atoms: C_15  and  O_17
REMARK    9  A    between atoms: O_17  and  C_18
REMARK   10  A    between atoms: C_18  and  C_19
REMARK                            x       y       z     vdW  Elec       q    Type
REMARK                         _______ _______ _______ _____ _____    ______ ____
ROOT
ATOM      1  C   UNL     1       2.447   6.062  20.269  0.00  0.00    +0.000 C 
ATOM      2  O   UNL     1       3.648   5.943  20.471  0.00  0.00    +0.000 OA
ENDROOT
BRANCH   1   3
ATOM      3  C   UNL     1       1.787   7.341  19.693  0.00  0.00    +0.000 C 
BRANCH   3   4
ATOM      4  N   UNL     1       1.657   8.272  20.818  0.00  0.00    +0.000 N 
ATOM      5  C   UNL     1       0.432   8.449  21.428  0.00  0.00    +0.000 C 
ATOM      6  O   UNL     1      -0.594   7.925  21.006  0.00  0.00    +0.000 OA
ATOM      7  H   UNL     1       2.496   8.542  21.318  0.00  0.00    +0.000 HD
BRANCH   5   8
ATOM      8  C   UNL     1       0.437   9.356  22.640  0.00  0.00    +0.000 C 
BRANCH   8   9
ATOM      9  C   UNL     1      -0.276  10.675  22.450  0.00  0.00    +0.000 A 
ATOM     10  C   UNL     1       0.114  11.635  21.510  0.00  0.00    +0.000 A 
ATOM     11  C   UNL     1      -0.585  12.837  21.400  0.00  0.00    +0.000 A 
ATOM     12  C   UNL     1      -1.691  13.091  22.204  0.00  0.00    +0.000 A 
ATOM     13  C   UNL     1      -2.100  12.142  23.127  0.00  0.00    +0.000 A 
ATOM     14  C   UNL     1      -1.393  10.940  23.255  0.00  0.00    +0.000 A 
ENDBRANCH   8   9
ENDBRANCH   5   8
ENDBRANCH   3   4
BRANCH   3  16
ATOM     15  C   UNL     1       1.741   9.087  17.848  0.00  0.00    +0.000 C 
ATOM     16  C   UNL     1       2.576   7.992  18.533  0.00  0.00    +0.000 C 
ATOM     17  C   UNL     1       2.981   6.958  17.479  0.00  0.00    +0.000 C 
ENDBRANCH   3  16
ENDBRANCH   1   3
BRANCH   1  18
ATOM     18  O   UNL     1       1.482   5.190  20.679  0.00  0.00    +0.000 OA
BRANCH  18  19
ATOM     19  C   UNL     1       1.036   4.169  19.759  0.00  0.00    +0.000 C 
BRANCH  19  20
ATOM     20  C   UNL     1       2.168   3.307  19.209  0.00  0.00    +0.000 A 
ATOM     21  C   UNL     1       2.955   2.587  20.028  0.00  0.00    +0.000 A 
ATOM     22  C   UNL     1       4.400   2.615  19.698  0.00  0.00    +0.000 A 
ATOM     23  O   UNL     1       5.211   1.989  20.373  0.00  0.00    +0.000 OA
ATOM     24  N   UNL     1       4.681   3.394  18.618  0.00  0.00    +0.000 N 
ATOM     25  C   UNL     1       3.734   3.474  17.636  0.00  0.00    +0.000 A 
ATOM     26  N   UNL     1       2.472   3.457  17.864  0.00  0.00    +0.000 NA
ATOM     27  S   UNL     1       4.522   3.802  16.094  0.00  0.00    +0.000 S 
ATOM     28  C   UNL     1       5.917   4.480  16.984  0.00  0.00    +0.000 A 
ATOM     29  C   UNL     1       6.780   5.447  16.504  0.00  0.00    +0.000 A 
ATOM     30  C   UNL     1       7.378   6.294  17.436  0.00  0.00    +0.000 A 
ATOM     31  C   UNL     1       7.169   6.105  18.814  0.00  0.00    +0.000 A 
ATOM     32  C   UNL     1       6.423   5.016  19.290  0.00  0.00    +0.000 A 
ATOM     33  C   UNL     1       5.788   4.210  18.354  0.00  0.00    +0.000 A 
ENDBRANCH  19  20
ENDBRANCH  18  19
ENDBRANCH   1  18
TORSDOF 8
ENDMDL
MODEL 5
REMARK VINA RESULT:      -7.3      5.675      9.061
REMARK  Name = 
REMARK  10 active torsions:
REMARK  status: ('A' for Active; 'I' for Inactive)
REMARK    1  A    between atoms: C_1  and  C_2
REMARK    2  A    between atoms: C_2  and  C_3
REMARK    3  A    between atoms: C_2  and  C_4
REMARK    4  A    between atoms: C_4  and  N_5
REMARK    5  A    between atoms: C_4  and  C_15
REMARK    6  A    between atoms: C_6  and  C_8
REMARK    7  A    between atoms: C_8  and  C_9
REMARK    8  A    between atoms: C_15  and  O_17
REMARK    9  A    between atoms: O_17  and  C_18
REMARK   10  A    between atoms: C_18  and  C_19
REMARK                            x       y       z     vdW  Elec       q    Type
REMARK                         _______ _______ _______ _____ _____    ______ ____
ROOT
ATOM      1  C   UNL     1       1.985   7.445  19.633  0.00  0.00    +0.000 C 
ATOM      2  O   UNL     1       2.530   7.464  18.538  0.00  0.00    +0.000 OA
ENDROOT
BRANCH   1   3
ATOM      3  C   UNL     1       1.417   8.700  20.342  0.00  0.00    +0.000 C 
BRANCH   3   4
ATOM      4  N   UNL     1       0.309   9.172  19.505  0.00  0.00    +0.000 N 
ATOM      5  C   UNL     1       0.342  10.443  18.970  0.00  0.00    +0.000 C 
ATOM      6  O   UNL     1       1.227  11.249  19.243  0.00  0.00    +0.000 OA
ATOM      7  H   UNL     1      -0.307   8.482  19.091  0.00  0.00    +0.000 HD
BRANCH   5   8
ATOM      8  C   UNL     1      -0.804  10.786  18.042  0.00  0.00    +0.000 C 
BRANCH   8   9
ATOM      9  C   UNL     1      -2.004  11.408  18.718  0.00  0.00    +0.000 A 
ATOM     10  C   UNL     1      -3.296  11.372  18.184  0.00  0.00    +0.000 A 
ATOM     11  C   UNL     1      -4.355  11.980  18.859  0.00  0.00    +0.000 A 
ATOM     12  C   UNL     1      -4.148  12.611  20.080  0.00  0.00    +0.000 A 
ATOM     13  C   UNL     1      -2.877  12.640  20.631  0.00  0.00    +0.000 A 
ATOM     14  C   UNL     1      -1.806  12.046  19.952  0.00  0.00    +0.000 A 
ENDBRANCH   8   9
ENDBRANCH   5   8
ENDBRANCH   3   4
BRANCH   3  16
ATOM     15  C   UNL     1      -0.594   8.538  21.886  0.00  0.00    +0.000 C 
ATOM     16  C   UNL     1       0.939   8.446  21.790  0.00  0.00    +0.000 C 
ATOM     17  C   UNL     1       1.549   9.455  22.768  0.00  0.00    +0.000 C 
ENDBRANCH   3  16
ENDBRANCH   1   3
BRANCH   1  18
ATOM     18  O   UNL     1       1.951   6.379  20.485  0.00  0.00    +0.000 OA
BRANCH  18  19
ATOM     19  C   UNL     1       1.311   5.161  20.043  0.00  0.00    +0.000 C 
BRANCH  19  20
ATOM     20  C   UNL     1       2.270   4.168  19.394  0.00  0.00    +0.000 A 
ATOM     21  C   UNL     1       2.987   3.306  20.137  0.00  0.00    +0.000 A 
ATOM     22  C   UNL     1       4.399   3.138  19.718  0.00  0.00    +0.000 A 
ATOM     23  O   UNL     1       5.146   2.372  20.320  0.00  0.00    +0.000 OA
ATOM     24  N   UNL     1       4.730   3.914  18.651  0.00  0.00    +0.000 N 
ATOM     25  C   UNL     1       3.752   4.174  17.733  0.00  0.00    +0.000 A 
ATOM     26  N   UNL     1       2.517   4.331  18.039  0.00  0.00    +0.000 NA
ATOM     27  S   UNL     1       4.492   4.451  16.158  0.00  0.00    +0.000 S 
ATOM     28  C   UNL     1       6.019   4.879  16.982  0.00  0.00    +0.000 A 
ATOM     29  C   UNL     1       6.987   5.731  16.483  0.00  0.00    +0.000 A 
ATOM     30  C   UNL     1       7.756   6.440  17.405  0.00  0.00    +0.000 A 
ATOM     31  C   UNL     1       7.599   6.223  18.786  0.00  0.00    +0.000 A 
ATOM     32  C   UNL     1       6.728   5.234  19.269  0.00  0.00    +0.000 A 
ATOM     33  C   UNL     1       5.929   4.571  18.347  0.00  0.00    +0.000 A 
ENDBRANCH  19  20
ENDBRANCH  18  19
ENDBRANCH   1  18
TORSDOF 8
ENDMDL
MODEL 6
REMARK VINA RESULT:      -7.2      7.394     10.739
REMARK  Name = 
REMARK  10 active torsions:
REMARK  status: ('A' for Active; 'I' for Inactive)
REMARK    1  A    between atoms: C_1  and  C_2
REMARK    2  A    between atoms: C_2  and  C_3
REMARK    3  A    between atoms: C_2  and  C_4
REMARK    4  A    between atoms: C_4  and  N_5
REMARK    5  A    between atoms: C_4  and  C_15
REMARK    6  A    between atoms: C_6  and  C_8
REMARK    7  A    between atoms: C_8  and  C_9
REMARK    8  A    between atoms: C_15  and  O_17
REMARK    9  A    between atoms: O_17  and  C_18
REMARK   10  A    between atoms: C_18  and  C_19
REMARK                            x       y       z     vdW  Elec       q    Type
REMARK                         _______ _______ _______ _____ _____    ______ ____
ROOT
ATOM      1  C   UNL     1      -0.138  10.318  18.281  0.00  0.00    +0.000 C 
ATOM      2  O   UNL     1      -1.070   9.942  17.582  0.00  0.00    +0.000 OA
ENDROOT
BRANCH   1   3
ATOM      3  C   UNL     1      -0.255  11.424  19.360  0.00  0.00    +0.000 C 
BRANCH   3   4
ATOM      4  N   UNL     1      -1.674  11.488  19.723  0.00  0.00    +0.000 N 
ATOM      5  C   UNL     1      -2.280  12.711  19.926  0.00  0.00    +0.000 C 
ATOM      6  O   UNL     1      -1.653  13.766  19.909  0.00  0.00    +0.000 OA
ATOM      7  H   UNL     1      -2.255  10.680  19.533  0.00  0.00    +0.000 HD
BRANCH   5   8
ATOM      8  C   UNL     1      -3.768  12.660  20.197  0.00  0.00    +0.000 C 
BRANCH   8   9
ATOM      9  C   UNL     1      -4.150  12.709  21.658  0.00  0.00    +0.000 A 
ATOM     10  C   UNL     1      -5.447  12.973  22.109  0.00  0.00    +0.000 A 
ATOM     11  C   UNL     1      -5.723  13.015  23.476  0.00  0.00    +0.000 A 
ATOM     12  C   UNL     1      -4.721  12.774  24.409  0.00  0.00    +0.000 A 
ATOM     13  C   UNL     1      -3.435  12.493  23.978  0.00  0.00    +0.000 A 
ATOM     14  C   UNL     1      -3.147  12.466  22.608  0.00  0.00    +0.000 A 
ENDBRANCH   8   9
ENDBRANCH   5   8
ENDBRANCH   3   4
BRANCH   3  16
ATOM     15  C   UNL     1      -0.225  10.626  21.772  0.00  0.00    +0.000 C 
ATOM     16  C   UNL     1       0.619  11.182  20.612  0.00  0.00    +0.000 C 
ATOM     17  C   UNL     1       1.301  12.470  21.080  0.00  0.00    +0.000 C 
ENDBRANCH   3  16
ENDBRANCH   1   3
BRANCH   1  18
ATOM     18  O   UNL     1       1.172   9.976  18.111  0.00  0.00    +0.000 OA
BRANCH  18  19
ATOM     19  C   UNL     1       1.480   8.689  17.531  0.00  0.00    +0.000 C 
BRANCH  19  20
ATOM     20  C   UNL     1       2.559   7.921  18.290  0.00  0.00    +0.000 A 
ATOM     21  C   UNL     1       3.744   7.640  17.719  0.00  0.00    +0.000 A 
ATOM     22  C   UNL     1       4.255   6.272  17.972  0.00  0.00    +0.000 A 
ATOM     23  O   UNL     1       5.331   5.907  17.506  0.00  0.00    +0.000 OA
ATOM     24  N   UNL     1       3.410   5.523  18.731  0.00  0.00    +0.000 N 
ATOM     25  C   UNL     1       2.659   6.176  19.668  0.00  0.00    +0.000 A 
ATOM     26  N   UNL     1       2.190   7.358  19.502  0.00  0.00    +0.000 NA
ATOM     27  S   UNL     1       2.294   5.072  20.991  0.00  0.00    +0.000 S 
ATOM     28  C   UNL     1       2.563   3.696  19.882  0.00  0.00    +0.000 A 
ATOM     29  C   UNL     1       1.975   2.450  19.993  0.00  0.00    +0.000 A 
ATOM     30  C   UNL     1       1.767   1.732  18.817  0.00  0.00    +0.000 A 
ATOM     31  C   UNL     1       2.219   2.231  17.582  0.00  0.00    +0.000 A 
ATOM     32  C   UNL     1       2.961   3.420  17.510  0.00  0.00    +0.000 A 
ATOM     33  C   UNL     1       3.118   4.155  18.678  0.00  0.00    +0.000 A 
ENDBRANCH  19  20
ENDBRANCH  18  19
ENDBRANCH   1  18
TORSDOF 8
ENDMDL
MODEL 7
REMARK VINA RESULT:      -7.2      7.159     10.772
REMARK  Name = 
REMARK  10 active torsions:
REMARK  status: ('A' for Active; 'I' for Inactive)
REMARK    1  A    between atoms: C_1  and  C_2
REMARK    2  A    between atoms: C_2  and  C_3
REMARK    3  A    between atoms: C_2  and  C_4
REMARK    4  A    between atoms: C_4  and  N_5
REMARK    5  A    between atoms: C_4  and  C_15
REMARK    6  A    between atoms: C_6  and  C_8
REMARK    7  A    between atoms: C_8  and  C_9
REMARK    8  A    between atoms: C_15  and  O_17
REMARK    9  A    between atoms: O_17  and  C_18
REMARK   10  A    between atoms: C_18  and  C_19
REMARK                            x       y       z     vdW  Elec       q    Type
REMARK                         _______ _______ _______ _____ _____    ______ ____
ROOT
ATOM      1  C   UNL     1      -0.057  10.253  19.311  0.00  0.00    +0.000 C 
ATOM      2  O   UNL     1      -1.153  10.127  18.782  0.00  0.00    +0.000 OA
ENDROOT
BRANCH   1   3
ATOM      3  C   UNL     1       0.152  10.745  20.766  0.00  0.00    +0.000 C 
BRANCH   3   4
ATOM      4  N   UNL     1      -0.821  11.822  20.974  0.00  0.00    +0.000 N 
ATOM      5  C   UNL     1      -0.397  13.061  21.408  0.00  0.00    +0.000 C 
ATOM      6  O   UNL     1       0.768  13.282  21.726  0.00  0.00    +0.000 OA
ATOM      7  H   UNL     1      -1.726  11.744  20.524  0.00  0.00    +0.000 HD
BRANCH   5   8
ATOM      8  C   UNL     1      -1.473  14.122  21.491  0.00  0.00    +0.000 C 
BRANCH   8   9
ATOM      9  C   UNL     1      -2.727  13.700  22.222  0.00  0.00    +0.000 A 
ATOM     10  C   UNL     1      -3.969  13.545  21.598  0.00  0.00    +0.000 A 
ATOM     11  C   UNL     1      -5.087  13.165  22.341  0.00  0.00    +0.000 A 
ATOM     12  C   UNL     1      -4.981  12.913  23.704  0.00  0.00    +0.000 A 
ATOM     13  C   UNL     1      -3.753  13.046  24.333  0.00  0.00    +0.000 A 
ATOM     14  C   UNL     1      -2.630  13.443  23.597  0.00  0.00    +0.000 A 
ENDBRANCH   8   9
ENDBRANCH   5   8
ENDBRANCH   3   4
BRANCH   3  16
ATOM     15  C   UNL     1      -0.846  10.154  23.027  0.00  0.00    +0.000 C 
ATOM     16  C   UNL     1      -0.016   9.642  21.836  0.00  0.00    +0.000 C 
ATOM     17  C   UNL     1       1.338   9.156  22.360  0.00  0.00    +0.000 C 
ENDBRANCH   3  16
ENDBRANCH   1   3
BRANCH   1  18
ATOM     18  O   UNL     1       1.148  10.170  18.675  0.00  0.00    +0.000 OA
BRANCH  18  19
ATOM     19  C   UNL     1       1.401   9.031  17.822  0.00  0.00    +0.000 C 
BRANCH  19  20
ATOM     20  C   UNL     1       2.474   8.091  18.362  0.00  0.00    +0.000 A 
ATOM     21  C   UNL     1       3.449   7.618  17.566  0.00  0.00    +0.000 A 
ATOM     22  C   UNL     1       3.770   6.182  17.749  0.00  0.00    +0.000 A 
ATOM     23  O   UNL     1       4.648   5.644  17.081  0.00  0.00    +0.000 OA
ATOM     24  N   UNL     1       2.993   5.582  18.691  0.00  0.00    +0.000 N 
ATOM     25  C   UNL     1       2.575   6.348  19.743  0.00  0.00    +0.000 A 
ATOM     26  N   UNL     1       2.282   7.592  19.642  0.00  0.00    +0.000 NA
ATOM     27  S   UNL     1       2.320   5.316  21.148  0.00  0.00    +0.000 S 
ATOM     28  C   UNL     1       2.119   3.919  20.051  0.00  0.00    +0.000 A 
ATOM     29  C   UNL     1       1.371   2.789  20.321  0.00  0.00    +0.000 A 
ATOM     30  C   UNL     1       0.803   2.120  19.238  0.00  0.00    +0.000 A 
ATOM     31  C   UNL     1       1.061   2.541  17.921  0.00  0.00    +0.000 A 
ATOM     32  C   UNL     1       1.956   3.589  17.658  0.00  0.00    +0.000 A 
ATOM     33  C   UNL     1       2.475   4.283  18.744  0.00  0.00    +0.000 A 
ENDBRANCH  19  20
ENDBRANCH  18  19
ENDBRANCH   1  18
TORSDOF 8
ENDMDL
MODEL 8
REMARK VINA RESULT:      -7.2      5.803      8.060
REMARK  Name = 
REMARK  10 active torsions:
REMARK  status: ('A' for Active; 'I' for Inactive)
REMARK    1  A    between atoms: C_1  and  C_2
REMARK    2  A    between atoms: C_2  and  C_3
REMARK    3  A    between atoms: C_2  and  C_4
REMARK    4  A    between atoms: C_4  and  N_5
REMARK    5  A    between atoms: C_4  and  C_15
REMARK    6  A    between atoms: C_6  and  C_8
REMARK    7  A    between atoms: C_8  and  C_9
REMARK    8  A    between atoms: C_15  and  O_17
REMARK    9  A    between atoms: O_17  and  C_18
REMARK   10  A    between atoms: C_18  and  C_19
REMARK                            x       y       z     vdW  Elec       q    Type
REMARK                         _______ _______ _______ _____ _____    ______ ____
ROOT
ATOM      1  C   UNL     1       2.133   6.833  19.477  0.00  0.00    +0.000 C 
ATOM      2  O   UNL     1       2.347   7.227  20.615  0.00  0.00    +0.000 OA
ENDROOT
BRANCH   1   3
ATOM      3  C   UNL     1       2.046   5.338  19.078  0.00  0.00    +0.000 C 
BRANCH   3   4
ATOM      4  N   UNL     1       3.361   4.988  18.530  0.00  0.00    +0.000 N 
ATOM      5  C   UNL     1       3.449   4.231  17.380  0.00  0.00    +0.000 C 
ATOM      6  O   UNL     1       2.462   3.747  16.834  0.00  0.00    +0.000 OA
ATOM      7  H   UNL     1       4.162   5.538  18.818  0.00  0.00    +0.000 HD
BRANCH   5   8
ATOM      8  C   UNL     1       4.851   4.017  16.852  0.00  0.00    +0.000 C 
BRANCH   8   9
ATOM      9  C   UNL     1       5.864   5.046  17.300  0.00  0.00    +0.000 A 
ATOM     10  C   UNL     1       5.904   6.354  16.809  0.00  0.00    +0.000 A 
ATOM     11  C   UNL     1       6.877   7.246  17.260  0.00  0.00    +0.000 A 
ATOM     12  C   UNL     1       7.805   6.858  18.219  0.00  0.00    +0.000 A 
ATOM     13  C   UNL     1       7.767   5.570  18.729  0.00  0.00    +0.000 A 
ATOM     14  C   UNL     1       6.804   4.664  18.268  0.00  0.00    +0.000 A 
ENDBRANCH   8   9
ENDBRANCH   5   8
ENDBRANCH   3   4
BRANCH   3  16
ATOM     15  C   UNL     1       2.923   3.722  20.832  0.00  0.00    +0.000 C 
ATOM     16  C   UNL     1       1.670   4.394  20.243  0.00  0.00    +0.000 C 
ATOM     17  C   UNL     1       0.699   3.300  19.788  0.00  0.00    +0.000 C 
ENDBRANCH   3  16
ENDBRANCH   1   3
BRANCH   1  18
ATOM     18  O   UNL     1       2.121   7.611  18.356  0.00  0.00    +0.000 OA
BRANCH  18  19
ATOM     19  C   UNL     1       2.029   9.045  18.511  0.00  0.00    +0.000 C 
BRANCH  19  20
ATOM     20  C   UNL     1       0.637   9.529  18.904  0.00  0.00    +0.000 A 
ATOM     21  C   UNL     1      -0.312   9.744  17.975  0.00  0.00    +0.000 A 
ATOM     22  C   UNL     1      -1.118  10.973  18.173  0.00  0.00    +0.000 A 
ATOM     23  O   UNL     1      -2.017  11.267  17.391  0.00  0.00    +0.000 OA
ATOM     24  N   UNL     1      -0.734  11.687  19.265  0.00  0.00    +0.000 N 
ATOM     25  C   UNL     1      -0.243  10.990  20.333  0.00  0.00    +0.000 A 
ATOM     26  N   UNL     1       0.461   9.924  20.221  0.00  0.00    +0.000 NA
ATOM     27  S   UNL     1      -0.558  11.895  21.812  0.00  0.00    +0.000 S 
ATOM     28  C   UNL     1      -0.676  13.390  20.839  0.00  0.00    +0.000 A 
ATOM     29  C   UNL     1      -0.398  14.666  21.292  0.00  0.00    +0.000 A 
ATOM     30  C   UNL     1       0.066  15.592  20.359  0.00  0.00    +0.000 A 
ATOM     31  C   UNL     1       0.161  15.252  18.998  0.00  0.00    +0.000 A 
ATOM     32  C   UNL     1      -0.283  14.005  18.530  0.00  0.00    +0.000 A 
ATOM     33  C   UNL     1      -0.694  13.072  19.473  0.00  0.00    +0.000 A 
ENDBRANCH  19  20
ENDBRANCH  18  19
ENDBRANCH   1  18
TORSDOF 8
ENDMDL
MODEL 9
REMARK VINA RESULT:      -7.2      7.686     10.754
REMARK  Name = 
REMARK  10 active torsions:
REMARK  status: ('A' for Active; 'I' for Inactive)
REMARK    1  A    between atoms: C_1  and  C_2
REMARK    2  A    between atoms: C_2  and  C_3
REMARK    3  A    between atoms: C_2  and  C_4
REMARK    4  A    between atoms: C_4  and  N_5
REMARK    5  A    between atoms: C_4  and  C_15
REMARK    6  A    between atoms: C_6  and  C_8
REMARK    7  A    between atoms: C_8  and  C_9
REMARK    8  A    between atoms: C_15  and  O_17
REMARK    9  A    between atoms: O_17  and  C_18
REMARK   10  A    between atoms: C_18  and  C_19
REMARK                            x       y       z     vdW  Elec       q    Type
REMARK                         _______ _______ _______ _____ _____    ______ ____
ROOT
ATOM      1  C   UNL     1      -0.864  11.079  19.423  0.00  0.00    +0.000 C 
ATOM      2  O   UNL     1      -1.236  11.396  20.544  0.00  0.00    +0.000 OA
ENDROOT
BRANCH   1   3
ATOM      3  C   UNL     1      -0.952  12.008  18.185  0.00  0.00    +0.000 C 
BRANCH   3   4
ATOM      4  N   UNL     1      -2.382  12.233  17.948  0.00  0.00    +0.000 N 
ATOM      5  C   UNL     1      -3.077  11.409  17.087  0.00  0.00    +0.000 C 
ATOM      6  O   UNL     1      -2.524  10.536  16.425  0.00  0.00    +0.000 OA
ATOM      7  H   UNL     1      -2.900  12.783  18.624  0.00  0.00    +0.000 HD
BRANCH   5   8
ATOM      8  C   UNL     1      -4.564  11.672  16.997  0.00  0.00    +0.000 C 
BRANCH   8   9
ATOM      9  C   UNL     1      -5.294  11.652  18.321  0.00  0.00    +0.000 A 
ATOM     10  C   UNL     1      -4.922  12.432  19.420  0.00  0.00    +0.000 A 
ATOM     11  C   UNL     1      -5.636  12.352  20.615  0.00  0.00    +0.000 A 
ATOM     12  C   UNL     1      -6.741  11.515  20.726  0.00  0.00    +0.000 A 
ATOM     13  C   UNL     1      -7.133  10.749  19.640  0.00  0.00    +0.000 A 
ATOM     14  C   UNL     1      -6.411  10.812  18.442  0.00  0.00    +0.000 A 
ENDBRANCH   8   9
ENDBRANCH   5   8
ENDBRANCH   3   4
BRANCH   3  16
ATOM     15  C   UNL     1       1.243  13.124  18.813  0.00  0.00    +0.000 C 
ATOM     16  C   UNL     1      -0.207  13.353  18.350  0.00  0.00    +0.000 C 
ATOM     17  C   UNL     1      -0.904  14.260  19.367  0.00  0.00    +0.000 C 
ENDBRANCH   3  16
ENDBRANCH   1   3
BRANCH   1  18
ATOM     18  O   UNL     1      -0.494   9.825  19.032  0.00  0.00    +0.000 OA
BRANCH  18  19
ATOM     19  C   UNL     1       0.554   9.689  18.046  0.00  0.00    +0.000 C 
BRANCH  19  20
ATOM     20  C   UNL     1       1.755   8.888  18.539  0.00  0.00    +0.000 A 
ATOM     21  C   UNL     1       2.774   8.584  17.715  0.00  0.00    +0.000 A 
ATOM     22  C   UNL     1       3.293   7.201  17.841  0.00  0.00    +0.000 A 
ATOM     23  O   UNL     1       4.226   6.815  17.144  0.00  0.00    +0.000 OA
ATOM     24  N   UNL     1       2.621   6.466  18.768  0.00  0.00    +0.000 N 
ATOM     25  C   UNL     1       2.118   7.129  19.853  0.00  0.00    +0.000 A 
ATOM     26  N   UNL     1       1.654   8.323  19.801  0.00  0.00    +0.000 NA
ATOM     27  S   UNL     1       2.031   6.022  21.221  0.00  0.00    +0.000 S 
ATOM     28  C   UNL     1       2.008   4.650  20.074  0.00  0.00    +0.000 A 
ATOM     29  C   UNL     1       1.428   3.418  20.310  0.00  0.00    +0.000 A 
ATOM     30  C   UNL     1       0.941   2.716  19.209  0.00  0.00    +0.000 A 
ATOM     31  C   UNL     1       1.117   3.215  17.905  0.00  0.00    +0.000 A 
ATOM     32  C   UNL     1       1.854   4.386  17.672  0.00  0.00    +0.000 A 
ATOM     33  C   UNL     1       2.289   5.106  18.777  0.00  0.00    +0.000 A 
ENDBRANCH  19  20
ENDBRANCH  18  19
ENDBRANCH   1  18
TORSDOF 8
ENDMDL
