MODEL 1
REMARK VINA RESULT:      -7.6      0.000      0.000
REMARK  Name = 
REMARK  9 active torsions:
REMARK  status: ('A' for Active; 'I' for Inactive)
REMARK    1  A    between atoms: C_1  and  N_2
REMARK    2  A    between atoms: N_2  and  C_3
REMARK    3  A    between atoms: N_2  and  C_4
REMARK    4  A    between atoms: C_4  and  C_5
REMARK    5  A    between atoms: C_5  and  N_6
REMARK    6  A    between atoms: N_9  and  C_10
REMARK    7  A    between atoms: C_15  and  C_16
REMARK    8  A    between atoms: C_21  and  C_22
REMARK    9  A    between atoms: C_25  and  O_26
REMARK                            x       y       z     vdW  Elec       q    Type
REMARK                         _______ _______ _______ _____ _____    ______ ____
ROOT
ATOM      1  C   UNL     1      -0.746  11.489  22.058  0.00  0.00    +0.000 A 
ATOM      2  C   UNL     1      -0.744  10.614  23.161  0.00  0.00    +0.000 A 
ATOM      3  C   UNL     1      -0.124   9.354  23.137  0.00  0.00    +0.000 A 
ATOM      4  C   UNL     1       0.511   8.954  21.963  0.00  0.00    +0.000 A 
ATOM      5  N   UNL     1       1.161   7.786  21.674  0.00  0.00    +0.000 NA
ATOM      6  C   UNL     1       1.606   7.916  20.437  0.00  0.00    +0.000 A 
ATOM      7  N   UNL     1       1.223   9.129  19.917  0.00  0.00    +0.000 N 
ATOM      8  C   UNL     1       0.523   9.810  20.876  0.00  0.00    +0.000 A 
ATOM      9  C   UNL     1      -0.086  11.068  20.886  0.00  0.00    +0.000 A 
ATOM     10  H   UNL     1       1.404   9.448  18.977  0.00  0.00    +0.000 HD
ENDROOT
BRANCH   6  11
ATOM     11  C   UNL     1       2.363   6.906  19.705  0.00  0.00    +0.000 A 
ATOM     12  C   UNL     1       2.528   5.598  20.191  0.00  0.00    +0.000 A 
ATOM     13  C   UNL     1       3.222   4.628  19.448  0.00  0.00    +0.000 A 
ATOM     14  C   UNL     1       3.759   4.990  18.205  0.00  0.00    +0.000 A 
ATOM     15  N   UNL     1       4.457   4.243  17.290  0.00  0.00    +0.000 NA
ATOM     16  C   UNL     1       4.756   5.068  16.302  0.00  0.00    +0.000 A 
ATOM     17  N   UNL     1       4.222   6.312  16.543  0.00  0.00    +0.000 N 
ATOM     18  C   UNL     1       3.593   6.289  17.755  0.00  0.00    +0.000 A 
ATOM     19  C   UNL     1       2.904   7.270  18.462  0.00  0.00    +0.000 A 
ATOM     20  H   UNL     1       4.272   7.104  15.921  0.00  0.00    +0.000 HD
BRANCH  16  21
ATOM     21  C   UNL     1       5.513   4.754  15.094  0.00  0.00    +0.000 A 
ATOM     22  C   UNL     1       6.819   5.243  14.942  0.00  0.00    +0.000 A 
ATOM     23  C   UNL     1       7.565   4.945  13.798  0.00  0.00    +0.000 A 
ATOM     24  C   UNL     1       6.993   4.164  12.797  0.00  0.00    +0.000 A 
ATOM     25  C   UNL     1       5.697   3.679  12.923  0.00  0.00    +0.000 A 
ATOM     26  C   UNL     1       4.957   3.972  14.068  0.00  0.00    +0.000 A 
BRANCH  24  27
ATOM     27  O   UNL     1       7.677   3.849  11.664  0.00  0.00    +0.000 OA
ATOM     28  H   UNL     1       7.048   3.813  10.925  0.00  0.00    +0.000 HD
ENDBRANCH  24  27
ENDBRANCH  16  21
ENDBRANCH   6  11
BRANCH   1  32
ATOM     29  N   UNL     1      -1.629  15.624  21.632  0.00  0.00    +0.000 NA
ATOM     30  C   UNL     1      -0.822  15.074  22.742  0.00  0.00    +0.000 C 
ATOM     31  C   UNL     1      -1.176  13.646  23.241  0.00  0.00    +0.000 C 
ATOM     32  N   UNL     1      -1.379  12.721  22.114  0.00  0.00    +0.000 N 
ATOM     33  C   UNL     1      -2.208  13.231  21.016  0.00  0.00    +0.000 C 
ATOM     34  C   UNL     1      -1.680  14.604  20.554  0.00  0.00    +0.000 C 
BRANCH  29  35
ATOM     35  C   UNL     1      -3.003  15.995  22.017  0.00  0.00    +0.000 C 
BRANCH  35  36
ATOM     36  C   UNL     1      -3.141  16.616  23.419  0.00  0.00    +0.000 C 
BRANCH  36  38
ATOM     37  C   UNL     1      -4.951  17.080  24.936  0.00  0.00    +0.000 C 
ATOM     38  N   UNL     1      -4.234  16.019  24.223  0.00  0.00    +0.000 NA
ATOM     39  C   UNL     1      -5.185  15.259  23.407  0.00  0.00    +0.000 C 
ENDBRANCH  36  38
ENDBRANCH  35  36
ENDBRANCH  29  35
ENDBRANCH   1  32
TORSDOF 7
ENDMDL
MODEL 2
REMARK VINA RESULT:      -7.5      3.934     13.052
REMARK  Name = 
REMARK  9 active torsions:
REMARK  status: ('A' for Active; 'I' for Inactive)
REMARK    1  A    between atoms: C_1  and  N_2
REMARK    2  A    between atoms: N_2  and  C_3
REMARK    3  A    between atoms: N_2  and  C_4
REMARK    4  A    between atoms: C_4  and  C_5
REMARK    5  A    between atoms: C_5  and  N_6
REMARK    6  A    between atoms: N_9  and  C_10
REMARK    7  A    between atoms: C_15  and  C_16
REMARK    8  A    between atoms: C_21  and  C_22
REMARK    9  A    between atoms: C_25  and  O_26
REMARK                            x       y       z     vdW  Elec       q    Type
REMARK                         _______ _______ _______ _____ _____    ______ ____
ROOT
ATOM      1  C   UNL     1       3.666   6.207  17.936  0.00  0.00    +0.000 A 
ATOM      2  C   UNL     1       3.433   5.337  19.018  0.00  0.00    +0.000 A 
ATOM      3  C   UNL     1       2.616   5.676  20.110  0.00  0.00    +0.000 A 
ATOM      4  C   UNL     1       2.018   6.934  20.120  0.00  0.00    +0.000 A 
ATOM      5  N   UNL     1       1.208   7.511  21.059  0.00  0.00    +0.000 NA
ATOM      6  C   UNL     1       0.891   8.700  20.582  0.00  0.00    +0.000 A 
ATOM      7  N   UNL     1       1.509   8.911  19.373  0.00  0.00    +0.000 N 
ATOM      8  C   UNL     1       2.235   7.794  19.057  0.00  0.00    +0.000 A 
ATOM      9  C   UNL     1       3.041   7.469  17.963  0.00  0.00    +0.000 A 
ATOM     10  H   UNL     1       1.458   9.757  18.827  0.00  0.00    +0.000 HD
ENDROOT
BRANCH   6  11
ATOM     11  C   UNL     1       0.036   9.675  21.253  0.00  0.00    +0.000 A 
ATOM     12  C   UNL     1      -0.312   9.556  22.608  0.00  0.00    +0.000 A 
ATOM     13  C   UNL     1      -1.098  10.530  23.246  0.00  0.00    +0.000 A 
ATOM     14  C   UNL     1      -1.539  11.632  22.501  0.00  0.00    +0.000 A 
ATOM     15  N   UNL     1      -2.294  12.713  22.879  0.00  0.00    +0.000 NA
ATOM     16  C   UNL     1      -2.449  13.446  21.791  0.00  0.00    +0.000 A 
ATOM     17  N   UNL     1      -1.768  12.882  20.737  0.00  0.00    +0.000 N 
ATOM     18  C   UNL     1      -1.191  11.720  21.163  0.00  0.00    +0.000 A 
ATOM     19  C   UNL     1      -0.408  10.777  20.504  0.00  0.00    +0.000 A 
ATOM     20  H   UNL     1      -1.694  13.271  19.810  0.00  0.00    +0.000 HD
BRANCH  16  21
ATOM     21  C   UNL     1      -3.197  14.695  21.671  0.00  0.00    +0.000 A 
ATOM     22  C   UNL     1      -4.537  14.668  21.260  0.00  0.00    +0.000 A 
ATOM     23  C   UNL     1      -5.274  15.851  21.149  0.00  0.00    +0.000 A 
ATOM     24  C   UNL     1      -4.658  17.065  21.440  0.00  0.00    +0.000 A 
ATOM     25  C   UNL     1      -3.328  17.115  21.838  0.00  0.00    +0.000 A 
ATOM     26  C   UNL     1      -2.597  15.932  21.954  0.00  0.00    +0.000 A 
BRANCH  24  27
ATOM     27  O   UNL     1      -5.332  18.244  21.344  0.00  0.00    +0.000 OA
ATOM     28  H   UNL     1      -6.107  18.110  20.775  0.00  0.00    +0.000 HD
ENDBRANCH  24  27
ENDBRANCH  16  21
ENDBRANCH   6  11
BRANCH   1  32
ATOM     29  N   UNL     1       6.879   4.613  15.656  0.00  0.00    +0.000 NA
ATOM     30  C   UNL     1       6.914   5.949  16.289  0.00  0.00    +0.000 C 
ATOM     31  C   UNL     1       5.570   6.719  16.402  0.00  0.00    +0.000 C 
ATOM     32  N   UNL     1       4.489   5.842  16.882  0.00  0.00    +0.000 N 
ATOM     33  C   UNL     1       4.411   4.524  16.241  0.00  0.00    +0.000 C 
ATOM     34  C   UNL     1       5.788   3.833  16.294  0.00  0.00    +0.000 C 
BRANCH  29  35
ATOM     35  C   UNL     1       6.664   4.647  14.198  0.00  0.00    +0.000 C 
BRANCH  35  36
ATOM     36  C   UNL     1       6.239   3.307  13.570  0.00  0.00    +0.000 C 
BRANCH  36  38
ATOM     37  C   UNL     1       6.747   2.285  11.451  0.00  0.00    +0.000 C 
ATOM     38  N   UNL     1       6.028   3.383  12.105  0.00  0.00    +0.000 NA
ATOM     39  C   UNL     1       4.612   3.319  11.734  0.00  0.00    +0.000 C 
ENDBRANCH  36  38
ENDBRANCH  35  36
ENDBRANCH  29  35
ENDBRANCH   1  32
TORSDOF 7
ENDMDL
MODEL 3
REMARK VINA RESULT:      -7.4      0.970      1.547
REMARK  Name = 
REMARK  9 active torsions:
REMARK  status: ('A' for Active; 'I' for Inactive)
REMARK    1  A    between atoms: C_1  and  N_2
REMARK    2  A    between atoms: N_2  and  C_3
REMARK    3  A    between atoms: N_2  and  C_4
REMARK    4  A    between atoms: C_4  and  C_5
REMARK    5  A    between atoms: C_5  and  N_6
REMARK    6  A    between atoms: N_9  and  C_10
REMARK    7  A    between atoms: C_15  and  C_16
REMARK    8  A    between atoms: C_21  and  C_22
REMARK    9  A    between atoms: C_25  and  O_26
REMARK                            x       y       z     vdW  Elec       q    Type
REMARK                         _______ _______ _______ _____ _____    ______ ____
ROOT
ATOM      1  C   UNL     1      -1.147  11.542  21.896  0.00  0.00    +0.000 A 
ATOM      2  C   UNL     1      -0.953  10.812  23.084  0.00  0.00    +0.000 A 
ATOM      3  C   UNL     1      -0.189   9.635  23.143  0.00  0.00    +0.000 A 
ATOM      4  C   UNL     1       0.395   9.168  21.967  0.00  0.00    +0.000 A 
ATOM      5  N   UNL     1       1.157   8.054  21.750  0.00  0.00    +0.000 NA
ATOM      6  C   UNL     1       1.483   8.081  20.471  0.00  0.00    +0.000 A 
ATOM      7  N   UNL     1       0.917   9.173  19.857  0.00  0.00    +0.000 N 
ATOM      8  C   UNL     1       0.217   9.883  20.795  0.00  0.00    +0.000 A 
ATOM      9  C   UNL     1      -0.536  11.057  20.722  0.00  0.00    +0.000 A 
ATOM     10  H   UNL     1       0.983   9.394  18.875  0.00  0.00    +0.000 HD
ENDROOT
BRANCH   6  11
ATOM     11  C   UNL     1       2.297   7.080  19.788  0.00  0.00    +0.000 A 
ATOM     12  C   UNL     1       2.575   5.828  20.360  0.00  0.00    +0.000 A 
ATOM     13  C   UNL     1       3.322   4.861  19.666  0.00  0.00    +0.000 A 
ATOM     14  C   UNL     1       3.795   5.170  18.384  0.00  0.00    +0.000 A 
ATOM     15  N   UNL     1       4.525   4.413  17.501  0.00  0.00    +0.000 NA
ATOM     16  C   UNL     1       4.731   5.183  16.448  0.00  0.00    +0.000 A 
ATOM     17  N   UNL     1       4.108   6.397  16.617  0.00  0.00    +0.000 N 
ATOM     18  C   UNL     1       3.516   6.416  17.847  0.00  0.00    +0.000 A 
ATOM     19  C   UNL     1       2.773   7.392  18.505  0.00  0.00    +0.000 A 
ATOM     20  H   UNL     1       4.080   7.143  15.939  0.00  0.00    +0.000 HD
BRANCH  16  21
ATOM     21  C   UNL     1       5.478   4.839  15.241  0.00  0.00    +0.000 A 
ATOM     22  C   UNL     1       6.792   5.298  15.079  0.00  0.00    +0.000 A 
ATOM     23  C   UNL     1       7.527   4.972  13.936  0.00  0.00    +0.000 A 
ATOM     24  C   UNL     1       6.936   4.191  12.947  0.00  0.00    +0.000 A 
ATOM     25  C   UNL     1       5.631   3.735  13.082  0.00  0.00    +0.000 A 
ATOM     26  C   UNL     1       4.901   4.057  14.227  0.00  0.00    +0.000 A 
BRANCH  24  27
ATOM     27  O   UNL     1       7.609   3.849  11.814  0.00  0.00    +0.000 OA
ATOM     28  H   UNL     1       7.880   2.919  11.887  0.00  0.00    +0.000 HD
ENDBRANCH  24  27
ENDBRANCH  16  21
ENDBRANCH   6  11
BRANCH   1  32
ATOM     29  N   UNL     1      -4.263  14.355  22.558  0.00  0.00    +0.000 NA
ATOM     30  C   UNL     1      -4.304  13.329  21.493  0.00  0.00    +0.000 C 
ATOM     31  C   UNL     1      -2.952  12.915  20.850  0.00  0.00    +0.000 C 
ATOM     32  N   UNL     1      -1.918  12.693  21.874  0.00  0.00    +0.000 N 
ATOM     33  C   UNL     1      -1.833  13.718  22.922  0.00  0.00    +0.000 C 
ATOM     34  C   UNL     1      -3.226  13.951  23.541  0.00  0.00    +0.000 C 
BRANCH  29  35
ATOM     35  C   UNL     1      -3.968  15.714  22.069  0.00  0.00    +0.000 C 
BRANCH  35  36
ATOM     36  C   UNL     1      -4.054  16.822  23.134  0.00  0.00    +0.000 C 
BRANCH  36  38
ATOM     37  C   UNL     1      -2.148  17.382  24.494  0.00  0.00    +0.000 C 
ATOM     38  N   UNL     1      -2.827  17.650  23.223  0.00  0.00    +0.000 NA
ATOM     39  C   UNL     1      -1.896  17.401  22.119  0.00  0.00    +0.000 C 
ENDBRANCH  36  38
ENDBRANCH  35  36
ENDBRANCH  29  35
ENDBRANCH   1  32
TORSDOF 7
ENDMDL
MODEL 4
REMARK VINA RESULT:      -7.2      4.238     13.437
REMARK  Name = 
REMARK  9 active torsions:
REMARK  status: ('A' for Active; 'I' for Inactive)
REMARK    1  A    between atoms: C_1  and  N_2
REMARK    2  A    between atoms: N_2  and  C_3
REMARK    3  A    between atoms: N_2  and  C_4
REMARK    4  A    between atoms: C_4  and  C_5
REMARK    5  A    between atoms: C_5  and  N_6
REMARK    6  A    between atoms: N_9  and  C_10
REMARK    7  A    between atoms: C_15  and  C_16
REMARK    8  A    between atoms: C_21  and  C_22
REMARK    9  A    between atoms: C_25  and  O_26
REMARK                            x       y       z     vdW  Elec       q    Type
REMARK                         _______ _______ _______ _____ _____    ______ ____
ROOT
ATOM      1  C   UNL     1       3.178   6.809  18.121  0.00  0.00    +0.000 A 
ATOM      2  C   UNL     1       2.713   6.368  19.375  0.00  0.00    +0.000 A 
ATOM      3  C   UNL     1       1.923   7.164  20.221  0.00  0.00    +0.000 A 
ATOM      4  C   UNL     1       1.594   8.450  19.798  0.00  0.00    +0.000 A 
ATOM      5  N   UNL     1       0.867   9.420  20.431  0.00  0.00    +0.000 NA
ATOM      6  C   UNL     1       0.825  10.443  19.598  0.00  0.00    +0.000 A 
ATOM      7  N   UNL     1       1.539  10.160  18.458  0.00  0.00    +0.000 N 
ATOM      8  C   UNL     1       2.039   8.890  18.564  0.00  0.00    +0.000 A 
ATOM      9  C   UNL     1       2.822   8.108  17.710  0.00  0.00    +0.000 A 
ATOM     10  H   UNL     1       1.692  10.793  17.688  0.00  0.00    +0.000 HD
ENDROOT
BRANCH   6  11
ATOM     11  C   UNL     1       0.151  11.711  19.855  0.00  0.00    +0.000 A 
ATOM     12  C   UNL     1       0.053  12.717  18.880  0.00  0.00    +0.000 A 
ATOM     13  C   UNL     1      -0.641  13.912  19.133  0.00  0.00    +0.000 A 
ATOM     14  C   UNL     1      -1.235  14.091  20.390  0.00  0.00    +0.000 A 
ATOM     15  N   UNL     1      -1.969  15.141  20.882  0.00  0.00    +0.000 NA
ATOM     16  C   UNL     1      -2.270  14.819  22.128  0.00  0.00    +0.000 A 
ATOM     17  N   UNL     1      -1.787  13.567  22.426  0.00  0.00    +0.000 N 
ATOM     18  C   UNL     1      -1.114  13.088  21.338  0.00  0.00    +0.000 A 
ATOM     19  C   UNL     1      -0.441  11.890  21.115  0.00  0.00    +0.000 A 
ATOM     20  H   UNL     1      -1.922  13.077  23.297  0.00  0.00    +0.000 HD
BRANCH  16  21
ATOM     21  C   UNL     1      -3.027  15.623  23.084  0.00  0.00    +0.000 A 
ATOM     22  C   UNL     1      -4.176  16.309  22.664  0.00  0.00    +0.000 A 
ATOM     23  C   UNL     1      -4.919  17.076  23.565  0.00  0.00    +0.000 A 
ATOM     24  C   UNL     1      -4.501  17.164  24.890  0.00  0.00    +0.000 A 
ATOM     25  C   UNL     1      -3.359  16.502  25.324  0.00  0.00    +0.000 A 
ATOM     26  C   UNL     1      -2.622  15.732  24.424  0.00  0.00    +0.000 A 
BRANCH  24  27
ATOM     27  O   UNL     1      -5.189  17.900  25.805  0.00  0.00    +0.000 OA
ATOM     28  H   UNL     1      -5.496  17.307  26.509  0.00  0.00    +0.000 HD
ENDBRANCH  24  27
ENDBRANCH  16  21
ENDBRANCH   6  11
BRANCH   1  32
ATOM     29  N   UNL     1       6.335   4.350  16.691  0.00  0.00    +0.000 NA
ATOM     30  C   UNL     1       6.362   5.827  16.630  0.00  0.00    +0.000 C 
ATOM     31  C   UNL     1       5.004   6.557  16.437  0.00  0.00    +0.000 C 
ATOM     32  N   UNL     1       3.966   5.999  17.319  0.00  0.00    +0.000 N 
ATOM     33  C   UNL     1       3.896   4.534  17.367  0.00  0.00    +0.000 C 
ATOM     34  C   UNL     1       5.292   3.951  17.669  0.00  0.00    +0.000 C 
BRANCH  29  35
ATOM     35  C   UNL     1       6.062   3.702  15.396  0.00  0.00    +0.000 C 
BRANCH  35  36
ATOM     36  C   UNL     1       6.773   4.337  14.187  0.00  0.00    +0.000 C 
BRANCH  36  38
ATOM     37  C   UNL     1       5.029   3.596  12.702  0.00  0.00    +0.000 C 
ATOM     38  N   UNL     1       6.480   3.653  12.905  0.00  0.00    +0.000 NA
ATOM     39  C   UNL     1       7.101   4.317  11.755  0.00  0.00    +0.000 C 
ENDBRANCH  36  38
ENDBRANCH  35  36
ENDBRANCH  29  35
ENDBRANCH   1  32
TORSDOF 7
ENDMDL
MODEL 5
REMARK VINA RESULT:      -7.2      0.833      1.345
REMARK  Name = 
REMARK  9 active torsions:
REMARK  status: ('A' for Active; 'I' for Inactive)
REMARK    1  A    between atoms: C_1  and  N_2
REMARK    2  A    between atoms: N_2  and  C_3
REMARK    3  A    between atoms: N_2  and  C_4
REMARK    4  A    between atoms: C_4  and  C_5
REMARK    5  A    between atoms: C_5  and  N_6
REMARK    6  A    between atoms: N_9  and  C_10
REMARK    7  A    between atoms: C_15  and  C_16
REMARK    8  A    between atoms: C_21  and  C_22
REMARK    9  A    between atoms: C_25  and  O_26
REMARK                            x       y       z     vdW  Elec       q    Type
REMARK                         _______ _______ _______ _____ _____    ______ ____
ROOT
ATOM      1  C   UNL     1      -0.939  11.476  21.961  0.00  0.00    +0.000 A 
ATOM      2  C   UNL     1      -0.922  10.622  23.080  0.00  0.00    +0.000 A 
ATOM      3  C   UNL     1      -0.259   9.383  23.087  0.00  0.00    +0.000 A 
ATOM      4  C   UNL     1       0.404   8.983  21.929  0.00  0.00    +0.000 A 
ATOM      5  N   UNL     1       1.096   7.833  21.670  0.00  0.00    +0.000 NA
ATOM      6  C   UNL     1       1.552   7.955  20.436  0.00  0.00    +0.000 A 
ATOM      7  N   UNL     1       1.135   9.145  19.889  0.00  0.00    +0.000 N 
ATOM      8  C   UNL     1       0.400   9.819  20.826  0.00  0.00    +0.000 A 
ATOM      9  C   UNL     1      -0.251  11.056  20.805  0.00  0.00    +0.000 A 
ATOM     10  H   UNL     1       1.317   9.452  18.945  0.00  0.00    +0.000 HD
ENDROOT
BRANCH   6  11
ATOM     11  C   UNL     1       2.352   6.958  19.732  0.00  0.00    +0.000 A 
ATOM     12  C   UNL     1       2.619   5.693  20.280  0.00  0.00    +0.000 A 
ATOM     13  C   UNL     1       3.353   4.730  19.566  0.00  0.00    +0.000 A 
ATOM     14  C   UNL     1       3.825   5.058  18.287  0.00  0.00    +0.000 A 
ATOM     15  N   UNL     1       4.543   4.309  17.389  0.00  0.00    +0.000 NA
ATOM     16  C   UNL     1       4.753   5.096  16.349  0.00  0.00    +0.000 A 
ATOM     17  N   UNL     1       4.145   6.313  16.542  0.00  0.00    +0.000 N 
ATOM     18  C   UNL     1       3.557   6.316  17.775  0.00  0.00    +0.000 A 
ATOM     19  C   UNL     1       2.827   7.288  18.453  0.00  0.00    +0.000 A 
ATOM     20  H   UNL     1       4.122   7.071  15.878  0.00  0.00    +0.000 HD
BRANCH  16  21
ATOM     21  C   UNL     1       5.492   4.765  15.133  0.00  0.00    +0.000 A 
ATOM     22  C   UNL     1       6.726   5.380  14.877  0.00  0.00    +0.000 A 
ATOM     23  C   UNL     1       7.453   5.071  13.725  0.00  0.00    +0.000 A 
ATOM     24  C   UNL     1       6.933   4.149  12.819  0.00  0.00    +0.000 A 
ATOM     25  C   UNL     1       5.707   3.538  13.047  0.00  0.00    +0.000 A 
ATOM     26  C   UNL     1       4.986   3.844  14.202  0.00  0.00    +0.000 A 
BRANCH  24  27
ATOM     27  O   UNL     1       7.602   3.817  11.681  0.00  0.00    +0.000 OA
ATOM     28  H   UNL     1       7.687   4.612  11.131  0.00  0.00    +0.000 HD
ENDBRANCH  24  27
ENDBRANCH  16  21
ENDBRANCH   6  11
BRANCH   1  32
ATOM     29  N   UNL     1      -3.930  14.445  22.501  0.00  0.00    +0.000 NA
ATOM     30  C   UNL     1      -3.837  13.593  21.296  0.00  0.00    +0.000 C 
ATOM     31  C   UNL     1      -2.419  13.149  20.845  0.00  0.00    +0.000 C 
ATOM     32  N   UNL     1      -1.614  12.686  21.987  0.00  0.00    +0.000 N 
ATOM     33  C   UNL     1      -1.661  13.536  23.182  0.00  0.00    +0.000 C 
ATOM     34  C   UNL     1      -3.127  13.808  23.575  0.00  0.00    +0.000 C 
BRANCH  29  35
ATOM     35  C   UNL     1      -3.460  15.827  22.294  0.00  0.00    +0.000 C 
BRANCH  35  36
ATOM     36  C   UNL     1      -4.563  16.849  21.968  0.00  0.00    +0.000 C 
BRANCH  36  38
ATOM     37  C   UNL     1      -6.422  16.627  23.483  0.00  0.00    +0.000 C 
ATOM     38  N   UNL     1      -5.221  17.410  23.173  0.00  0.00    +0.000 NA
ATOM     39  C   UNL     1      -4.340  17.423  24.343  0.00  0.00    +0.000 C 
ENDBRANCH  36  38
ENDBRANCH  35  36
ENDBRANCH  29  35
ENDBRANCH   1  32
TORSDOF 7
ENDMDL
MODEL 6
REMARK VINA RESULT:      -7.2      1.084      1.633
REMARK  Name = 
REMARK  9 active torsions:
REMARK  status: ('A' for Active; 'I' for Inactive)
REMARK    1  A    between atoms: C_1  and  N_2
REMARK    2  A    between atoms: N_2  and  C_3
REMARK    3  A    between atoms: N_2  and  C_4
REMARK    4  A    between atoms: C_4  and  C_5
REMARK    5  A    between atoms: C_5  and  N_6
REMARK    6  A    between atoms: N_9  and  C_10
REMARK    7  A    between atoms: C_15  and  C_16
REMARK    8  A    between atoms: C_21  and  C_22
REMARK    9  A    between atoms: C_25  and  O_26
REMARK                            x       y       z     vdW  Elec       q    Type
REMARK                         _______ _______ _______ _____ _____    ______ ____
ROOT
ATOM      1  C   UNL     1      -0.936  11.486  21.977  0.00  0.00    +0.000 A 
ATOM      2  C   UNL     1      -0.860  10.657  23.112  0.00  0.00    +0.000 A 
ATOM      3  C   UNL     1      -0.172   9.432  23.119  0.00  0.00    +0.000 A 
ATOM      4  C   UNL     1       0.455   9.020  21.945  0.00  0.00    +0.000 A 
ATOM      5  N   UNL     1       1.161   7.879  21.684  0.00  0.00    +0.000 NA
ATOM      6  C   UNL     1       1.567   7.983  20.432  0.00  0.00    +0.000 A 
ATOM      7  N   UNL     1       1.106   9.153  19.876  0.00  0.00    +0.000 N 
ATOM      8  C   UNL     1       0.393   9.833  20.826  0.00  0.00    +0.000 A 
ATOM      9  C   UNL     1      -0.283  11.055  20.805  0.00  0.00    +0.000 A 
ATOM     10  H   UNL     1       1.246   9.444  18.920  0.00  0.00    +0.000 HD
ENDROOT
BRANCH   6  11
ATOM     11  C   UNL     1       2.361   6.988  19.718  0.00  0.00    +0.000 A 
ATOM     12  C   UNL     1       2.579   5.699  20.232  0.00  0.00    +0.000 A 
ATOM     13  C   UNL     1       3.307   4.740  19.508  0.00  0.00    +0.000 A 
ATOM     14  C   UNL     1       3.824   5.095  18.254  0.00  0.00    +0.000 A 
ATOM     15  N   UNL     1       4.548   4.355  17.352  0.00  0.00    +0.000 NA
ATOM     16  C   UNL     1       4.809   5.169  16.345  0.00  0.00    +0.000 A 
ATOM     17  N   UNL     1       4.228   6.396  16.561  0.00  0.00    +0.000 N 
ATOM     18  C   UNL     1       3.605   6.376  17.776  0.00  0.00    +0.000 A 
ATOM     19  C   UNL     1       2.881   7.345  18.465  0.00  0.00    +0.000 A 
ATOM     20  H   UNL     1       4.245   7.175  15.921  0.00  0.00    +0.000 HD
BRANCH  16  21
ATOM     21  C   UNL     1       5.574   4.857  15.140  0.00  0.00    +0.000 A 
ATOM     22  C   UNL     1       5.030   4.002  14.171  0.00  0.00    +0.000 A 
ATOM     23  C   UNL     1       5.742   3.698  13.007  0.00  0.00    +0.000 A 
ATOM     24  C   UNL     1       7.008   4.247  12.821  0.00  0.00    +0.000 A 
ATOM     25  C   UNL     1       7.569   5.087  13.774  0.00  0.00    +0.000 A 
ATOM     26  C   UNL     1       6.855   5.393  14.932  0.00  0.00    +0.000 A 
BRANCH  24  27
ATOM     27  O   UNL     1       7.741   3.979  11.705  0.00  0.00    +0.000 OA
ATOM     28  H   UNL     1       7.270   3.312  11.180  0.00  0.00    +0.000 HD
ENDBRANCH  24  27
ENDBRANCH  16  21
ENDBRANCH   6  11
BRANCH   1  32
ATOM     29  N   UNL     1      -3.305  14.830  20.854  0.00  0.00    +0.000 NA
ATOM     30  C   UNL     1      -1.849  14.745  20.609  0.00  0.00    +0.000 C 
ATOM     31  C   UNL     1      -0.998  13.960  21.644  0.00  0.00    +0.000 C 
ATOM     32  N   UNL     1      -1.634  12.683  22.004  0.00  0.00    +0.000 N 
ATOM     33  C   UNL     1      -3.073  12.749  22.288  0.00  0.00    +0.000 C 
ATOM     34  C   UNL     1      -3.804  13.460  21.131  0.00  0.00    +0.000 C 
BRANCH  29  35
ATOM     35  C   UNL     1      -3.673  15.718  21.972  0.00  0.00    +0.000 C 
BRANCH  35  36
ATOM     36  C   UNL     1      -4.719  16.795  21.633  0.00  0.00    +0.000 C 
BRANCH  36  38
ATOM     37  C   UNL     1      -3.124  18.314  22.603  0.00  0.00    +0.000 C 
ATOM     38  N   UNL     1      -4.156  18.165  21.573  0.00  0.00    +0.000 NA
ATOM     39  C   UNL     1      -3.580  18.483  20.264  0.00  0.00    +0.000 C 
ENDBRANCH  36  38
ENDBRANCH  35  36
ENDBRANCH  29  35
ENDBRANCH   1  32
TORSDOF 7
ENDMDL
MODEL 7
REMARK VINA RESULT:      -7.1      0.668      1.116
REMARK  Name = 
REMARK  9 active torsions:
REMARK  status: ('A' for Active; 'I' for Inactive)
REMARK    1  A    between atoms: C_1  and  N_2
REMARK    2  A    between atoms: N_2  and  C_3
REMARK    3  A    between atoms: N_2  and  C_4
REMARK    4  A    between atoms: C_4  and  C_5
REMARK    5  A    between atoms: C_5  and  N_6
REMARK    6  A    between atoms: N_9  and  C_10
REMARK    7  A    between atoms: C_15  and  C_16
REMARK    8  A    between atoms: C_21  and  C_22
REMARK    9  A    between atoms: C_25  and  O_26
REMARK                            x       y       z     vdW  Elec       q    Type
REMARK                         _______ _______ _______ _____ _____    ______ ____
ROOT
ATOM      1  C   UNL     1      -0.955  11.593  21.937  0.00  0.00    +0.000 A 
ATOM      2  C   UNL     1      -0.894  10.767  23.076  0.00  0.00    +0.000 A 
ATOM      3  C   UNL     1      -0.215   9.537  23.093  0.00  0.00    +0.000 A 
ATOM      4  C   UNL     1       0.418   9.117  21.925  0.00  0.00    +0.000 A 
ATOM      5  N   UNL     1       1.118   7.969  21.673  0.00  0.00    +0.000 NA
ATOM      6  C   UNL     1       1.534   8.066  20.423  0.00  0.00    +0.000 A 
ATOM      7  N   UNL     1       1.086   9.237  19.860  0.00  0.00    +0.000 N 
ATOM      8  C   UNL     1       0.371   9.925  20.803  0.00  0.00    +0.000 A 
ATOM      9  C   UNL     1      -0.296  11.153  20.772  0.00  0.00    +0.000 A 
ATOM     10  H   UNL     1       1.236   9.524  18.905  0.00  0.00    +0.000 HD
ENDROOT
BRANCH   6  11
ATOM     11  C   UNL     1       2.326   7.062  19.720  0.00  0.00    +0.000 A 
ATOM     12  C   UNL     1       2.543   5.779  20.246  0.00  0.00    +0.000 A 
ATOM     13  C   UNL     1       3.270   4.812  19.532  0.00  0.00    +0.000 A 
ATOM     14  C   UNL     1       3.786   5.153  18.274  0.00  0.00    +0.000 A 
ATOM     15  N   UNL     1       4.508   4.403  17.379  0.00  0.00    +0.000 NA
ATOM     16  C   UNL     1       4.769   5.206  16.362  0.00  0.00    +0.000 A 
ATOM     17  N   UNL     1       4.189   6.436  16.566  0.00  0.00    +0.000 N 
ATOM     18  C   UNL     1       3.567   6.429  17.782  0.00  0.00    +0.000 A 
ATOM     19  C   UNL     1       2.845   7.406  18.462  0.00  0.00    +0.000 A 
ATOM     20  H   UNL     1       4.205   7.208  15.918  0.00  0.00    +0.000 HD
BRANCH  16  21
ATOM     21  C   UNL     1       5.531   4.881  15.160  0.00  0.00    +0.000 A 
ATOM     22  C   UNL     1       4.955   4.079  14.164  0.00  0.00    +0.000 A 
ATOM     23  C   UNL     1       5.665   3.764  13.002  0.00  0.00    +0.000 A 
ATOM     24  C   UNL     1       6.961   4.247  12.844  0.00  0.00    +0.000 A 
ATOM     25  C   UNL     1       7.555   5.033  13.824  0.00  0.00    +0.000 A 
ATOM     26  C   UNL     1       6.842   5.351  14.980  0.00  0.00    +0.000 A 
BRANCH  24  27
ATOM     27  O   UNL     1       7.694   3.966  11.732  0.00  0.00    +0.000 OA
ATOM     28  H   UNL     1       7.142   3.448  11.124  0.00  0.00    +0.000 HD
ENDBRANCH  24  27
ENDBRANCH  16  21
ENDBRANCH   6  11
BRANCH   1  32
ATOM     29  N   UNL     1      -1.959  15.691  22.445  0.00  0.00    +0.000 NA
ATOM     30  C   UNL     1      -2.041  14.691  23.532  0.00  0.00    +0.000 C 
ATOM     31  C   UNL     1      -2.406  13.235  23.135  0.00  0.00    +0.000 C 
ATOM     32  N   UNL     1      -1.645  12.794  21.955  0.00  0.00    +0.000 N 
ATOM     33  C   UNL     1      -1.581  13.755  20.847  0.00  0.00    +0.000 C 
ATOM     34  C   UNL     1      -1.106  15.127  21.369  0.00  0.00    +0.000 C 
BRANCH  29  35
ATOM     35  C   UNL     1      -3.268  16.070  21.882  0.00  0.00    +0.000 C 
BRANCH  35  36
ATOM     36  C   UNL     1      -3.936  17.286  22.548  0.00  0.00    +0.000 C 
BRANCH  36  38
ATOM     37  C   UNL     1      -3.279  18.584  24.466  0.00  0.00    +0.000 C 
ATOM     38  N   UNL     1      -3.811  17.291  24.025  0.00  0.00    +0.000 NA
ATOM     39  C   UNL     1      -5.086  17.040  24.701  0.00  0.00    +0.000 C 
ENDBRANCH  36  38
ENDBRANCH  35  36
ENDBRANCH  29  35
ENDBRANCH   1  32
TORSDOF 7
ENDMDL
MODEL 8
REMARK VINA RESULT:      -7.1      1.132      1.721
REMARK  Name = 
REMARK  9 active torsions:
REMARK  status: ('A' for Active; 'I' for Inactive)
REMARK    1  A    between atoms: C_1  and  N_2
REMARK    2  A    between atoms: N_2  and  C_3
REMARK    3  A    between atoms: N_2  and  C_4
REMARK    4  A    between atoms: C_4  and  C_5
REMARK    5  A    between atoms: C_5  and  N_6
REMARK    6  A    between atoms: N_9  and  C_10
REMARK    7  A    between atoms: C_15  and  C_16
REMARK    8  A    between atoms: C_21  and  C_22
REMARK    9  A    between atoms: C_25  and  O_26
REMARK                            x       y       z     vdW  Elec       q    Type
REMARK                         _______ _______ _______ _____ _____    ______ ____
ROOT
ATOM      1  C   UNL     1      -0.517  11.383  21.962  0.00  0.00    +0.000 A 
ATOM      2  C   UNL     1      -0.764  10.400  22.939  0.00  0.00    +0.000 A 
ATOM      3  C   UNL     1      -0.255   9.093  22.853  0.00  0.00    +0.000 A 
ATOM      4  C   UNL     1       0.522   8.759  21.747  0.00  0.00    +0.000 A 
ATOM      5  N   UNL     1       1.110   7.569  21.418  0.00  0.00    +0.000 NA
ATOM      6  C   UNL     1       1.755   7.785  20.286  0.00  0.00    +0.000 A 
ATOM      7  N   UNL     1       1.563   9.080  19.866  0.00  0.00    +0.000 N 
ATOM      8  C   UNL     1       0.778   9.721  20.786  0.00  0.00    +0.000 A 
ATOM      9  C   UNL     1       0.283  11.026  20.859  0.00  0.00    +0.000 A 
ATOM     10  H   UNL     1       1.917   9.478  19.009  0.00  0.00    +0.000 HD
ENDROOT
BRANCH   6  11
ATOM     11  C   UNL     1       2.532   6.788  19.556  0.00  0.00    +0.000 A 
ATOM     12  C   UNL     1       2.767   5.502  20.070  0.00  0.00    +0.000 A 
ATOM     13  C   UNL     1       3.478   4.542  19.331  0.00  0.00    +0.000 A 
ATOM     14  C   UNL     1       3.961   4.891  18.063  0.00  0.00    +0.000 A 
ATOM     15  N   UNL     1       4.662   4.150  17.146  0.00  0.00    +0.000 NA
ATOM     16  C   UNL     1       4.895   4.959  16.127  0.00  0.00    +0.000 A 
ATOM     17  N   UNL     1       4.316   6.186  16.353  0.00  0.00    +0.000 N 
ATOM     18  C   UNL     1       3.726   6.170  17.584  0.00  0.00    +0.000 A 
ATOM     19  C   UNL     1       3.018   7.140  18.288  0.00  0.00    +0.000 A 
ATOM     20  H   UNL     1       4.313   6.961  15.709  0.00  0.00    +0.000 HD
BRANCH  16  21
ATOM     21  C   UNL     1       5.628   4.644  14.904  0.00  0.00    +0.000 A 
ATOM     22  C   UNL     1       5.030   3.844  13.919  0.00  0.00    +0.000 A 
ATOM     23  C   UNL     1       5.710   3.538  12.738  0.00  0.00    +0.000 A 
ATOM     24  C   UNL     1       7.001   4.027  12.549  0.00  0.00    +0.000 A 
ATOM     25  C   UNL     1       7.615   4.811  13.518  0.00  0.00    +0.000 A 
ATOM     26  C   UNL     1       6.932   5.120  14.694  0.00  0.00    +0.000 A 
BRANCH  24  27
ATOM     27  O   UNL     1       7.705   3.755  11.417  0.00  0.00    +0.000 OA
ATOM     28  H   UNL     1       7.658   2.801  11.247  0.00  0.00    +0.000 HD
ENDBRANCH  24  27
ENDBRANCH  16  21
ENDBRANCH   6  11
BRANCH   1  32
ATOM     29  N   UNL     1      -2.492  15.049  21.112  0.00  0.00    +0.000 NA
ATOM     30  C   UNL     1      -1.081  14.783  20.757  0.00  0.00    +0.000 C 
ATOM     31  C   UNL     1      -0.271  13.855  21.704  0.00  0.00    +0.000 C 
ATOM     32  N   UNL     1      -1.046  12.659  22.074  0.00  0.00    +0.000 N 
ATOM     33  C   UNL     1      -2.439  12.903  22.467  0.00  0.00    +0.000 C 
ATOM     34  C   UNL     1      -3.148  13.745  21.387  0.00  0.00    +0.000 C 
BRANCH  29  35
ATOM     35  C   UNL     1      -2.659  15.934  22.279  0.00  0.00    +0.000 C 
BRANCH  35  36
ATOM     36  C   UNL     1      -1.599  17.043  22.412  0.00  0.00    +0.000 C 
BRANCH  36  38
ATOM     37  C   UNL     1      -1.210  15.962  24.527  0.00  0.00    +0.000 C 
ATOM     38  N   UNL     1      -1.114  17.231  23.800  0.00  0.00    +0.000 NA
ATOM     39  C   UNL     1       0.269  17.713  23.854  0.00  0.00    +0.000 C 
ENDBRANCH  36  38
ENDBRANCH  35  36
ENDBRANCH  29  35
ENDBRANCH   1  32
TORSDOF 7
ENDMDL
MODEL 9
REMARK VINA RESULT:      -7.0      1.300      1.717
REMARK  Name = 
REMARK  9 active torsions:
REMARK  status: ('A' for Active; 'I' for Inactive)
REMARK    1  A    between atoms: C_1  and  N_2
REMARK    2  A    between atoms: N_2  and  C_3
REMARK    3  A    between atoms: N_2  and  C_4
REMARK    4  A    between atoms: C_4  and  C_5
REMARK    5  A    between atoms: C_5  and  N_6
REMARK    6  A    between atoms: N_9  and  C_10
REMARK    7  A    between atoms: C_15  and  C_16
REMARK    8  A    between atoms: C_21  and  C_22
REMARK    9  A    between atoms: C_25  and  O_26
REMARK                            x       y       z     vdW  Elec       q    Type
REMARK                         _______ _______ _______ _____ _____    ______ ____
ROOT
ATOM      1  C   UNL     1      -1.201  11.592  21.796  0.00  0.00    +0.000 A 
ATOM      2  C   UNL     1      -1.025  10.869  22.991  0.00  0.00    +0.000 A 
ATOM      3  C   UNL     1      -0.251   9.700  23.070  0.00  0.00    +0.000 A 
ATOM      4  C   UNL     1       0.362   9.235  21.909  0.00  0.00    +0.000 A 
ATOM      5  N   UNL     1       1.140   8.127  21.712  0.00  0.00    +0.000 NA
ATOM      6  C   UNL     1       1.492   8.153  20.440  0.00  0.00    +0.000 A 
ATOM      7  N   UNL     1       0.928   9.237  19.811  0.00  0.00    +0.000 N 
ATOM      8  C   UNL     1       0.202   9.944  20.731  0.00  0.00    +0.000 A 
ATOM      9  C   UNL     1      -0.561  11.110  20.638  0.00  0.00    +0.000 A 
ATOM     10  H   UNL     1       1.013   9.455  18.829  0.00  0.00    +0.000 HD
ENDROOT
BRANCH   6  11
ATOM     11  C   UNL     1       2.330   7.158  19.779  0.00  0.00    +0.000 A 
ATOM     12  C   UNL     1       2.661   5.937  20.387  0.00  0.00    +0.000 A 
ATOM     13  C   UNL     1       3.430   4.973  19.715  0.00  0.00    +0.000 A 
ATOM     14  C   UNL     1       3.874   5.254  18.415  0.00  0.00    +0.000 A 
ATOM     15  N   UNL     1       4.616   4.492  17.547  0.00  0.00    +0.000 NA
ATOM     16  C   UNL     1       4.779   5.233  16.466  0.00  0.00    +0.000 A 
ATOM     17  N   UNL     1       4.118   6.430  16.604  0.00  0.00    +0.000 N 
ATOM     18  C   UNL     1       3.544   6.471  17.842  0.00  0.00    +0.000 A 
ATOM     19  C   UNL     1       2.776   7.442  18.479  0.00  0.00    +0.000 A 
ATOM     20  H   UNL     1       4.054   7.151  15.901  0.00  0.00    +0.000 HD
BRANCH  16  21
ATOM     21  C   UNL     1       5.520   4.873  15.259  0.00  0.00    +0.000 A 
ATOM     22  C   UNL     1       4.904   4.095  14.268  0.00  0.00    +0.000 A 
ATOM     23  C   UNL     1       5.592   3.748  13.102  0.00  0.00    +0.000 A 
ATOM     24  C   UNL     1       6.907   4.174  12.936  0.00  0.00    +0.000 A 
ATOM     25  C   UNL     1       7.539   4.936  13.910  0.00  0.00    +0.000 A 
ATOM     26  C   UNL     1       6.849   5.286  15.071  0.00  0.00    +0.000 A 
BRANCH  24  27
ATOM     27  O   UNL     1       7.619   3.860  11.819  0.00  0.00    +0.000 OA
ATOM     28  H   UNL     1       7.139   3.172  11.332  0.00  0.00    +0.000 HD
ENDBRANCH  24  27
ENDBRANCH  16  21
ENDBRANCH   6  11
BRANCH   1  32
ATOM     29  N   UNL     1      -2.623  15.561  22.335  0.00  0.00    +0.000 NA
ATOM     30  C   UNL     1      -2.809  14.487  23.334  0.00  0.00    +0.000 C 
ATOM     31  C   UNL     1      -2.974  13.037  22.800  0.00  0.00    +0.000 C 
ATOM     32  N   UNL     1      -1.983  12.736  21.754  0.00  0.00    +0.000 N 
ATOM     33  C   UNL     1      -1.809  13.772  20.729  0.00  0.00    +0.000 C 
ATOM     34  C   UNL     1      -1.550  15.136  21.401  0.00  0.00    +0.000 C 
BRANCH  29  35
ATOM     35  C   UNL     1      -3.840  15.880  21.567  0.00  0.00    +0.000 C 
BRANCH  35  36
ATOM     36  C   UNL     1      -3.830  17.253  20.870  0.00  0.00    +0.000 C 
BRANCH  36  38
ATOM     37  C   UNL     1      -5.647  16.925  19.326  0.00  0.00    +0.000 C 
ATOM     38  N   UNL     1      -5.177  17.719  20.465  0.00  0.00    +0.000 NA
ATOM     39  C   UNL     1      -6.157  17.627  21.552  0.00  0.00    +0.000 C 
ENDBRANCH  36  38
ENDBRANCH  35  36
ENDBRANCH  29  35
ENDBRANCH   1  32
TORSDOF 7
ENDMDL
