MODEL 1
REMARK VINA RESULT:      -7.8      0.000      0.000
REMARK  Name = 
REMARK  6 active torsions:
REMARK  status: ('A' for Active; 'I' for Inactive)
REMARK    1  A    between atoms: C_4  and  N_5
REMARK    2  A    between atoms: N_5  and  S_6
REMARK    3  A    between atoms: S_6  and  N_9
REMARK    4  A    between atoms: N_9  and  C_10
REMARK    5  A    between atoms: C_10  and  C_11
REMARK    6  A    between atoms: N_18  and  C_19
REMARK                            x       y       z     vdW  Elec       q    Type
REMARK                         _______ _______ _______ _____ _____    ______ ____
ROOT
ATOM      1  N   UNL     1       5.452   4.215  16.149  0.00  0.00    +0.000 NA
ATOM      2  H   UNL     1       4.753   4.795  15.684  0.00  0.00    +0.000 HD
ENDROOT
BRANCH   1   6
ATOM      3  O   UNL     1       1.412   4.169  17.334  0.00  0.00    +0.000 OA
ATOM      4  C   UNL     1       2.600   4.266  17.607  0.00  0.00    +0.000 C 
ATOM      5  C   UNL     1       3.566   3.121  17.467  0.00  0.00    +0.000 C 
ATOM      6  C   UNL     1       4.925   3.789  17.496  0.00  0.00    +0.000 C 
ATOM      7  C   UNL     1       4.672   5.016  18.379  0.00  0.00    +0.000 C 
ATOM      8  N   UNL     1       3.281   5.359  18.170  0.00  0.00    +0.000 N 
BRANCH   8   9
ATOM      9  C   UNL     1       2.632   6.441  18.851  0.00  0.00    +0.000 A 
ATOM     10  C   UNL     1       2.501   7.679  18.184  0.00  0.00    +0.000 A 
ATOM     11  C   UNL     1       1.836   8.770  18.754  0.00  0.00    +0.000 A 
ATOM     12  C   UNL     1       1.280   8.660  20.017  0.00  0.00    +0.000 A 
ATOM     13  C   UNL     1       1.401   7.460  20.711  0.00  0.00    +0.000 A 
ATOM     14  C   UNL     1       2.072   6.360  20.144  0.00  0.00    +0.000 A 
ATOM     15 CL   UNL     1       2.245   5.002  21.202  0.00  0.00    +0.000 Cl
ENDBRANCH   8   9
ENDBRANCH   1   6
BRANCH   1  16
ATOM     16  S   UNL     1       6.893   5.086  16.172  0.00  0.00    +0.000 S 
ATOM     17  O   UNL     1       6.532   6.476  16.066  0.00  0.00    +0.000 OA
ATOM     18  O   UNL     1       7.727   4.555  17.216  0.00  0.00    +0.000 OA
BRANCH  16  19
ATOM     19  N   UNL     1       7.480   4.549  14.729  0.00  0.00    +0.000 NA
ATOM     20  H   UNL     1       8.127   3.767  14.736  0.00  0.00    +0.000 HD
BRANCH  19  21
ATOM     21  C   UNL     1       6.772   4.948  13.525  0.00  0.00    +0.000 C 
BRANCH  21  22
ATOM     22  C   UNL     1       6.416   3.821  12.583  0.00  0.00    +0.000 A 
ATOM     23  C   UNL     1       7.459   3.051  12.039  0.00  0.00    +0.000 A 
ATOM     24  C   UNL     1       7.191   1.967  11.207  0.00  0.00    +0.000 A 
ATOM     25  C   UNL     1       5.873   1.626  10.919  0.00  0.00    +0.000 A 
ATOM     26  C   UNL     1       4.826   2.360  11.473  0.00  0.00    +0.000 A 
ATOM     27  C   UNL     1       5.093   3.445  12.313  0.00  0.00    +0.000 A 
ENDBRANCH  21  22
ENDBRANCH  19  21
ENDBRANCH  16  19
ENDBRANCH   1  16
TORSDOF 6
ENDMDL
MODEL 2
REMARK VINA RESULT:      -7.7      1.464      2.053
REMARK  Name = 
REMARK  6 active torsions:
REMARK  status: ('A' for Active; 'I' for Inactive)
REMARK    1  A    between atoms: C_4  and  N_5
REMARK    2  A    between atoms: N_5  and  S_6
REMARK    3  A    between atoms: S_6  and  N_9
REMARK    4  A    between atoms: N_9  and  C_10
REMARK    5  A    between atoms: C_10  and  C_11
REMARK    6  A    between atoms: N_18  and  C_19
REMARK                            x       y       z     vdW  Elec       q    Type
REMARK                         _______ _______ _______ _____ _____    ______ ____
ROOT
ATOM      1  N   UNL     1       5.778   3.816  17.813  0.00  0.00    +0.000 NA
ATOM      2  H   UNL     1       5.263   4.063  16.967  0.00  0.00    +0.000 HD
ENDROOT
BRANCH   1   6
ATOM      3  O   UNL     1       1.611   4.403  17.669  0.00  0.00    +0.000 OA
ATOM      4  C   UNL     1       2.683   4.516  18.247  0.00  0.00    +0.000 C 
ATOM      5  C   UNL     1       3.462   3.336  18.761  0.00  0.00    +0.000 C 
ATOM      6  C   UNL     1       4.850   3.895  18.998  0.00  0.00    +0.000 C 
ATOM      7  C   UNL     1       4.562   5.360  19.349  0.00  0.00    +0.000 C 
ATOM      8  N   UNL     1       3.348   5.693  18.633  0.00  0.00    +0.000 N 
BRANCH   8   9
ATOM      9  C   UNL     1       2.714   6.976  18.725  0.00  0.00    +0.000 A 
ATOM     10  C   UNL     1       2.925   7.911  17.687  0.00  0.00    +0.000 A 
ATOM     11  C   UNL     1       2.304   9.164  17.670  0.00  0.00    +0.000 A 
ATOM     12  C   UNL     1       1.451   9.529  18.698  0.00  0.00    +0.000 A 
ATOM     13  C   UNL     1       1.230   8.640  19.745  0.00  0.00    +0.000 A 
ATOM     14  C   UNL     1       1.854   7.379  19.769  0.00  0.00    +0.000 A 
ATOM     15 CL   UNL     1       1.573   6.465  21.212  0.00  0.00    +0.000 Cl
ENDBRANCH   8   9
ENDBRANCH   1   6
BRANCH   1  16
ATOM     16  S   UNL     1       7.137   4.809  17.881  0.00  0.00    +0.000 S 
ATOM     17  O   UNL     1       7.162   5.375  19.205  0.00  0.00    +0.000 OA
ATOM     18  O   UNL     1       8.243   4.103  17.293  0.00  0.00    +0.000 OA
BRANCH  16  19
ATOM     19  N   UNL     1       6.619   5.938  16.800  0.00  0.00    +0.000 NA
ATOM     20  H   UNL     1       7.181   6.774  16.674  0.00  0.00    +0.000 HD
BRANCH  19  21
ATOM     21  C   UNL     1       5.625   5.529  15.823  0.00  0.00    +0.000 C 
BRANCH  21  22
ATOM     22  C   UNL     1       6.180   4.959  14.539  0.00  0.00    +0.000 A 
ATOM     23  C   UNL     1       5.415   4.004  13.846  0.00  0.00    +0.000 A 
ATOM     24  C   UNL     1       5.849   3.483  12.630  0.00  0.00    +0.000 A 
ATOM     25  C   UNL     1       7.050   3.921  12.079  0.00  0.00    +0.000 A 
ATOM     26  C   UNL     1       7.807   4.888  12.738  0.00  0.00    +0.000 A 
ATOM     27  C   UNL     1       7.370   5.417  13.955  0.00  0.00    +0.000 A 
ENDBRANCH  21  22
ENDBRANCH  19  21
ENDBRANCH  16  19
ENDBRANCH   1  16
TORSDOF 6
ENDMDL
MODEL 3
REMARK VINA RESULT:      -7.7      4.739      6.907
REMARK  Name = 
REMARK  6 active torsions:
REMARK  status: ('A' for Active; 'I' for Inactive)
REMARK    1  A    between atoms: C_4  and  N_5
REMARK    2  A    between atoms: N_5  and  S_6
REMARK    3  A    between atoms: S_6  and  N_9
REMARK    4  A    between atoms: N_9  and  C_10
REMARK    5  A    between atoms: C_10  and  C_11
REMARK    6  A    between atoms: N_18  and  C_19
REMARK                            x       y       z     vdW  Elec       q    Type
REMARK                         _______ _______ _______ _____ _____    ______ ____
ROOT
ATOM      1  N   UNL     1       6.089   7.099  18.307  0.00  0.00    +0.000 NA
ATOM      2  H   UNL     1       5.969   6.762  19.263  0.00  0.00    +0.000 HD
ENDROOT
BRANCH   1   6
ATOM      3  O   UNL     1       1.971   7.488  19.094  0.00  0.00    +0.000 OA
ATOM      4  C   UNL     1       2.907   6.880  18.594  0.00  0.00    +0.000 C 
ATOM      5  C   UNL     1       3.713   7.422  17.446  0.00  0.00    +0.000 C 
ATOM      6  C   UNL     1       4.966   6.571  17.450  0.00  0.00    +0.000 C 
ATOM      7  C   UNL     1       4.458   5.236  18.006  0.00  0.00    +0.000 C 
ATOM      8  N   UNL     1       3.357   5.580  18.881  0.00  0.00    +0.000 N 
BRANCH   8   9
ATOM      9  C   UNL     1       2.576   4.598  19.577  0.00  0.00    +0.000 A 
ATOM     10  C   UNL     1       2.863   4.344  20.936  0.00  0.00    +0.000 A 
ATOM     11  C   UNL     1       2.118   3.443  21.704  0.00  0.00    +0.000 A 
ATOM     12  C   UNL     1       1.058   2.759  21.133  0.00  0.00    +0.000 A 
ATOM     13  C   UNL     1       0.755   2.971  19.793  0.00  0.00    +0.000 A 
ATOM     14  C   UNL     1       1.502   3.875  19.015  0.00  0.00    +0.000 A 
ATOM     15 CL   UNL     1       1.072   3.908  17.339  0.00  0.00    +0.000 Cl
ENDBRANCH   8   9
ENDBRANCH   1   6
BRANCH   1  16
ATOM     16  S   UNL     1       7.643   6.674  17.817  0.00  0.00    +0.000 S 
ATOM     17  O   UNL     1       7.982   5.470  18.531  0.00  0.00    +0.000 OA
ATOM     18  O   UNL     1       7.718   6.801  16.386  0.00  0.00    +0.000 OA
BRANCH  16  19
ATOM     19  N   UNL     1       8.428   7.960  18.484  0.00  0.00    +0.000 NA
ATOM     20  H   UNL     1       9.221   7.775  19.090  0.00  0.00    +0.000 HD
BRANCH  19  21
ATOM     21  C   UNL     1       8.201   9.266  17.892  0.00  0.00    +0.000 C 
BRANCH  21  22
ATOM     22  C   UNL     1       8.950  10.407  18.541  0.00  0.00    +0.000 A 
ATOM     23  C   UNL     1       8.998  11.642  17.870  0.00  0.00    +0.000 A 
ATOM     24  C   UNL     1       9.628  12.744  18.443  0.00  0.00    +0.000 A 
ATOM     25  C   UNL     1      10.206  12.633  19.704  0.00  0.00    +0.000 A 
ATOM     26  C   UNL     1      10.142  11.425  20.395  0.00  0.00    +0.000 A 
ATOM     27  C   UNL     1       9.506  10.319  19.825  0.00  0.00    +0.000 A 
ENDBRANCH  21  22
ENDBRANCH  19  21
ENDBRANCH  16  19
ENDBRANCH   1  16
TORSDOF 6
ENDMDL
MODEL 4
REMARK VINA RESULT:      -7.6      2.155      2.903
REMARK  Name = 
REMARK  6 active torsions:
REMARK  status: ('A' for Active; 'I' for Inactive)
REMARK    1  A    between atoms: C_4  and  N_5
REMARK    2  A    between atoms: N_5  and  S_6
REMARK    3  A    between atoms: S_6  and  N_9
REMARK    4  A    between atoms: N_9  and  C_10
REMARK    5  A    between atoms: C_10  and  C_11
REMARK    6  A    between atoms: N_18  and  C_19
REMARK                            x       y       z     vdW  Elec       q    Type
REMARK                         _______ _______ _______ _____ _____    ______ ____
ROOT
ATOM      1  N   UNL     1       5.319   5.784  15.606  0.00  0.00    +0.000 NA
ATOM      2  H   UNL     1       5.042   6.437  14.872  0.00  0.00    +0.000 HD
ENDROOT
BRANCH   1   6
ATOM      3  O   UNL     1       5.904   3.963  19.357  0.00  0.00    +0.000 OA
ATOM      4  C   UNL     1       5.332   4.778  18.647  0.00  0.00    +0.000 C 
ATOM      5  C   UNL     1       6.029   5.968  18.045  0.00  0.00    +0.000 C 
ATOM      6  C   UNL     1       5.087   6.425  16.951  0.00  0.00    +0.000 C 
ATOM      7  C   UNL     1       3.716   6.017  17.503  0.00  0.00    +0.000 C 
ATOM      8  N   UNL     1       3.965   4.852  18.327  0.00  0.00    +0.000 N 
BRANCH   8   9
ATOM      9  C   UNL     1       2.934   4.181  19.063  0.00  0.00    +0.000 A 
ATOM     10  C   UNL     1       2.160   4.927  19.978  0.00  0.00    +0.000 A 
ATOM     11  C   UNL     1       1.100   4.364  20.697  0.00  0.00    +0.000 A 
ATOM     12  C   UNL     1       0.781   3.028  20.527  0.00  0.00    +0.000 A 
ATOM     13  C   UNL     1       1.531   2.256  19.645  0.00  0.00    +0.000 A 
ATOM     14  C   UNL     1       2.599   2.816  18.921  0.00  0.00    +0.000 A 
ATOM     15 CL   UNL     1       3.504   1.680  17.980  0.00  0.00    +0.000 Cl
ENDBRANCH   8   9
ENDBRANCH   1   6
BRANCH   1  16
ATOM     16  S   UNL     1       6.903   5.311  15.286  0.00  0.00    +0.000 S 
ATOM     17  O   UNL     1       7.756   6.277  15.929  0.00  0.00    +0.000 OA
ATOM     18  O   UNL     1       7.003   3.892  15.496  0.00  0.00    +0.000 OA
BRANCH  16  19
ATOM     19  N   UNL     1       6.874   5.585  13.661  0.00  0.00    +0.000 NA
ATOM     20  H   UNL     1       6.538   6.484  13.333  0.00  0.00    +0.000 HD
BRANCH  19  21
ATOM     21  C   UNL     1       7.666   4.707  12.818  0.00  0.00    +0.000 C 
BRANCH  21  22
ATOM     22  C   UNL     1       6.897   3.594  12.145  0.00  0.00    +0.000 A 
ATOM     23  C   UNL     1       7.620   2.535  11.568  0.00  0.00    +0.000 A 
ATOM     24  C   UNL     1       6.966   1.455  10.981  0.00  0.00    +0.000 A 
ATOM     25  C   UNL     1       5.576   1.410  10.976  0.00  0.00    +0.000 A 
ATOM     26  C   UNL     1       4.842   2.435  11.569  0.00  0.00    +0.000 A 
ATOM     27  C   UNL     1       5.497   3.517  12.164  0.00  0.00    +0.000 A 
ENDBRANCH  21  22
ENDBRANCH  19  21
ENDBRANCH  16  19
ENDBRANCH   1  16
TORSDOF 6
ENDMDL
MODEL 5
REMARK VINA RESULT:      -7.5      4.708      6.839
REMARK  Name = 
REMARK  6 active torsions:
REMARK  status: ('A' for Active; 'I' for Inactive)
REMARK    1  A    between atoms: C_4  and  N_5
REMARK    2  A    between atoms: N_5  and  S_6
REMARK    3  A    between atoms: S_6  and  N_9
REMARK    4  A    between atoms: N_9  and  C_10
REMARK    5  A    between atoms: C_10  and  C_11
REMARK    6  A    between atoms: N_18  and  C_19
REMARK                            x       y       z     vdW  Elec       q    Type
REMARK                         _______ _______ _______ _____ _____    ______ ____
ROOT
ATOM      1  N   UNL     1       6.063   7.118  18.141  0.00  0.00    +0.000 NA
ATOM      2  H   UNL     1       5.813   6.702  19.039  0.00  0.00    +0.000 HD
ENDROOT
BRANCH   1   6
ATOM      3  O   UNL     1       1.893   7.626  18.422  0.00  0.00    +0.000 OA
ATOM      4  C   UNL     1       2.865   7.018  17.996  0.00  0.00    +0.000 C 
ATOM      5  C   UNL     1       3.834   7.614  17.012  0.00  0.00    +0.000 C 
ATOM      6  C   UNL     1       5.046   6.711  17.105  0.00  0.00    +0.000 C 
ATOM      7  C   UNL     1       4.424   5.359  17.475  0.00  0.00    +0.000 C 
ATOM      8  N   UNL     1       3.230   5.680  18.228  0.00  0.00    +0.000 N 
BRANCH   8   9
ATOM      9  C   UNL     1       2.331   4.682  18.731  0.00  0.00    +0.000 A 
ATOM     10  C   UNL     1       1.981   3.602  17.892  0.00  0.00    +0.000 A 
ATOM     11  C   UNL     1       1.154   2.558  18.319  0.00  0.00    +0.000 A 
ATOM     12  C   UNL     1       0.644   2.561  19.606  0.00  0.00    +0.000 A 
ATOM     13  C   UNL     1       0.956   3.616  20.458  0.00  0.00    +0.000 A 
ATOM     14  C   UNL     1       1.785   4.671  20.033  0.00  0.00    +0.000 A 
ATOM     15 CL   UNL     1       1.951   5.960  21.174  0.00  0.00    +0.000 Cl
ENDBRANCH   8   9
ENDBRANCH   1   6
BRANCH   1  16
ATOM     16  S   UNL     1       7.656   6.679  17.812  0.00  0.00    +0.000 S 
ATOM     17  O   UNL     1       7.897   5.451  18.525  0.00  0.00    +0.000 OA
ATOM     18  O   UNL     1       7.889   6.844  16.403  0.00  0.00    +0.000 OA
BRANCH  16  19
ATOM     19  N   UNL     1       8.380   7.933  18.599  0.00  0.00    +0.000 NA
ATOM     20  H   UNL     1       9.077   7.718  19.304  0.00  0.00    +0.000 HD
BRANCH  19  21
ATOM     21  C   UNL     1       8.277   9.252  17.998  0.00  0.00    +0.000 C 
BRANCH  21  22
ATOM     22  C   UNL     1       9.170  10.308  18.607  0.00  0.00    +0.000 A 
ATOM     23  C   UNL     1       9.191  10.439  20.006  0.00  0.00    +0.000 A 
ATOM     24  C   UNL     1      10.033  11.358  20.627  0.00  0.00    +0.000 A 
ATOM     25  C   UNL     1      10.880  12.150  19.858  0.00  0.00    +0.000 A 
ATOM     26  C   UNL     1      10.894  12.012  18.472  0.00  0.00    +0.000 A 
ATOM     27  C   UNL     1      10.054  11.087  17.846  0.00  0.00    +0.000 A 
ENDBRANCH  21  22
ENDBRANCH  19  21
ENDBRANCH  16  19
ENDBRANCH   1  16
TORSDOF 6
ENDMDL
MODEL 6
REMARK VINA RESULT:      -7.4      4.310      8.570
REMARK  Name = 
REMARK  6 active torsions:
REMARK  status: ('A' for Active; 'I' for Inactive)
REMARK    1  A    between atoms: C_4  and  N_5
REMARK    2  A    between atoms: N_5  and  S_6
REMARK    3  A    between atoms: S_6  and  N_9
REMARK    4  A    between atoms: N_9  and  C_10
REMARK    5  A    between atoms: C_10  and  C_11
REMARK    6  A    between atoms: N_18  and  C_19
REMARK                            x       y       z     vdW  Elec       q    Type
REMARK                         _______ _______ _______ _____ _____    ______ ____
ROOT
ATOM      1  N   UNL     1       1.937   7.304  21.200  0.00  0.00    +0.000 NA
ATOM      2  H   UNL     1       2.900   7.638  21.231  0.00  0.00    +0.000 HD
ENDROOT
BRANCH   1   6
ATOM      3  O   UNL     1       3.405   3.424  20.479  0.00  0.00    +0.000 OA
ATOM      4  C   UNL     1       3.048   4.520  20.070  0.00  0.00    +0.000 C 
ATOM      5  C   UNL     1       1.625   5.000  20.157  0.00  0.00    +0.000 C 
ATOM      6  C   UNL     1       1.733   6.496  19.943  0.00  0.00    +0.000 C 
ATOM      7  C   UNL     1       2.963   6.611  19.034  0.00  0.00    +0.000 C 
ATOM      8  N   UNL     1       3.803   5.484  19.381  0.00  0.00    +0.000 N 
BRANCH   8   9
ATOM      9  C   UNL     1       5.047   5.206  18.723  0.00  0.00    +0.000 A 
ATOM     10  C   UNL     1       6.243   5.670  19.314  0.00  0.00    +0.000 A 
ATOM     11  C   UNL     1       7.502   5.398  18.769  0.00  0.00    +0.000 A 
ATOM     12  C   UNL     1       7.608   4.653  17.607  0.00  0.00    +0.000 A 
ATOM     13  C   UNL     1       6.450   4.191  16.988  0.00  0.00    +0.000 A 
ATOM     14  C   UNL     1       5.181   4.463  17.530  0.00  0.00    +0.000 A 
ATOM     15 CL   UNL     1       3.854   3.931  16.556  0.00  0.00    +0.000 Cl
ENDBRANCH   8   9
ENDBRANCH   1   6
BRANCH   1  16
ATOM     16  S   UNL     1       0.933   8.645  21.375  0.00  0.00    +0.000 S 
ATOM     17  O   UNL     1      -0.407   8.138  21.511  0.00  0.00    +0.000 OA
ATOM     18  O   UNL     1       1.545   9.548  22.312  0.00  0.00    +0.000 OA
BRANCH  16  19
ATOM     19  N   UNL     1       1.148   9.260  19.861  0.00  0.00    +0.000 NA
ATOM     20  H   UNL     1       1.384   8.618  19.112  0.00  0.00    +0.000 HD
BRANCH  19  21
ATOM     21  C   UNL     1       0.627  10.590  19.596  0.00  0.00    +0.000 C 
BRANCH  21  22
ATOM     22  C   UNL     1      -0.702  10.630  18.878  0.00  0.00    +0.000 A 
ATOM     23  C   UNL     1      -1.693  11.505  19.355  0.00  0.00    +0.000 A 
ATOM     24  C   UNL     1      -2.918  11.625  18.703  0.00  0.00    +0.000 A 
ATOM     25  C   UNL     1      -3.164  10.881  17.553  0.00  0.00    +0.000 A 
ATOM     26  C   UNL     1      -2.183  10.030  17.050  0.00  0.00    +0.000 A 
ATOM     27  C   UNL     1      -0.951   9.913  17.699  0.00  0.00    +0.000 A 
ENDBRANCH  21  22
ENDBRANCH  19  21
ENDBRANCH  16  19
ENDBRANCH   1  16
TORSDOF 6
ENDMDL
MODEL 7
REMARK VINA RESULT:      -7.4      2.115      3.081
REMARK  Name = 
REMARK  6 active torsions:
REMARK  status: ('A' for Active; 'I' for Inactive)
REMARK    1  A    between atoms: C_4  and  N_5
REMARK    2  A    between atoms: N_5  and  S_6
REMARK    3  A    between atoms: S_6  and  N_9
REMARK    4  A    between atoms: N_9  and  C_10
REMARK    5  A    between atoms: C_10  and  C_11
REMARK    6  A    between atoms: N_18  and  C_19
REMARK                            x       y       z     vdW  Elec       q    Type
REMARK                         _______ _______ _______ _____ _____    ______ ____
ROOT
ATOM      1  N   UNL     1       5.275   6.302  15.749  0.00  0.00    +0.000 NA
ATOM      2  H   UNL     1       5.345   7.112  15.132  0.00  0.00    +0.000 HD
ENDROOT
BRANCH   1   6
ATOM      3  O   UNL     1       5.933   4.022  19.227  0.00  0.00    +0.000 OA
ATOM      4  C   UNL     1       5.356   4.927  18.640  0.00  0.00    +0.000 C 
ATOM      5  C   UNL     1       6.056   6.173  18.170  0.00  0.00    +0.000 C 
ATOM      6  C   UNL     1       5.092   6.774  17.169  0.00  0.00    +0.000 C 
ATOM      7  C   UNL     1       3.730   6.319  17.707  0.00  0.00    +0.000 C 
ATOM      8  N   UNL     1       3.982   5.058  18.372  0.00  0.00    +0.000 N 
BRANCH   8   9
ATOM      9  C   UNL     1       2.960   4.314  19.050  0.00  0.00    +0.000 A 
ATOM     10  C   UNL     1       2.181   4.971  20.027  0.00  0.00    +0.000 A 
ATOM     11  C   UNL     1       1.130   4.337  20.697  0.00  0.00    +0.000 A 
ATOM     12  C   UNL     1       0.824   3.016  20.414  0.00  0.00    +0.000 A 
ATOM     13  C   UNL     1       1.580   2.332  19.468  0.00  0.00    +0.000 A 
ATOM     14  C   UNL     1       2.640   2.964  18.792  0.00  0.00    +0.000 A 
ATOM     15 CL   UNL     1       3.554   1.923  17.755  0.00  0.00    +0.000 Cl
ENDBRANCH   8   9
ENDBRANCH   1   6
BRANCH   1  16
ATOM     16  S   UNL     1       6.629   5.340  15.468  0.00  0.00    +0.000 S 
ATOM     17  O   UNL     1       7.732   5.982  16.134  0.00  0.00    +0.000 OA
ATOM     18  O   UNL     1       6.260   3.966  15.679  0.00  0.00    +0.000 OA
BRANCH  16  19
ATOM     19  N   UNL     1       6.730   5.597  13.844  0.00  0.00    +0.000 NA
ATOM     20  H   UNL     1       6.525   6.527  13.492  0.00  0.00    +0.000 HD
BRANCH  19  21
ATOM     21  C   UNL     1       7.459   4.621  13.053  0.00  0.00    +0.000 C 
BRANCH  21  22
ATOM     22  C   UNL     1       6.604   3.596  12.346  0.00  0.00    +0.000 A 
ATOM     23  C   UNL     1       5.224   3.841  12.233  0.00  0.00    +0.000 A 
ATOM     24  C   UNL     1       4.393   2.959  11.546  0.00  0.00    +0.000 A 
ATOM     25  C   UNL     1       4.933   1.825  10.949  0.00  0.00    +0.000 A 
ATOM     26  C   UNL     1       6.303   1.581  11.025  0.00  0.00    +0.000 A 
ATOM     27  C   UNL     1       7.139   2.468  11.709  0.00  0.00    +0.000 A 
ENDBRANCH  21  22
ENDBRANCH  19  21
ENDBRANCH  16  19
ENDBRANCH   1  16
TORSDOF 6
ENDMDL
MODEL 8
REMARK VINA RESULT:      -7.4      2.181      3.102
REMARK  Name = 
REMARK  6 active torsions:
REMARK  status: ('A' for Active; 'I' for Inactive)
REMARK    1  A    between atoms: C_4  and  N_5
REMARK    2  A    between atoms: N_5  and  S_6
REMARK    3  A    between atoms: S_6  and  N_9
REMARK    4  A    between atoms: N_9  and  C_10
REMARK    5  A    between atoms: C_10  and  C_11
REMARK    6  A    between atoms: N_18  and  C_19
REMARK                            x       y       z     vdW  Elec       q    Type
REMARK                         _______ _______ _______ _____ _____    ______ ____
ROOT
ATOM      1  N   UNL     1       7.412   5.792  16.165  0.00  0.00    +0.000 NA
ATOM      2  H   UNL     1       7.922   5.068  16.673  0.00  0.00    +0.000 HD
ENDROOT
BRANCH   1   6
ATOM      3  O   UNL     1       6.098   4.450  19.934  0.00  0.00    +0.000 OA
ATOM      4  C   UNL     1       5.943   5.140  18.935  0.00  0.00    +0.000 C 
ATOM      5  C   UNL     1       6.841   6.298  18.595  0.00  0.00    +0.000 C 
ATOM      6  C   UNL     1       6.551   6.563  17.132  0.00  0.00    +0.000 C 
ATOM      7  C   UNL     1       5.086   6.129  17.001  0.00  0.00    +0.000 C 
ATOM      8  N   UNL     1       4.906   5.084  17.988  0.00  0.00    +0.000 N 
BRANCH   8   9
ATOM      9  C   UNL     1       3.650   4.432  18.214  0.00  0.00    +0.000 A 
ATOM     10  C   UNL     1       3.436   3.158  17.643  0.00  0.00    +0.000 A 
ATOM     11  C   UNL     1       2.262   2.429  17.857  0.00  0.00    +0.000 A 
ATOM     12  C   UNL     1       1.255   2.953  18.649  0.00  0.00    +0.000 A 
ATOM     13  C   UNL     1       1.423   4.212  19.217  0.00  0.00    +0.000 A 
ATOM     14  C   UNL     1       2.601   4.952  19.004  0.00  0.00    +0.000 A 
ATOM     15 CL   UNL     1       2.579   6.548  19.671  0.00  0.00    +0.000 Cl
ENDBRANCH   8   9
ENDBRANCH   1   6
BRANCH   1  16
ATOM     16  S   UNL     1       6.594   5.036  14.901  0.00  0.00    +0.000 S 
ATOM     17  O   UNL     1       6.378   3.673  15.312  0.00  0.00    +0.000 OA
ATOM     18  O   UNL     1       5.545   5.912  14.454  0.00  0.00    +0.000 OA
BRANCH  16  19
ATOM     19  N   UNL     1       7.816   5.102  13.798  0.00  0.00    +0.000 NA
ATOM     20  H   UNL     1       8.757   4.889  14.113  0.00  0.00    +0.000 HD
BRANCH  19  21
ATOM     21  C   UNL     1       7.454   5.081  12.392  0.00  0.00    +0.000 C 
BRANCH  21  22
ATOM     22  C   UNL     1       6.844   3.788  11.903  0.00  0.00    +0.000 A 
ATOM     23  C   UNL     1       7.707   2.746  11.517  0.00  0.00    +0.000 A 
ATOM     24  C   UNL     1       7.204   1.513  11.109  0.00  0.00    +0.000 A 
ATOM     25  C   UNL     1       5.830   1.298  11.094  0.00  0.00    +0.000 A 
ATOM     26  C   UNL     1       4.961   2.309  11.501  0.00  0.00    +0.000 A 
ATOM     27  C   UNL     1       5.463   3.544  11.917  0.00  0.00    +0.000 A 
ENDBRANCH  21  22
ENDBRANCH  19  21
ENDBRANCH  16  19
ENDBRANCH   1  16
TORSDOF 6
ENDMDL
MODEL 9
REMARK VINA RESULT:      -7.4      4.543      6.760
REMARK  Name = 
REMARK  6 active torsions:
REMARK  status: ('A' for Active; 'I' for Inactive)
REMARK    1  A    between atoms: C_4  and  N_5
REMARK    2  A    between atoms: N_5  and  S_6
REMARK    3  A    between atoms: S_6  and  N_9
REMARK    4  A    between atoms: N_9  and  C_10
REMARK    5  A    between atoms: C_10  and  C_11
REMARK    6  A    between atoms: N_18  and  C_19
REMARK                            x       y       z     vdW  Elec       q    Type
REMARK                         _______ _______ _______ _____ _____    ______ ____
ROOT
ATOM      1  N   UNL     1       5.714   7.390  17.876  0.00  0.00    +0.000 NA
ATOM      2  H   UNL     1       5.658   7.197  18.877  0.00  0.00    +0.000 HD
ENDROOT
BRANCH   1   6
ATOM      3  O   UNL     1       1.832   7.396  19.508  0.00  0.00    +0.000 OA
ATOM      4  C   UNL     1       2.673   6.913  18.762  0.00  0.00    +0.000 C 
ATOM      5  C   UNL     1       3.199   7.633  17.550  0.00  0.00    +0.000 C 
ATOM      6  C   UNL     1       4.465   6.879  17.203  0.00  0.00    +0.000 C 
ATOM      7  C   UNL     1       4.147   5.458  17.684  0.00  0.00    +0.000 C 
ATOM      8  N   UNL     1       3.235   5.625  18.797  0.00  0.00    +0.000 N 
BRANCH   8   9
ATOM      9  C   UNL     1       2.663   4.521  19.510  0.00  0.00    +0.000 A 
ATOM     10  C   UNL     1       2.598   4.587  20.920  0.00  0.00    +0.000 A 
ATOM     11  C   UNL     1       2.009   3.580  21.691  0.00  0.00    +0.000 A 
ATOM     12  C   UNL     1       1.465   2.465  21.075  0.00  0.00    +0.000 A 
ATOM     13  C   UNL     1       1.523   2.358  19.689  0.00  0.00    +0.000 A 
ATOM     14  C   UNL     1       2.117   3.367  18.909  0.00  0.00    +0.000 A 
ATOM     15 CL   UNL     1       2.223   3.001  17.221  0.00  0.00    +0.000 Cl
ENDBRANCH   8   9
ENDBRANCH   1   6
BRANCH   1  16
ATOM     16  S   UNL     1       7.163   6.737  17.319  0.00  0.00    +0.000 S 
ATOM     17  O   UNL     1       7.639   5.856  18.354  0.00  0.00    +0.000 OA
ATOM     18  O   UNL     1       6.982   6.337  15.950  0.00  0.00    +0.000 OA
BRANCH  16  19
ATOM     19  N   UNL     1       8.035   8.136  17.330  0.00  0.00    +0.000 NA
ATOM     20  H   UNL     1       7.911   8.783  16.559  0.00  0.00    +0.000 HD
BRANCH  19  21
ATOM     21  C   UNL     1       8.628   8.548  18.590  0.00  0.00    +0.000 C 
BRANCH  21  22
ATOM     22  C   UNL     1       8.904  10.028  18.719  0.00  0.00    +0.000 A 
ATOM     23  C   UNL     1       9.602  10.481  19.853  0.00  0.00    +0.000 A 
ATOM     24  C   UNL     1       9.932  11.826  20.001  0.00  0.00    +0.000 A 
ATOM     25  C   UNL     1       9.582  12.736  19.009  0.00  0.00    +0.000 A 
ATOM     26  C   UNL     1       8.917  12.300  17.865  0.00  0.00    +0.000 A 
ATOM     27  C   UNL     1       8.590  10.950  17.711  0.00  0.00    +0.000 A 
ENDBRANCH  21  22
ENDBRANCH  19  21
ENDBRANCH  16  19
ENDBRANCH   1  16
TORSDOF 6
ENDMDL
