MODEL 1
REMARK VINA RESULT:      -8.2      0.000      0.000
REMARK  Name = 
REMARK  4 active torsions:
REMARK  status: ('A' for Active; 'I' for Inactive)
REMARK    1  A    between atoms: C_3  and  N_4
REMARK    2  A    between atoms: N_4  and  C_5
REMARK    3  A    between atoms: C_5  and  C_6
REMARK    4  A    between atoms: C_6  and  C_7
REMARK                            x       y       z     vdW  Elec       q    Type
REMARK                         _______ _______ _______ _____ _____    ______ ____
ROOT
ATOM      1  O   UNL     1       7.777   4.829  18.683  0.00  0.00    +0.000 OA
ATOM      2  C   UNL     1       6.633   5.195  18.444  0.00  0.00    +0.000 C 
ATOM      3  C   UNL     1       6.293   6.559  17.774  0.00  0.00    +0.000 C 
ATOM      4  C   UNL     1       4.998   6.947  17.702  0.00  0.00    +0.000 C 
ATOM      5  C   UNL     1       3.841   6.080  18.038  0.00  0.00    +0.000 C 
ATOM      6  N   UNL     1       2.608   6.386  17.847  0.00  0.00    +0.000 NA
ATOM      7  C   UNL     1       1.600   5.284  17.833  0.00  0.00    +0.000 C 
ATOM      8  C   UNL     1       1.884   3.971  18.615  0.00  0.00    +0.000 C 
ATOM      9  C   UNL     1       3.336   3.749  18.807  0.00  0.00    +0.000 A 
ATOM     10  C   UNL     1       4.110   2.692  19.242  0.00  0.00    +0.000 A 
ATOM     11  N   UNL     1       5.444   3.084  19.210  0.00  0.00    +0.000 N 
ATOM     12  C   UNL     1       5.494   4.372  18.726  0.00  0.00    +0.000 A 
ATOM     13  C   UNL     1       4.211   4.787  18.510  0.00  0.00    +0.000 A 
ATOM     14  H   UNL     1       6.243   2.521  19.462  0.00  0.00    +0.000 HD
ENDROOT
BRANCH   3  15
ATOM     15  N   UNL     1       7.313   7.329  17.200  0.00  0.00    +0.000 N 
ATOM     16  H   UNL     1       7.694   6.924  16.346  0.00  0.00    +0.000 HD
BRANCH  15  17
ATOM     17  C   UNL     1       8.245   8.138  17.978  0.00  0.00    +0.000 C 
BRANCH  17  18
ATOM     18  C   UNL     1       7.987   9.636  17.808  0.00  0.00    +0.000 C 
BRANCH  18  19
ATOM     19  C   UNL     1       9.095  10.429  18.461  0.00  0.00    +0.000 A 
ATOM     20  C   UNL     1      10.093  11.029  17.679  0.00  0.00    +0.000 A 
ATOM     21  C   UNL     1      11.149  11.709  18.287  0.00  0.00    +0.000 A 
ATOM     22  C   UNL     1      11.208  11.784  19.673  0.00  0.00    +0.000 A 
ATOM     23  F   UNL     1      12.225  12.434  20.255  0.00  0.00    +0.000 F 
ATOM     24  C   UNL     1      10.236  11.188  20.465  0.00  0.00    +0.000 A 
ATOM     25  C   UNL     1       9.180  10.506  19.860  0.00  0.00    +0.000 A 
ENDBRANCH  18  19
ENDBRANCH  17  18
ENDBRANCH  15  17
ENDBRANCH   3  15
TORSDOF 4
ENDMDL
MODEL 2
REMARK VINA RESULT:      -8.0      0.414      1.033
REMARK  Name = 
REMARK  4 active torsions:
REMARK  status: ('A' for Active; 'I' for Inactive)
REMARK    1  A    between atoms: C_3  and  N_4
REMARK    2  A    between atoms: N_4  and  C_5
REMARK    3  A    between atoms: C_5  and  C_6
REMARK    4  A    between atoms: C_6  and  C_7
REMARK                            x       y       z     vdW  Elec       q    Type
REMARK                         _______ _______ _______ _____ _____    ______ ____
ROOT
ATOM      1  O   UNL     1       7.747   4.717  18.707  0.00  0.00    +0.000 OA
ATOM      2  C   UNL     1       6.608   5.099  18.467  0.00  0.00    +0.000 C 
ATOM      3  C   UNL     1       6.287   6.467  17.797  0.00  0.00    +0.000 C 
ATOM      4  C   UNL     1       4.998   6.873  17.723  0.00  0.00    +0.000 C 
ATOM      5  C   UNL     1       3.829   6.022  18.059  0.00  0.00    +0.000 C 
ATOM      6  N   UNL     1       2.600   6.345  17.866  0.00  0.00    +0.000 NA
ATOM      7  C   UNL     1       1.578   5.257  17.852  0.00  0.00    +0.000 C 
ATOM      8  C   UNL     1       1.843   3.940  18.635  0.00  0.00    +0.000 C 
ATOM      9  C   UNL     1       3.292   3.698  18.828  0.00  0.00    +0.000 A 
ATOM     10  C   UNL     1       4.051   2.630  19.263  0.00  0.00    +0.000 A 
ATOM     11  N   UNL     1       5.390   3.004  19.232  0.00  0.00    +0.000 N 
ATOM     12  C   UNL     1       5.458   4.291  18.748  0.00  0.00    +0.000 A 
ATOM     13  C   UNL     1       4.181   4.724  18.531  0.00  0.00    +0.000 A 
ATOM     14  H   UNL     1       6.181   2.431  19.486  0.00  0.00    +0.000 HD
ENDROOT
BRANCH   3  15
ATOM     15  N   UNL     1       7.318   7.223  17.223  0.00  0.00    +0.000 N 
ATOM     16  H   UNL     1       7.766   6.762  16.432  0.00  0.00    +0.000 HD
BRANCH  15  17
ATOM     17  C   UNL     1       8.174   8.126  17.985  0.00  0.00    +0.000 C 
BRANCH  17  18
ATOM     18  C   UNL     1       7.931   9.592  17.623  0.00  0.00    +0.000 C 
BRANCH  18  19
ATOM     19  C   UNL     1       8.914  10.476  18.353  0.00  0.00    +0.000 A 
ATOM     20  C   UNL     1       9.261  10.200  19.685  0.00  0.00    +0.000 A 
ATOM     21  C   UNL     1      10.121  11.052  20.378  0.00  0.00    +0.000 A 
ATOM     22  C   UNL     1      10.629  12.179  19.743  0.00  0.00    +0.000 A 
ATOM     23  F   UNL     1      11.451  12.998  20.412  0.00  0.00    +0.000 F 
ATOM     24  C   UNL     1      10.289  12.475  18.429  0.00  0.00    +0.000 A 
ATOM     25  C   UNL     1       9.427  11.625  17.734  0.00  0.00    +0.000 A 
ENDBRANCH  18  19
ENDBRANCH  17  18
ENDBRANCH  15  17
ENDBRANCH   3  15
TORSDOF 4
ENDMDL
MODEL 3
REMARK VINA RESULT:      -7.9      3.519      5.613
REMARK  Name = 
REMARK  4 active torsions:
REMARK  status: ('A' for Active; 'I' for Inactive)
REMARK    1  A    between atoms: C_3  and  N_4
REMARK    2  A    between atoms: N_4  and  C_5
REMARK    3  A    between atoms: C_5  and  C_6
REMARK    4  A    between atoms: C_6  and  C_7
REMARK                            x       y       z     vdW  Elec       q    Type
REMARK                         _______ _______ _______ _____ _____    ______ ____
ROOT
ATOM      1  O   UNL     1       2.254   5.065  20.821  0.00  0.00    +0.000 OA
ATOM      2  C   UNL     1       2.171   6.020  20.058  0.00  0.00    +0.000 C 
ATOM      3  C   UNL     1       2.484   5.930  18.536  0.00  0.00    +0.000 C 
ATOM      4  C   UNL     1       2.525   7.070  17.808  0.00  0.00    +0.000 C 
ATOM      5  C   UNL     1       2.100   8.402  18.307  0.00  0.00    +0.000 C 
ATOM      6  N   UNL     1       2.005   9.464  17.590  0.00  0.00    +0.000 NA
ATOM      7  C   UNL     1       1.181  10.595  18.109  0.00  0.00    +0.000 C 
ATOM      8  C   UNL     1       0.979  10.762  19.641  0.00  0.00    +0.000 C 
ATOM      9  C   UNL     1       1.153   9.479  20.361  0.00  0.00    +0.000 A 
ATOM     10  C   UNL     1       0.904   9.043  21.647  0.00  0.00    +0.000 A 
ATOM     11  N   UNL     1       1.281   7.707  21.737  0.00  0.00    +0.000 N 
ATOM     12  C   UNL     1       1.734   7.313  20.498  0.00  0.00    +0.000 A 
ATOM     13  C   UNL     1       1.683   8.397  19.670  0.00  0.00    +0.000 A 
ATOM     14  H   UNL     1       1.210   7.115  22.552  0.00  0.00    +0.000 HD
ENDROOT
BRANCH   3  15
ATOM     15  N   UNL     1       2.651   4.677  17.930  0.00  0.00    +0.000 N 
ATOM     16  H   UNL     1       1.802   4.114  17.926  0.00  0.00    +0.000 HD
BRANCH  15  17
ATOM     17  C   UNL     1       3.900   3.924  17.970  0.00  0.00    +0.000 C 
BRANCH  17  18
ATOM     18  C   UNL     1       4.864   4.351  16.862  0.00  0.00    +0.000 C 
BRANCH  18  19
ATOM     19  C   UNL     1       5.887   5.317  17.410  0.00  0.00    +0.000 A 
ATOM     20  C   UNL     1       6.038   6.590  16.837  0.00  0.00    +0.000 A 
ATOM     21  C   UNL     1       7.025   7.458  17.304  0.00  0.00    +0.000 A 
ATOM     22  C   UNL     1       7.861   7.054  18.337  0.00  0.00    +0.000 A 
ATOM     23  F   UNL     1       8.811   7.889  18.781  0.00  0.00    +0.000 F 
ATOM     24  C   UNL     1       7.735   5.795  18.910  0.00  0.00    +0.000 A 
ATOM     25  C   UNL     1       6.750   4.923  18.444  0.00  0.00    +0.000 A 
ENDBRANCH  18  19
ENDBRANCH  17  18
ENDBRANCH  15  17
ENDBRANCH   3  15
TORSDOF 4
ENDMDL
MODEL 4
REMARK VINA RESULT:      -7.9      3.634      5.726
REMARK  Name = 
REMARK  4 active torsions:
REMARK  status: ('A' for Active; 'I' for Inactive)
REMARK    1  A    between atoms: C_3  and  N_4
REMARK    2  A    between atoms: N_4  and  C_5
REMARK    3  A    between atoms: C_5  and  C_6
REMARK    4  A    between atoms: C_6  and  C_7
REMARK                            x       y       z     vdW  Elec       q    Type
REMARK                         _______ _______ _______ _____ _____    ______ ____
ROOT
ATOM      1  O   UNL     1       2.192   4.968  20.959  0.00  0.00    +0.000 OA
ATOM      2  C   UNL     1       2.146   5.888  20.151  0.00  0.00    +0.000 C 
ATOM      3  C   UNL     1       2.484   5.718  18.641  0.00  0.00    +0.000 C 
ATOM      4  C   UNL     1       2.565   6.822  17.861  0.00  0.00    +0.000 C 
ATOM      5  C   UNL     1       2.164   8.185  18.290  0.00  0.00    +0.000 C 
ATOM      6  N   UNL     1       2.108   9.215  17.523  0.00  0.00    +0.000 NA
ATOM      7  C   UNL     1       1.302  10.388  17.973  0.00  0.00    +0.000 C 
ATOM      8  C   UNL     1       1.078  10.632  19.492  0.00  0.00    +0.000 C 
ATOM      9  C   UNL     1       1.208   9.380  20.274  0.00  0.00    +0.000 A 
ATOM     10  C   UNL     1       0.926   9.011  21.574  0.00  0.00    +0.000 A 
ATOM     11  N   UNL     1       1.269   7.672  21.733  0.00  0.00    +0.000 N 
ATOM     12  C   UNL     1       1.733   7.209  20.522  0.00  0.00    +0.000 A 
ATOM     13  C   UNL     1       1.724   8.255  19.644  0.00  0.00    +0.000 A 
ATOM     14  H   UNL     1       1.169   7.121  22.573  0.00  0.00    +0.000 HD
ENDROOT
BRANCH   3  15
ATOM     15  N   UNL     1       2.630   4.435  18.097  0.00  0.00    +0.000 N 
ATOM     16  H   UNL     1       1.808   3.846  18.224  0.00  0.00    +0.000 HD
BRANCH  15  17
ATOM     17  C   UNL     1       3.904   3.726  18.040  0.00  0.00    +0.000 C 
BRANCH  17  18
ATOM     18  C   UNL     1       4.775   4.202  16.877  0.00  0.00    +0.000 C 
BRANCH  18  19
ATOM     19  C   UNL     1       5.878   5.098  17.390  0.00  0.00    +0.000 A 
ATOM     20  C   UNL     1       6.442   4.875  18.655  0.00  0.00    +0.000 A 
ATOM     21  C   UNL     1       7.417   5.740  19.153  0.00  0.00    +0.000 A 
ATOM     22  C   UNL     1       7.824   6.827  18.390  0.00  0.00    +0.000 A 
ATOM     23  F   UNL     1       8.757   7.659  18.872  0.00  0.00    +0.000 F 
ATOM     24  C   UNL     1       7.270   7.071  17.139  0.00  0.00    +0.000 A 
ATOM     25  C   UNL     1       6.293   6.209  16.640  0.00  0.00    +0.000 A 
ENDBRANCH  18  19
ENDBRANCH  17  18
ENDBRANCH  15  17
ENDBRANCH   3  15
TORSDOF 4
ENDMDL
MODEL 5
REMARK VINA RESULT:      -7.8      4.404      7.140
REMARK  Name = 
REMARK  4 active torsions:
REMARK  status: ('A' for Active; 'I' for Inactive)
REMARK    1  A    between atoms: C_3  and  N_4
REMARK    2  A    between atoms: N_4  and  C_5
REMARK    3  A    between atoms: C_5  and  C_6
REMARK    4  A    between atoms: C_6  and  C_7
REMARK                            x       y       z     vdW  Elec       q    Type
REMARK                         _______ _______ _______ _____ _____    ______ ____
ROOT
ATOM      1  O   UNL     1       4.695   2.446  20.452  0.00  0.00    +0.000 OA
ATOM      2  C   UNL     1       4.711   2.874  19.304  0.00  0.00    +0.000 C 
ATOM      3  C   UNL     1       3.854   2.271  18.154  0.00  0.00    +0.000 C 
ATOM      4  C   UNL     1       4.062   2.703  16.888  0.00  0.00    +0.000 C 
ATOM      5  C   UNL     1       4.917   3.860  16.524  0.00  0.00    +0.000 C 
ATOM      6  N   UNL     1       5.017   4.365  15.347  0.00  0.00    +0.000 NA
ATOM      7  C   UNL     1       5.563   5.748  15.215  0.00  0.00    +0.000 C 
ATOM      8  C   UNL     1       6.528   6.303  16.300  0.00  0.00    +0.000 C 
ATOM      9  C   UNL     1       6.345   5.616  17.600  0.00  0.00    +0.000 A 
ATOM     10  C   UNL     1       6.786   5.840  18.889  0.00  0.00    +0.000 A 
ATOM     11  N   UNL     1       6.278   4.834  19.706  0.00  0.00    +0.000 N 
ATOM     12  C   UNL     1       5.500   4.010  18.924  0.00  0.00    +0.000 A 
ATOM     13  C   UNL     1       5.565   4.467  17.640  0.00  0.00    +0.000 A 
ATOM     14  H   UNL     1       6.422   4.736  20.700  0.00  0.00    +0.000 HD
ENDROOT
BRANCH   3  15
ATOM     15  N   UNL     1       2.841   1.348  18.447  0.00  0.00    +0.000 N 
ATOM     16  H   UNL     1       2.646   0.704  17.682  0.00  0.00    +0.000 HD
BRANCH  15  17
ATOM     17  C   UNL     1       1.708   1.646  19.316  0.00  0.00    +0.000 C 
BRANCH  17  18
ATOM     18  C   UNL     1       0.766   2.681  18.699  0.00  0.00    +0.000 C 
BRANCH  18  19
ATOM     19  C   UNL     1       1.247   4.076  19.022  0.00  0.00    +0.000 A 
ATOM     20  C   UNL     1       1.709   4.921  18.001  0.00  0.00    +0.000 A 
ATOM     21  C   UNL     1       2.210   6.186  18.308  0.00  0.00    +0.000 A 
ATOM     22  C   UNL     1       2.253   6.603  19.633  0.00  0.00    +0.000 A 
ATOM     23  F   UNL     1       2.739   7.817  19.926  0.00  0.00    +0.000 F 
ATOM     24  C   UNL     1       1.811   5.778  20.659  0.00  0.00    +0.000 A 
ATOM     25  C   UNL     1       1.311   4.511  20.355  0.00  0.00    +0.000 A 
ENDBRANCH  18  19
ENDBRANCH  17  18
ENDBRANCH  15  17
ENDBRANCH   3  15
TORSDOF 4
ENDMDL
MODEL 6
REMARK VINA RESULT:      -7.8      4.415      7.191
REMARK  Name = 
REMARK  4 active torsions:
REMARK  status: ('A' for Active; 'I' for Inactive)
REMARK    1  A    between atoms: C_3  and  N_4
REMARK    2  A    between atoms: N_4  and  C_5
REMARK    3  A    between atoms: C_5  and  C_6
REMARK    4  A    between atoms: C_6  and  C_7
REMARK                            x       y       z     vdW  Elec       q    Type
REMARK                         _______ _______ _______ _____ _____    ______ ____
ROOT
ATOM      1  O   UNL     1       4.670   2.443  20.451  0.00  0.00    +0.000 OA
ATOM      2  C   UNL     1       4.692   2.871  19.303  0.00  0.00    +0.000 C 
ATOM      3  C   UNL     1       3.834   2.274  18.150  0.00  0.00    +0.000 C 
ATOM      4  C   UNL     1       4.049   2.704  16.885  0.00  0.00    +0.000 C 
ATOM      5  C   UNL     1       4.914   3.856  16.524  0.00  0.00    +0.000 C 
ATOM      6  N   UNL     1       5.021   4.359  15.347  0.00  0.00    +0.000 NA
ATOM      7  C   UNL     1       5.578   5.739  15.217  0.00  0.00    +0.000 C 
ATOM      8  C   UNL     1       6.543   6.286  16.305  0.00  0.00    +0.000 C 
ATOM      9  C   UNL     1       6.352   5.601  17.605  0.00  0.00    +0.000 A 
ATOM     10  C   UNL     1       6.790   5.821  18.895  0.00  0.00    +0.000 A 
ATOM     11  N   UNL     1       6.272   4.819  19.710  0.00  0.00    +0.000 N 
ATOM     12  C   UNL     1       5.491   4.000  18.926  0.00  0.00    +0.000 A 
ATOM     13  C   UNL     1       5.563   4.458  17.642  0.00  0.00    +0.000 A 
ATOM     14  H   UNL     1       6.412   4.720  20.705  0.00  0.00    +0.000 HD
ENDROOT
BRANCH   3  15
ATOM     15  N   UNL     1       2.814   1.358  18.440  0.00  0.00    +0.000 N 
ATOM     16  H   UNL     1       2.636   0.697  17.685  0.00  0.00    +0.000 HD
BRANCH  15  17
ATOM     17  C   UNL     1       1.660   1.677  19.275  0.00  0.00    +0.000 C 
BRANCH  17  18
ATOM     18  C   UNL     1       0.790   2.773  18.659  0.00  0.00    +0.000 C 
BRANCH  18  19
ATOM     19  C   UNL     1       1.330   4.134  19.032  0.00  0.00    +0.000 A 
ATOM     20  C   UNL     1       1.299   4.568  20.366  0.00  0.00    +0.000 A 
ATOM     21  C   UNL     1       1.741   5.848  20.700  0.00  0.00    +0.000 A 
ATOM     22  C   UNL     1       2.208   6.694  19.701  0.00  0.00    +0.000 A 
ATOM     23  F   UNL     1       2.628   7.925  20.023  0.00  0.00    +0.000 F 
ATOM     24  C   UNL     1       2.236   6.287  18.373  0.00  0.00    +0.000 A 
ATOM     25  C   UNL     1       1.793   5.008  18.037  0.00  0.00    +0.000 A 
ENDBRANCH  18  19
ENDBRANCH  17  18
ENDBRANCH  15  17
ENDBRANCH   3  15
TORSDOF 4
ENDMDL
MODEL 7
REMARK VINA RESULT:      -7.8      5.084      6.303
REMARK  Name = 
REMARK  4 active torsions:
REMARK  status: ('A' for Active; 'I' for Inactive)
REMARK    1  A    between atoms: C_3  and  N_4
REMARK    2  A    between atoms: N_4  and  C_5
REMARK    3  A    between atoms: C_5  and  C_6
REMARK    4  A    between atoms: C_6  and  C_7
REMARK                            x       y       z     vdW  Elec       q    Type
REMARK                         _______ _______ _______ _____ _____    ______ ____
ROOT
ATOM      1  O   UNL     1       6.771   4.350  18.365  0.00  0.00    +0.000 OA
ATOM      2  C   UNL     1       5.610   4.587  18.678  0.00  0.00    +0.000 C 
ATOM      3  C   UNL     1       4.854   5.878  18.248  0.00  0.00    +0.000 C 
ATOM      4  C   UNL     1       3.634   6.128  18.778  0.00  0.00    +0.000 C 
ATOM      5  C   UNL     1       2.860   5.162  19.598  0.00  0.00    +0.000 C 
ATOM      6  N   UNL     1       1.649   5.332  19.993  0.00  0.00    +0.000 NA
ATOM      7  C   UNL     1       0.874   4.133  20.431  0.00  0.00    +0.000 C 
ATOM      8  C   UNL     1       1.626   2.891  20.986  0.00  0.00    +0.000 C 
ATOM      9  C   UNL     1       3.022   2.827  20.493  0.00  0.00    +0.000 A 
ATOM     10  C   UNL     1       4.020   1.875  20.518  0.00  0.00    +0.000 A 
ATOM     11  N   UNL     1       5.142   2.399  19.884  0.00  0.00    +0.000 N 
ATOM     12  C   UNL     1       4.822   3.664  19.441  0.00  0.00    +0.000 A 
ATOM     13  C   UNL     1       3.544   3.935  19.838  0.00  0.00    +0.000 A 
ATOM     14  H   UNL     1       6.025   1.933  19.740  0.00  0.00    +0.000 HD
ENDROOT
BRANCH   3  15
ATOM     15  N   UNL     1       5.410   6.723  17.278  0.00  0.00    +0.000 N 
ATOM     16  H   UNL     1       5.417   7.704  17.552  0.00  0.00    +0.000 HD
BRANCH  15  17
ATOM     17  C   UNL     1       5.310   6.475  15.843  0.00  0.00    +0.000 C 
BRANCH  17  18
ATOM     18  C   UNL     1       4.953   5.021  15.534  0.00  0.00    +0.000 C 
BRANCH  18  19
ATOM     19  C   UNL     1       5.671   4.567  14.284  0.00  0.00    +0.000 A 
ATOM     20  C   UNL     1       5.053   3.670  13.399  0.00  0.00    +0.000 A 
ATOM     21  C   UNL     1       5.739   3.203  12.278  0.00  0.00    +0.000 A 
ATOM     22  C   UNL     1       7.042   3.629  12.046  0.00  0.00    +0.000 A 
ATOM     23  F   UNL     1       7.701   3.176  10.970  0.00  0.00    +0.000 F 
ATOM     24  C   UNL     1       7.674   4.507  12.916  0.00  0.00    +0.000 A 
ATOM     25  C   UNL     1       6.991   4.974  14.039  0.00  0.00    +0.000 A 
ENDBRANCH  18  19
ENDBRANCH  17  18
ENDBRANCH  15  17
ENDBRANCH   3  15
TORSDOF 4
ENDMDL
MODEL 8
REMARK VINA RESULT:      -7.7      5.131      6.311
REMARK  Name = 
REMARK  4 active torsions:
REMARK  status: ('A' for Active; 'I' for Inactive)
REMARK    1  A    between atoms: C_3  and  N_4
REMARK    2  A    between atoms: N_4  and  C_5
REMARK    3  A    between atoms: C_5  and  C_6
REMARK    4  A    between atoms: C_6  and  C_7
REMARK                            x       y       z     vdW  Elec       q    Type
REMARK                         _______ _______ _______ _____ _____    ______ ____
ROOT
ATOM      1  O   UNL     1       5.500   6.081  19.711  0.00  0.00    +0.000 OA
ATOM      2  C   UNL     1       4.772   5.193  19.284  0.00  0.00    +0.000 C 
ATOM      3  C   UNL     1       5.243   4.114  18.265  0.00  0.00    +0.000 C 
ATOM      4  C   UNL     1       4.325   3.278  17.727  0.00  0.00    +0.000 C 
ATOM      5  C   UNL     1       2.915   3.174  18.180  0.00  0.00    +0.000 C 
ATOM      6  N   UNL     1       2.072   2.294  17.774  0.00  0.00    +0.000 NA
ATOM      7  C   UNL     1       0.855   2.046  18.604  0.00  0.00    +0.000 C 
ATOM      8  C   UNL     1       0.306   3.173  19.523  0.00  0.00    +0.000 C 
ATOM      9  C   UNL     1       1.362   4.146  19.889  0.00  0.00    +0.000 A 
ATOM     10  C   UNL     1       1.459   5.180  20.799  0.00  0.00    +0.000 A 
ATOM     11  N   UNL     1       2.724   5.748  20.682  0.00  0.00    +0.000 N 
ATOM     12  C   UNL     1       3.415   5.043  19.722  0.00  0.00    +0.000 A 
ATOM     13  C   UNL     1       2.578   4.089  19.220  0.00  0.00    +0.000 A 
ATOM     14  H   UNL     1       3.090   6.518  21.222  0.00  0.00    +0.000 HD
ENDROOT
BRANCH   3  15
ATOM     15  N   UNL     1       6.607   3.979  17.972  0.00  0.00    +0.000 N 
ATOM     16  H   UNL     1       7.155   3.618  18.751  0.00  0.00    +0.000 HD
BRANCH  15  17
ATOM     17  C   UNL     1       7.325   4.864  17.060  0.00  0.00    +0.000 C 
BRANCH  17  18
ATOM     18  C   UNL     1       6.392   5.521  16.042  0.00  0.00    +0.000 C 
BRANCH  18  19
ATOM     19  C   UNL     1       6.629   4.935  14.670  0.00  0.00    +0.000 A 
ATOM     20  C   UNL     1       7.659   5.432  13.856  0.00  0.00    +0.000 A 
ATOM     21  C   UNL     1       7.837   4.933  12.565  0.00  0.00    +0.000 A 
ATOM     22  C   UNL     1       6.985   3.944  12.089  0.00  0.00    +0.000 A 
ATOM     23  F   UNL     1       7.155   3.469  10.847  0.00  0.00    +0.000 F 
ATOM     24  C   UNL     1       5.953   3.448  12.875  0.00  0.00    +0.000 A 
ATOM     25  C   UNL     1       5.771   3.946  14.165  0.00  0.00    +0.000 A 
ENDBRANCH  18  19
ENDBRANCH  17  18
ENDBRANCH  15  17
ENDBRANCH   3  15
TORSDOF 4
ENDMDL
MODEL 9
REMARK VINA RESULT:      -7.7      5.146      7.791
REMARK  Name = 
REMARK  4 active torsions:
REMARK  status: ('A' for Active; 'I' for Inactive)
REMARK    1  A    between atoms: C_3  and  N_4
REMARK    2  A    between atoms: N_4  and  C_5
REMARK    3  A    between atoms: C_5  and  C_6
REMARK    4  A    between atoms: C_6  and  C_7
REMARK                            x       y       z     vdW  Elec       q    Type
REMARK                         _______ _______ _______ _____ _____    ______ ____
ROOT
ATOM      1  O   UNL     1       2.025   8.805  17.770  0.00  0.00    +0.000 OA
ATOM      2  C   UNL     1       1.534   8.904  18.888  0.00  0.00    +0.000 C 
ATOM      3  C   UNL     1       1.794   7.881  20.031  0.00  0.00    +0.000 C 
ATOM      4  C   UNL     1       1.080   7.983  21.176  0.00  0.00    +0.000 C 
ATOM      5  C   UNL     1       0.191   9.124  21.513  0.00  0.00    +0.000 C 
ATOM      6  N   UNL     1      -0.385   9.302  22.648  0.00  0.00    +0.000 NA
ATOM      7  C   UNL     1      -0.887  10.668  22.979  0.00  0.00    +0.000 C 
ATOM      8  C   UNL     1      -1.275  11.645  21.834  0.00  0.00    +0.000 C 
ATOM      9  C   UNL     1      -0.577  11.315  20.569  0.00  0.00    +0.000 A 
ATOM     10  C   UNL     1      -0.415  11.947  19.353  0.00  0.00    +0.000 A 
ATOM     11  N   UNL     1       0.358  11.129  18.535  0.00  0.00    +0.000 N 
ATOM     12  C   UNL     1       0.698  10.009  19.259  0.00  0.00    +0.000 A 
ATOM     13  C   UNL     1       0.105  10.107  20.485  0.00  0.00    +0.000 A 
ATOM     14  H   UNL     1       0.651  11.328  17.589  0.00  0.00    +0.000 HD
ENDROOT
BRANCH   3  15
ATOM     15  N   UNL     1       2.802   6.918  19.891  0.00  0.00    +0.000 N 
ATOM     16  H   UNL     1       3.668   7.291  19.505  0.00  0.00    +0.000 HD
BRANCH  15  17
ATOM     17  C   UNL     1       2.538   5.514  19.589  0.00  0.00    +0.000 C 
BRANCH  17  18
ATOM     18  C   UNL     1       2.340   5.276  18.092  0.00  0.00    +0.000 C 
BRANCH  18  19
ATOM     19  C   UNL     1       3.680   5.188  17.400  0.00  0.00    +0.000 A 
ATOM     20  C   UNL     1       4.393   6.355  17.085  0.00  0.00    +0.000 A 
ATOM     21  C   UNL     1       5.601   6.277  16.391  0.00  0.00    +0.000 A 
ATOM     22  C   UNL     1       6.092   5.034  16.010  0.00  0.00    +0.000 A 
ATOM     23  F   UNL     1       7.250   4.961  15.339  0.00  0.00    +0.000 F 
ATOM     24  C   UNL     1       5.396   3.868  16.302  0.00  0.00    +0.000 A 
ATOM     25  C   UNL     1       4.187   3.944  16.994  0.00  0.00    +0.000 A 
ENDBRANCH  18  19
ENDBRANCH  17  18
ENDBRANCH  15  17
ENDBRANCH   3  15
TORSDOF 4
ENDMDL
