MODEL 1
REMARK VINA RESULT:      -7.0      0.000      0.000
REMARK  Name = 
REMARK  4 active torsions:
REMARK  status: ('A' for Active; 'I' for Inactive)
REMARK    1  A    between atoms: C_2  and  O_3
REMARK    2  A    between atoms: C_2  and  C_4
REMARK    3  A    between atoms: C_5  and  C_6
REMARK    4  A    between atoms: C_5  and  C_12
REMARK                            x       y       z     vdW  Elec       q    Type
REMARK                         _______ _______ _______ _____ _____    ______ ____
ROOT
ATOM      1  C   UNL     1       5.456   4.434  15.371  0.00  0.00    +0.000 C 
ATOM      2  C   UNL     1       5.253   5.004  16.575  0.00  0.00    +0.000 C 
ENDROOT
BRANCH   2   3
ATOM      3  C   UNL     1       3.971   4.675  17.241  0.00  0.00    +0.000 A 
ATOM      4  C   UNL     1       3.449   3.376  17.153  0.00  0.00    +0.000 A 
ATOM      5  C   UNL     1       2.224   3.066  17.748  0.00  0.00    +0.000 A 
ATOM      6  C   UNL     1       1.515   4.049  18.437  0.00  0.00    +0.000 A 
ATOM      7  C   UNL     1       2.033   5.339  18.540  0.00  0.00    +0.000 A 
ATOM      8  C   UNL     1       3.257   5.654  17.945  0.00  0.00    +0.000 A 
ENDBRANCH   2   3
BRANCH   2   9
ATOM      9  C   UNL     1       6.238   5.821  17.203  0.00  0.00    +0.000 A 
ATOM     10  C   UNL     1       6.502   7.167  17.024  0.00  0.00    +0.000 A 
ATOM     11  C   UNL     1       7.582   7.628  17.830  0.00  0.00    +0.000 A 
ATOM     12  C   UNL     1       8.104   6.626  18.614  0.00  0.00    +0.000 A 
ATOM     13  S   UNL     1       7.300   5.139  18.373  0.00  0.00    +0.000 S 
ENDBRANCH   2   9
BRANCH   1  15
ATOM     14  O   UNL     1       7.499   5.245  14.558  0.00  0.00    +0.000 OA
ATOM     15  C   UNL     1       6.594   4.433  14.428  0.00  0.00    +0.000 C 
BRANCH  15  16
ATOM     16  O   UNL     1       6.607   3.508  13.458  0.00  0.00    +0.000 OA
ATOM     17  H   UNL     1       6.169   2.664  13.666  0.00  0.00    +0.000 HD
ENDBRANCH  15  16
ENDBRANCH   1  15
TORSDOF 4
ENDMDL
MODEL 2
REMARK VINA RESULT:      -7.0      3.482      5.501
REMARK  Name = 
REMARK  4 active torsions:
REMARK  status: ('A' for Active; 'I' for Inactive)
REMARK    1  A    between atoms: C_2  and  O_3
REMARK    2  A    between atoms: C_2  and  C_4
REMARK    3  A    between atoms: C_5  and  C_6
REMARK    4  A    between atoms: C_5  and  C_12
REMARK                            x       y       z     vdW  Elec       q    Type
REMARK                         _______ _______ _______ _____ _____    ______ ____
ROOT
ATOM      1  C   UNL     1       4.420   5.827  19.092  0.00  0.00    +0.000 C 
ATOM      2  C   UNL     1       3.117   5.881  19.431  0.00  0.00    +0.000 C 
ENDROOT
BRANCH   2   3
ATOM      3  C   UNL     1       2.450   7.191  19.239  0.00  0.00    +0.000 A 
ATOM      4  C   UNL     1       1.758   7.787  20.304  0.00  0.00    +0.000 A 
ATOM      5  C   UNL     1       1.097   9.003  20.122  0.00  0.00    +0.000 A 
ATOM      6  C   UNL     1       1.125   9.634  18.879  0.00  0.00    +0.000 A 
ATOM      7  C   UNL     1       1.822   9.055  17.820  0.00  0.00    +0.000 A 
ATOM      8  C   UNL     1       2.484   7.837  17.996  0.00  0.00    +0.000 A 
ENDBRANCH   2   3
BRANCH   2   9
ATOM      9  C   UNL     1       2.402   4.733  19.882  0.00  0.00    +0.000 A 
ATOM     10  C   UNL     1       2.263   4.239  21.166  0.00  0.00    +0.000 A 
ATOM     11  C   UNL     1       1.475   3.052  21.217  0.00  0.00    +0.000 A 
ATOM     12  C   UNL     1       1.022   2.681  19.972  0.00  0.00    +0.000 A 
ATOM     13  S   UNL     1       1.550   3.754  18.753  0.00  0.00    +0.000 S 
ENDBRANCH   2   9
BRANCH   1  15
ATOM     14  O   UNL     1       6.401   4.777  19.774  0.00  0.00    +0.000 OA
ATOM     15  C   UNL     1       5.414   4.733  19.054  0.00  0.00    +0.000 C 
BRANCH  15  16
ATOM     16  O   UNL     1       5.182   3.700  18.233  0.00  0.00    +0.000 OA
ATOM     17  H   UNL     1       5.231   2.815  18.635  0.00  0.00    +0.000 HD
ENDBRANCH  15  16
ENDBRANCH   1  15
TORSDOF 4
ENDMDL
MODEL 3
REMARK VINA RESULT:      -6.9      0.461      1.282
REMARK  Name = 
REMARK  4 active torsions:
REMARK  status: ('A' for Active; 'I' for Inactive)
REMARK    1  A    between atoms: C_2  and  O_3
REMARK    2  A    between atoms: C_2  and  C_4
REMARK    3  A    between atoms: C_5  and  C_6
REMARK    4  A    between atoms: C_5  and  C_12
REMARK                            x       y       z     vdW  Elec       q    Type
REMARK                         _______ _______ _______ _____ _____    ______ ____
ROOT
ATOM      1  C   UNL     1       5.284   4.176  15.234  0.00  0.00    +0.000 C 
ATOM      2  C   UNL     1       5.089   4.704  16.459  0.00  0.00    +0.000 C 
ENDROOT
BRANCH   2   3
ATOM      3  C   UNL     1       3.877   4.246  17.178  0.00  0.00    +0.000 A 
ATOM      4  C   UNL     1       3.018   5.183  17.771  0.00  0.00    +0.000 A 
ATOM      5  C   UNL     1       1.893   4.758  18.481  0.00  0.00    +0.000 A 
ATOM      6  C   UNL     1       1.616   3.398  18.600  0.00  0.00    +0.000 A 
ATOM      7  C   UNL     1       2.456   2.460  18.001  0.00  0.00    +0.000 A 
ATOM      8  C   UNL     1       3.585   2.880  17.292  0.00  0.00    +0.000 A 
ENDBRANCH   2   3
BRANCH   2   9
ATOM      9  C   UNL     1       6.025   5.596  17.058  0.00  0.00    +0.000 A 
ATOM     10  C   UNL     1       6.125   6.970  16.937  0.00  0.00    +0.000 A 
ATOM     11  C   UNL     1       7.209   7.512  17.685  0.00  0.00    +0.000 A 
ATOM     12  C   UNL     1       7.899   6.539  18.371  0.00  0.00    +0.000 A 
ATOM     13  S   UNL     1       7.246   4.984  18.105  0.00  0.00    +0.000 S 
ENDBRANCH   2   9
BRANCH   1  15
ATOM     14  O   UNL     1       7.149   5.238  14.292  0.00  0.00    +0.000 OA
ATOM     15  C   UNL     1       6.369   4.297  14.238  0.00  0.00    +0.000 C 
BRANCH  15  16
ATOM     16  O   UNL     1       6.479   3.339  13.307  0.00  0.00    +0.000 OA
ATOM     17  H   UNL     1       5.645   2.934  13.011  0.00  0.00    +0.000 HD
ENDBRANCH  15  16
ENDBRANCH   1  15
TORSDOF 4
ENDMDL
MODEL 4
REMARK VINA RESULT:      -6.9      3.180      5.352
REMARK  Name = 
REMARK  4 active torsions:
REMARK  status: ('A' for Active; 'I' for Inactive)
REMARK    1  A    between atoms: C_2  and  O_3
REMARK    2  A    between atoms: C_2  and  C_4
REMARK    3  A    between atoms: C_5  and  C_6
REMARK    4  A    between atoms: C_5  and  C_12
REMARK                            x       y       z     vdW  Elec       q    Type
REMARK                         _______ _______ _______ _____ _____    ______ ____
ROOT
ATOM      1  C   UNL     1       4.342   5.677  18.728  0.00  0.00    +0.000 C 
ATOM      2  C   UNL     1       3.053   5.781  19.106  0.00  0.00    +0.000 C 
ENDROOT
BRANCH   2   3
ATOM      3  C   UNL     1       2.463   7.139  19.037  0.00  0.00    +0.000 A 
ATOM      4  C   UNL     1       1.813   7.678  20.157  0.00  0.00    +0.000 A 
ATOM      5  C   UNL     1       1.224   8.942  20.090  0.00  0.00    +0.000 A 
ATOM      6  C   UNL     1       1.282   9.677  18.907  0.00  0.00    +0.000 A 
ATOM      7  C   UNL     1       1.938   9.154  17.793  0.00  0.00    +0.000 A 
ATOM      8  C   UNL     1       2.528   7.889  17.855  0.00  0.00    +0.000 A 
ENDBRANCH   2   3
BRANCH   2   9
ATOM      9  C   UNL     1       2.280   4.645  19.486  0.00  0.00    +0.000 A 
ATOM     10  C   UNL     1       1.448   3.856  18.712  0.00  0.00    +0.000 A 
ATOM     11  C   UNL     1       0.832   2.809  19.458  0.00  0.00    +0.000 A 
ATOM     12  C   UNL     1       1.222   2.819  20.777  0.00  0.00    +0.000 A 
ATOM     13  S   UNL     1       2.318   4.085  21.112  0.00  0.00    +0.000 S 
ENDBRANCH   2   9
BRANCH   1  15
ATOM     14  O   UNL     1       6.151   4.347  19.399  0.00  0.00    +0.000 OA
ATOM     15  C   UNL     1       5.266   4.533  18.576  0.00  0.00    +0.000 C 
BRANCH  15  16
ATOM     16  O   UNL     1       5.083   3.710  17.535  0.00  0.00    +0.000 OA
ATOM     17  H   UNL     1       5.776   3.043  17.389  0.00  0.00    +0.000 HD
ENDBRANCH  15  16
ENDBRANCH   1  15
TORSDOF 4
ENDMDL
MODEL 5
REMARK VINA RESULT:      -6.9      0.938      1.191
REMARK  Name = 
REMARK  4 active torsions:
REMARK  status: ('A' for Active; 'I' for Inactive)
REMARK    1  A    between atoms: C_2  and  O_3
REMARK    2  A    between atoms: C_2  and  C_4
REMARK    3  A    between atoms: C_5  and  C_6
REMARK    4  A    between atoms: C_5  and  C_12
REMARK                            x       y       z     vdW  Elec       q    Type
REMARK                         _______ _______ _______ _____ _____    ______ ____
ROOT
ATOM      1  C   UNL     1       5.374   4.056  15.376  0.00  0.00    +0.000 C 
ATOM      2  C   UNL     1       5.185   4.476  16.642  0.00  0.00    +0.000 C 
ENDROOT
BRANCH   2   3
ATOM      3  C   UNL     1       3.903   4.081  17.274  0.00  0.00    +0.000 A 
ATOM      4  C   UNL     1       3.593   2.723  17.439  0.00  0.00    +0.000 A 
ATOM      5  C   UNL     1       2.372   2.341  18.000  0.00  0.00    +0.000 A 
ATOM      6  C   UNL     1       1.456   3.312  18.402  0.00  0.00    +0.000 A 
ATOM      7  C   UNL     1       1.763   4.663  18.254  0.00  0.00    +0.000 A 
ATOM      8  C   UNL     1       2.982   5.050  17.691  0.00  0.00    +0.000 A 
ENDBRANCH   2   3
BRANCH   2   9
ATOM      9  C   UNL     1       6.183   5.198  17.359  0.00  0.00    +0.000 A 
ATOM     10  C   UNL     1       7.127   4.730  18.255  0.00  0.00    +0.000 A 
ATOM     11  C   UNL     1       7.951   5.768  18.779  0.00  0.00    +0.000 A 
ATOM     12  C   UNL     1       7.624   6.998  18.257  0.00  0.00    +0.000 A 
ATOM     13  S   UNL     1       6.328   6.900  17.150  0.00  0.00    +0.000 S 
ENDBRANCH   2   9
BRANCH   1  15
ATOM     14  O   UNL     1       7.463   4.870  14.697  0.00  0.00    +0.000 OA
ATOM     15  C   UNL     1       6.505   4.159  14.431  0.00  0.00    +0.000 C 
BRANCH  15  16
ATOM     16  O   UNL     1       6.451   3.436  13.303  0.00  0.00    +0.000 OA
ATOM     17  H   UNL     1       7.250   3.449  12.748  0.00  0.00    +0.000 HD
ENDBRANCH  15  16
ENDBRANCH   1  15
TORSDOF 4
ENDMDL
MODEL 6
REMARK VINA RESULT:      -6.8      3.440      5.553
REMARK  Name = 
REMARK  4 active torsions:
REMARK  status: ('A' for Active; 'I' for Inactive)
REMARK    1  A    between atoms: C_2  and  O_3
REMARK    2  A    between atoms: C_2  and  C_4
REMARK    3  A    between atoms: C_5  and  C_6
REMARK    4  A    between atoms: C_5  and  C_12
REMARK                            x       y       z     vdW  Elec       q    Type
REMARK                         _______ _______ _______ _____ _____    ______ ____
ROOT
ATOM      1  C   UNL     1       4.329   5.971  19.055  0.00  0.00    +0.000 C 
ATOM      2  C   UNL     1       3.028   5.997  19.406  0.00  0.00    +0.000 C 
ENDROOT
BRANCH   2   3
ATOM      3  C   UNL     1       2.340   7.300  19.255  0.00  0.00    +0.000 A 
ATOM      4  C   UNL     1       2.370   7.970  18.023  0.00  0.00    +0.000 A 
ATOM      5  C   UNL     1       1.755   9.215  17.882  0.00  0.00    +0.000 A 
ATOM      6  C   UNL     1       1.103   9.798  18.967  0.00  0.00    +0.000 A 
ATOM      7  C   UNL     1       1.056   9.133  20.191  0.00  0.00    +0.000 A 
ATOM      8  C   UNL     1       1.672   7.888  20.338  0.00  0.00    +0.000 A 
ENDBRANCH   2   3
BRANCH   2   9
ATOM      9  C   UNL     1       2.335   4.827  19.833  0.00  0.00    +0.000 A 
ATOM     10  C   UNL     1       2.175   4.323  21.111  0.00  0.00    +0.000 A 
ATOM     11  C   UNL     1       1.421   3.114  21.136  0.00  0.00    +0.000 A 
ATOM     12  C   UNL     1       1.014   2.735  19.878  0.00  0.00    +0.000 A 
ATOM     13  S   UNL     1       1.543   3.828  18.678  0.00  0.00    +0.000 S 
ENDBRANCH   2   9
BRANCH   1  15
ATOM     14  O   UNL     1       5.188   3.966  18.200  0.00  0.00    +0.000 OA
ATOM     15  C   UNL     1       5.339   4.895  18.980  0.00  0.00    +0.000 C 
BRANCH  15  16
ATOM     16  O   UNL     1       6.420   4.990  19.767  0.00  0.00    +0.000 OA
ATOM     17  H   UNL     1       6.747   4.156  20.147  0.00  0.00    +0.000 HD
ENDBRANCH  15  16
ENDBRANCH   1  15
TORSDOF 4
ENDMDL
MODEL 7
REMARK VINA RESULT:      -6.8      3.182      5.320
REMARK  Name = 
REMARK  4 active torsions:
REMARK  status: ('A' for Active; 'I' for Inactive)
REMARK    1  A    between atoms: C_2  and  O_3
REMARK    2  A    between atoms: C_2  and  C_4
REMARK    3  A    between atoms: C_5  and  C_6
REMARK    4  A    between atoms: C_5  and  C_12
REMARK                            x       y       z     vdW  Elec       q    Type
REMARK                         _______ _______ _______ _____ _____    ______ ____
ROOT
ATOM      1  C   UNL     1       4.332   5.703  18.726  0.00  0.00    +0.000 C 
ATOM      2  C   UNL     1       3.042   5.789  19.103  0.00  0.00    +0.000 C 
ENDROOT
BRANCH   2   3
ATOM      3  C   UNL     1       2.432   7.138  19.030  0.00  0.00    +0.000 A 
ATOM      4  C   UNL     1       2.522   7.884  17.846  0.00  0.00    +0.000 A 
ATOM      5  C   UNL     1       1.982   9.170  17.780  0.00  0.00    +0.000 A 
ATOM      6  C   UNL     1       1.346   9.718  18.893  0.00  0.00    +0.000 A 
ATOM      7  C   UNL     1       1.240   8.977  20.069  0.00  0.00    +0.000 A 
ATOM      8  C   UNL     1       1.781   7.691  20.141  0.00  0.00    +0.000 A 
ENDBRANCH   2   3
BRANCH   2   9
ATOM      9  C   UNL     1       2.285   4.643  19.485  0.00  0.00    +0.000 A 
ATOM     10  C   UNL     1       1.479   3.829  18.709  0.00  0.00    +0.000 A 
ATOM     11  C   UNL     1       0.872   2.780  19.458  0.00  0.00    +0.000 A 
ATOM     12  C   UNL     1       1.243   2.812  20.783  0.00  0.00    +0.000 A 
ATOM     13  S   UNL     1       2.309   4.102  21.118  0.00  0.00    +0.000 S 
ENDBRANCH   2   9
BRANCH   1  15
ATOM     14  O   UNL     1       6.136   4.379  19.422  0.00  0.00    +0.000 OA
ATOM     15  C   UNL     1       5.273   4.572  18.578  0.00  0.00    +0.000 C 
BRANCH  15  16
ATOM     16  O   UNL     1       5.128   3.768  17.516  0.00  0.00    +0.000 OA
ATOM     17  H   UNL     1       4.223   3.672  17.172  0.00  0.00    +0.000 HD
ENDBRANCH  15  16
ENDBRANCH   1  15
TORSDOF 4
ENDMDL
MODEL 8
REMARK VINA RESULT:      -6.8      2.969      4.135
REMARK  Name = 
REMARK  4 active torsions:
REMARK  status: ('A' for Active; 'I' for Inactive)
REMARK    1  A    between atoms: C_2  and  O_3
REMARK    2  A    between atoms: C_2  and  C_4
REMARK    3  A    between atoms: C_5  and  C_6
REMARK    4  A    between atoms: C_5  and  C_12
REMARK                            x       y       z     vdW  Elec       q    Type
REMARK                         _______ _______ _______ _____ _____    ______ ____
ROOT
ATOM      1  C   UNL     1       3.579   3.625  19.116  0.00  0.00    +0.000 C 
ATOM      2  C   UNL     1       3.970   4.662  18.350  0.00  0.00    +0.000 C 
ENDROOT
BRANCH   2   3
ATOM      3  C   UNL     1       3.299   5.957  18.617  0.00  0.00    +0.000 A 
ATOM      4  C   UNL     1       2.574   6.139  19.804  0.00  0.00    +0.000 A 
ATOM      5  C   UNL     1       1.909   7.342  20.047  0.00  0.00    +0.000 A 
ATOM      6  C   UNL     1       1.966   8.372  19.110  0.00  0.00    +0.000 A 
ATOM      7  C   UNL     1       2.695   8.205  17.934  0.00  0.00    +0.000 A 
ATOM      8  C   UNL     1       3.360   7.001  17.685  0.00  0.00    +0.000 A 
ENDBRANCH   2   3
BRANCH   2   9
ATOM      9  C   UNL     1       5.013   4.542  17.386  0.00  0.00    +0.000 A 
ATOM     10  C   UNL     1       4.937   4.162  16.058  0.00  0.00    +0.000 A 
ATOM     11  C   UNL     1       6.209   4.151  15.415  0.00  0.00    +0.000 A 
ATOM     12  C   UNL     1       7.219   4.537  16.265  0.00  0.00    +0.000 A 
ATOM     13  S   UNL     1       6.636   4.903  17.828  0.00  0.00    +0.000 S 
ENDBRANCH   2   9
BRANCH   1  15
ATOM     14  O   UNL     1       3.474   1.347  18.581  0.00  0.00    +0.000 OA
ATOM     15  C   UNL     1       4.028   2.222  19.230  0.00  0.00    +0.000 C 
BRANCH  15  16
ATOM     16  O   UNL     1       5.064   1.956  20.038  0.00  0.00    +0.000 OA
ATOM     17  H   UNL     1       4.844   1.755  20.964  0.00  0.00    +0.000 HD
ENDBRANCH  15  16
ENDBRANCH   1  15
TORSDOF 4
ENDMDL
MODEL 9
REMARK VINA RESULT:      -6.8      2.933      4.123
REMARK  Name = 
REMARK  4 active torsions:
REMARK  status: ('A' for Active; 'I' for Inactive)
REMARK    1  A    between atoms: C_2  and  O_3
REMARK    2  A    between atoms: C_2  and  C_4
REMARK    3  A    between atoms: C_5  and  C_6
REMARK    4  A    between atoms: C_5  and  C_12
REMARK                            x       y       z     vdW  Elec       q    Type
REMARK                         _______ _______ _______ _____ _____    ______ ____
ROOT
ATOM      1  C   UNL     1       3.507   3.607  19.072  0.00  0.00    +0.000 C 
ATOM      2  C   UNL     1       3.917   4.662  18.339  0.00  0.00    +0.000 C 
ENDROOT
BRANCH   2   3
ATOM      3  C   UNL     1       3.228   5.946  18.607  0.00  0.00    +0.000 A 
ATOM      4  C   UNL     1       3.278   6.979  17.659  0.00  0.00    +0.000 A 
ATOM      5  C   UNL     1       2.661   8.204  17.919  0.00  0.00    +0.000 A 
ATOM      6  C   UNL     1       1.988   8.406  19.123  0.00  0.00    +0.000 A 
ATOM      7  C   UNL     1       1.922   7.380  20.064  0.00  0.00    +0.000 A 
ATOM      8  C   UNL     1       2.539   6.153  19.810  0.00  0.00    +0.000 A 
ENDBRANCH   2   3
BRANCH   2   9
ATOM      9  C   UNL     1       4.995   4.567  17.412  0.00  0.00    +0.000 A 
ATOM     10  C   UNL     1       4.973   4.189  16.081  0.00  0.00    +0.000 A 
ATOM     11  C   UNL     1       6.266   4.207  15.482  0.00  0.00    +0.000 A 
ATOM     12  C   UNL     1       7.238   4.613  16.367  0.00  0.00    +0.000 A 
ATOM     13  S   UNL     1       6.594   4.962  17.909  0.00  0.00    +0.000 S 
ENDBRANCH   2   9
BRANCH   1  15
ATOM     14  O   UNL     1       3.397   1.329  18.537  0.00  0.00    +0.000 OA
ATOM     15  C   UNL     1       3.962   2.205  19.175  0.00  0.00    +0.000 C 
BRANCH  15  16
ATOM     16  O   UNL     1       5.016   1.942  19.960  0.00  0.00    +0.000 OA
ATOM     17  H   UNL     1       5.142   1.009  20.209  0.00  0.00    +0.000 HD
ENDBRANCH  15  16
ENDBRANCH   1  15
TORSDOF 4
ENDMDL
