MODEL 1
REMARK VINA RESULT:      -7.5      0.000      0.000
REMARK  Name = 
REMARK  18 active torsions:
REMARK  status: ('A' for Active; 'I' for Inactive)
REMARK    1  A    between atoms: C_1  and  O_2
REMARK    2  A    between atoms: O_2  and  C_3
REMARK    3  A    between atoms: C_6  and  N_7
REMARK    4  A    between atoms: C_8  and  C_10
REMARK    5  A    between atoms: C_10  and  N_11
REMARK    6  A    between atoms: N_11  and  C_12
REMARK    7  A    between atoms: N_11  and  C_13
REMARK    8  A    between atoms: C_13  and  C_14
REMARK    9  A    between atoms: N_16  and  C_17
REMARK   10  A    between atoms: N_16  and  C_21
REMARK   11  A    between atoms: C_17  and  C_18
REMARK   12  A    between atoms: C_18  and  C_19
REMARK   13  A    between atoms: C_18  and  C_20
REMARK   14  A    between atoms: C_22  and  N_23
REMARK   15  A    between atoms: N_24  and  C_25
REMARK   16  A    between atoms: C_25  and  C_26
REMARK   17  A    between atoms: C_26  and  C_27
REMARK   18  A    between atoms: C_26  and  C_28
REMARK                            x       y       z     vdW  Elec       q    Type
REMARK                         _______ _______ _______ _____ _____    ______ ____
ROOT
ATOM      1  C   UNL     1       5.017   4.714  19.500  0.00  0.00    +0.000 C 
ATOM      2  O   UNL     1       5.506   3.626  19.814  0.00  0.00    +0.000 OA
ATOM      3  N   UNL     1       3.640   4.869  19.246  0.00  0.00    +0.000 N 
ENDROOT
BRANCH   3   4
ATOM      4  C   UNL     1       3.078   6.097  18.895  0.00  0.00    +0.000 A 
ATOM      5  C   UNL     1       2.229   6.751  19.721  0.00  0.00    +0.000 A 
ATOM      6  N   UNL     1       1.786   8.024  19.377  0.00  0.00    +0.000 N 
ATOM      7  C   UNL     1       2.234   8.694  18.240  0.00  0.00    +0.000 A 
ATOM      8  O   UNL     1       1.880   9.825  17.916  0.00  0.00    +0.000 OA
ATOM      9  N   UNL     1       3.111   8.020  17.444  0.00  0.00    +0.000 N 
ATOM     10  C   UNL     1       3.460   6.715  17.592  0.00  0.00    +0.000 A 
ATOM     11  O   UNL     1       4.022   6.088  16.699  0.00  0.00    +0.000 OA
ATOM     12  H   UNL     1       3.355   8.467  16.574  0.00  0.00    +0.000 HD
BRANCH   5  13
ATOM     13  N   UNL     1       1.825   6.150  20.907  0.00  0.00    +0.000 N 
ATOM     14  H   UNL     1       2.300   6.540  21.724  0.00  0.00    +0.000 HD
ATOM     15  H   UNL     1       0.819   6.172  21.048  0.00  0.00    +0.000 HD
ENDBRANCH   5  13
BRANCH   6  16
ATOM     16  C   UNL     1       0.799   8.715  20.215  0.00  0.00    +0.000 C 
BRANCH  16  17
ATOM     17  C   UNL     1       1.407   9.711  21.227  0.00  0.00    +0.000 C 
ATOM     18  C   UNL     1       0.936  11.148  21.007  0.00  0.00    +0.000 C 
ATOM     19  C   UNL     1       1.045   9.266  22.645  0.00  0.00    +0.000 C 
ENDBRANCH  16  17
ENDBRANCH   6  16
ENDBRANCH   3   4
BRANCH   1  20
ATOM     20  C   UNL     1       5.916   5.963  19.321  0.00  0.00    +0.000 C 
BRANCH  20  21
ATOM     21  N   UNL     1       6.789   5.947  18.113  0.00  0.00    +0.000 NA
ATOM     22  C   UNL     1       7.032   4.556  17.692  0.00  0.00    +0.000 C 
BRANCH  21  23
ATOM     23  C   UNL     1       8.068   6.586  18.550  0.00  0.00    +0.000 C 
BRANCH  23  25
ATOM     24  N   UNL     1       8.924   8.782  19.139  0.00  0.00    +0.000 N 
ATOM     25  C   UNL     1       8.165   8.069  18.232  0.00  0.00    +0.000 C 
ATOM     26  O   UNL     1       7.656   8.507  17.201  0.00  0.00    +0.000 OA
ATOM     27  H   UNL     1       9.381   8.223  19.855  0.00  0.00    +0.000 HD
BRANCH  24  31
ATOM     28  C   UNL     1       9.437  12.960  19.052  0.00  0.00    +0.000 A 
ATOM     29  C   UNL     1       9.610  12.268  20.248  0.00  0.00    +0.000 A 
ATOM     30  C   UNL     1       9.460  10.883  20.290  0.00  0.00    +0.000 A 
ATOM     31  C   UNL     1       9.123  10.172  19.139  0.00  0.00    +0.000 A 
ATOM     32  C   UNL     1       8.980  10.859  17.932  0.00  0.00    +0.000 A 
ATOM     33  C   UNL     1       9.121  12.253  17.892  0.00  0.00    +0.000 A 
BRANCH  28  35
ATOM     34  C   UNL     1      10.501  14.919  18.272  0.00  0.00    +0.000 C 
ATOM     35  O   UNL     1       9.565  14.316  19.154  0.00  0.00    +0.000 OA
ENDBRANCH  28  35
ENDBRANCH  24  31
ENDBRANCH  23  25
ENDBRANCH  21  23
ENDBRANCH  20  21
ENDBRANCH   1  20
BRANCH   3  36
ATOM     36  C   UNL     1       2.714   3.760  19.558  0.00  0.00    +0.000 C 
BRANCH  36  37
ATOM     37  C   UNL     1       1.952   3.124  18.357  0.00  0.00    +0.000 C 
ATOM     38  C   UNL     1       2.770   2.154  17.496  0.00  0.00    +0.000 C 
ATOM     39  C   UNL     1       0.631   2.472  18.768  0.00  0.00    +0.000 C 
ENDBRANCH  36  37
ENDBRANCH   3  36
TORSDOF 12
ENDMDL
MODEL 2
REMARK VINA RESULT:      -7.4      1.647      2.562
REMARK  Name = 
REMARK  18 active torsions:
REMARK  status: ('A' for Active; 'I' for Inactive)
REMARK    1  A    between atoms: C_1  and  O_2
REMARK    2  A    between atoms: O_2  and  C_3
REMARK    3  A    between atoms: C_6  and  N_7
REMARK    4  A    between atoms: C_8  and  C_10
REMARK    5  A    between atoms: C_10  and  N_11
REMARK    6  A    between atoms: N_11  and  C_12
REMARK    7  A    between atoms: N_11  and  C_13
REMARK    8  A    between atoms: C_13  and  C_14
REMARK    9  A    between atoms: N_16  and  C_17
REMARK   10  A    between atoms: N_16  and  C_21
REMARK   11  A    between atoms: C_17  and  C_18
REMARK   12  A    between atoms: C_18  and  C_19
REMARK   13  A    between atoms: C_18  and  C_20
REMARK   14  A    between atoms: C_22  and  N_23
REMARK   15  A    between atoms: N_24  and  C_25
REMARK   16  A    between atoms: C_25  and  C_26
REMARK   17  A    between atoms: C_26  and  C_27
REMARK   18  A    between atoms: C_26  and  C_28
REMARK                            x       y       z     vdW  Elec       q    Type
REMARK                         _______ _______ _______ _____ _____    ______ ____
ROOT
ATOM      1  C   UNL     1       4.098   5.109  17.520  0.00  0.00    +0.000 C 
ATOM      2  O   UNL     1       4.389   4.275  16.659  0.00  0.00    +0.000 OA
ATOM      3  N   UNL     1       2.782   5.255  18.003  0.00  0.00    +0.000 N 
ENDROOT
BRANCH   3   4
ATOM      4  C   UNL     1       2.445   6.192  18.980  0.00  0.00    +0.000 A 
ATOM      5  C   UNL     1       2.113   7.465  18.659  0.00  0.00    +0.000 A 
ATOM      6  N   UNL     1       1.674   8.329  19.658  0.00  0.00    +0.000 N 
ATOM      7  C   UNL     1       1.494   7.922  20.978  0.00  0.00    +0.000 A 
ATOM      8  O   UNL     1       1.090   8.651  21.880  0.00  0.00    +0.000 OA
ATOM      9  N   UNL     1       1.810   6.627  21.263  0.00  0.00    +0.000 N 
ATOM     10  C   UNL     1       2.416   5.762  20.408  0.00  0.00    +0.000 A 
ATOM     11  O   UNL     1       2.927   4.716  20.797  0.00  0.00    +0.000 OA
ATOM     12  H   UNL     1       1.774   6.365  22.235  0.00  0.00    +0.000 HD
BRANCH   5  13
ATOM     13  N   UNL     1       2.198   7.884  17.337  0.00  0.00    +0.000 N 
ATOM     14  H   UNL     1       3.165   8.004  17.027  0.00  0.00    +0.000 HD
ATOM     15  H   UNL     1       1.701   7.279  16.690  0.00  0.00    +0.000 HD
ENDBRANCH   5  13
BRANCH   6  16
ATOM     16  C   UNL     1       1.391   9.734  19.346  0.00  0.00    +0.000 C 
BRANCH  16  17
ATOM     17  C   UNL     1      -0.111  10.092  19.318  0.00  0.00    +0.000 C 
ATOM     18  C   UNL     1      -0.464  11.263  20.234  0.00  0.00    +0.000 C 
ATOM     19  C   UNL     1      -0.520  10.425  17.882  0.00  0.00    +0.000 C 
ENDBRANCH  16  17
ENDBRANCH   6  16
ENDBRANCH   3   4
BRANCH   1  20
ATOM     20  C   UNL     1       5.171   6.076  18.080  0.00  0.00    +0.000 C 
BRANCH  20  21
ATOM     21  N   UNL     1       5.752   7.022  17.084  0.00  0.00    +0.000 NA
ATOM     22  C   UNL     1       5.246   6.699  15.738  0.00  0.00    +0.000 C 
BRANCH  21  23
ATOM     23  C   UNL     1       7.228   6.795  17.151  0.00  0.00    +0.000 C 
BRANCH  23  25
ATOM     24  N   UNL     1       7.811   9.116  17.572  0.00  0.00    +0.000 N 
ATOM     25  C   UNL     1       7.978   7.813  17.996  0.00  0.00    +0.000 C 
ATOM     26  O   UNL     1       8.590   7.442  18.997  0.00  0.00    +0.000 OA
ATOM     27  H   UNL     1       7.156   9.241  16.805  0.00  0.00    +0.000 HD
BRANCH  24  31
ATOM     28  C   UNL     1       9.798  12.443  19.219  0.00  0.00    +0.000 A 
ATOM     29  C   UNL     1       8.914  12.622  18.158  0.00  0.00    +0.000 A 
ATOM     30  C   UNL     1       8.236  11.534  17.612  0.00  0.00    +0.000 A 
ATOM     31  C   UNL     1       8.441  10.248  18.112  0.00  0.00    +0.000 A 
ATOM     32  C   UNL     1       9.302  10.070  19.197  0.00  0.00    +0.000 A 
ATOM     33  C   UNL     1       9.992  11.162  19.739  0.00  0.00    +0.000 A 
BRANCH  28  35
ATOM     34  C   UNL     1      10.525  13.764  21.037  0.00  0.00    +0.000 C 
ATOM     35  O   UNL     1      10.433  13.579  19.631  0.00  0.00    +0.000 OA
ENDBRANCH  28  35
ENDBRANCH  24  31
ENDBRANCH  23  25
ENDBRANCH  21  23
ENDBRANCH  20  21
ENDBRANCH   1  20
BRANCH   3  36
ATOM     36  C   UNL     1       1.757   4.259  17.631  0.00  0.00    +0.000 C 
BRANCH  36  37
ATOM     37  C   UNL     1       1.759   2.919  18.426  0.00  0.00    +0.000 C 
ATOM     38  C   UNL     1       0.381   2.405  18.856  0.00  0.00    +0.000 C 
ATOM     39  C   UNL     1       2.535   1.808  17.716  0.00  0.00    +0.000 C 
ENDBRANCH  36  37
ENDBRANCH   3  36
TORSDOF 12
ENDMDL
MODEL 3
REMARK VINA RESULT:      -7.4      1.424      2.183
REMARK  Name = 
REMARK  18 active torsions:
REMARK  status: ('A' for Active; 'I' for Inactive)
REMARK    1  A    between atoms: C_1  and  O_2
REMARK    2  A    between atoms: O_2  and  C_3
REMARK    3  A    between atoms: C_6  and  N_7
REMARK    4  A    between atoms: C_8  and  C_10
REMARK    5  A    between atoms: C_10  and  N_11
REMARK    6  A    between atoms: N_11  and  C_12
REMARK    7  A    between atoms: N_11  and  C_13
REMARK    8  A    between atoms: C_13  and  C_14
REMARK    9  A    between atoms: N_16  and  C_17
REMARK   10  A    between atoms: N_16  and  C_21
REMARK   11  A    between atoms: C_17  and  C_18
REMARK   12  A    between atoms: C_18  and  C_19
REMARK   13  A    between atoms: C_18  and  C_20
REMARK   14  A    between atoms: C_22  and  N_23
REMARK   15  A    between atoms: N_24  and  C_25
REMARK   16  A    between atoms: C_25  and  C_26
REMARK   17  A    between atoms: C_26  and  C_27
REMARK   18  A    between atoms: C_26  and  C_28
REMARK                            x       y       z     vdW  Elec       q    Type
REMARK                         _______ _______ _______ _____ _____    ______ ____
ROOT
ATOM      1  C   UNL     1       4.699   4.710  17.802  0.00  0.00    +0.000 C 
ATOM      2  O   UNL     1       5.096   3.783  17.093  0.00  0.00    +0.000 OA
ATOM      3  N   UNL     1       3.327   4.943  18.028  0.00  0.00    +0.000 N 
ENDROOT
BRANCH   3   4
ATOM      4  C   UNL     1       2.869   5.987  18.833  0.00  0.00    +0.000 A 
ATOM      5  C   UNL     1       2.655   7.227  18.334  0.00  0.00    +0.000 A 
ATOM      6  N   UNL     1       2.091   8.203  19.149  0.00  0.00    +0.000 N 
ATOM      7  C   UNL     1       1.668   7.943  20.450  0.00  0.00    +0.000 A 
ATOM      8  O   UNL     1       1.147   8.774  21.191  0.00  0.00    +0.000 OA
ATOM      9  N   UNL     1       1.870   6.677  20.914  0.00  0.00    +0.000 N 
ATOM     10  C   UNL     1       2.575   5.711  20.268  0.00  0.00    +0.000 A 
ATOM     11  O   UNL     1       2.963   4.698  20.843  0.00  0.00    +0.000 OA
ATOM     12  H   UNL     1       1.655   6.520  21.886  0.00  0.00    +0.000 HD
BRANCH   5  13
ATOM     13  N   UNL     1       2.986   7.502  17.012  0.00  0.00    +0.000 N 
ATOM     14  H   UNL     1       3.037   6.657  16.439  0.00  0.00    +0.000 HD
ATOM     15  H   UNL     1       2.368   8.179  16.575  0.00  0.00    +0.000 HD
ENDBRANCH   5  13
BRANCH   6  16
ATOM     16  C   UNL     1       1.929   9.575  18.654  0.00  0.00    +0.000 C 
BRANCH  16  17
ATOM     17  C   UNL     1       0.539  10.192  18.926  0.00  0.00    +0.000 C 
ATOM     18  C   UNL     1       0.575  11.715  19.052  0.00  0.00    +0.000 C 
ATOM     19  C   UNL     1      -0.414   9.795  17.797  0.00  0.00    +0.000 C 
ENDBRANCH  16  17
ENDBRANCH   6  16
ENDBRANCH   3   4
BRANCH   1  20
ATOM     20  C   UNL     1       5.701   5.701  18.445  0.00  0.00    +0.000 C 
BRANCH  20  21
ATOM     21  N   UNL     1       6.584   6.421  17.483  0.00  0.00    +0.000 NA
ATOM     22  C   UNL     1       7.050   5.488  16.441  0.00  0.00    +0.000 C 
BRANCH  21  23
ATOM     23  C   UNL     1       7.739   6.901  18.301  0.00  0.00    +0.000 C 
BRANCH  23  25
ATOM     24  N   UNL     1       8.846   8.908  19.108  0.00  0.00    +0.000 N 
ATOM     25  C   UNL     1       8.090   8.365  18.088  0.00  0.00    +0.000 C 
ATOM     26  O   UNL     1       7.763   8.924  17.042  0.00  0.00    +0.000 OA
ATOM     27  H   UNL     1       9.136   8.251  19.828  0.00  0.00    +0.000 HD
BRANCH  24  31
ATOM     28  C   UNL     1       9.990  12.954  19.329  0.00  0.00    +0.000 A 
ATOM     29  C   UNL     1       9.831  12.216  20.499  0.00  0.00    +0.000 A 
ATOM     30  C   UNL     1       9.469  10.871  20.443  0.00  0.00    +0.000 A 
ATOM     31  C   UNL     1       9.248  10.248  19.215  0.00  0.00    +0.000 A 
ATOM     32  C   UNL     1       9.438  10.977  18.039  0.00  0.00    +0.000 A 
ATOM     33  C   UNL     1       9.793  12.331  18.096  0.00  0.00    +0.000 A 
BRANCH  28  35
ATOM     34  C   UNL     1      10.879  14.594  20.777  0.00  0.00    +0.000 C 
ATOM     35  O   UNL     1      10.300  14.270  19.521  0.00  0.00    +0.000 OA
ENDBRANCH  28  35
ENDBRANCH  24  31
ENDBRANCH  23  25
ENDBRANCH  21  23
ENDBRANCH  20  21
ENDBRANCH   1  20
BRANCH   3  36
ATOM     36  C   UNL     1       2.337   3.942  17.581  0.00  0.00    +0.000 C 
BRANCH  36  37
ATOM     37  C   UNL     1       2.098   2.723  18.521  0.00  0.00    +0.000 C 
ATOM     38  C   UNL     1       0.644   2.253  18.633  0.00  0.00    +0.000 C 
ATOM     39  C   UNL     1       3.009   1.537  18.201  0.00  0.00    +0.000 C 
ENDBRANCH  36  37
ENDBRANCH   3  36
TORSDOF 12
ENDMDL
MODEL 4
REMARK VINA RESULT:      -7.4      3.675      7.942
REMARK  Name = 
REMARK  18 active torsions:
REMARK  status: ('A' for Active; 'I' for Inactive)
REMARK    1  A    between atoms: C_1  and  O_2
REMARK    2  A    between atoms: O_2  and  C_3
REMARK    3  A    between atoms: C_6  and  N_7
REMARK    4  A    between atoms: C_8  and  C_10
REMARK    5  A    between atoms: C_10  and  N_11
REMARK    6  A    between atoms: N_11  and  C_12
REMARK    7  A    between atoms: N_11  and  C_13
REMARK    8  A    between atoms: C_13  and  C_14
REMARK    9  A    between atoms: N_16  and  C_17
REMARK   10  A    between atoms: N_16  and  C_21
REMARK   11  A    between atoms: C_17  and  C_18
REMARK   12  A    between atoms: C_18  and  C_19
REMARK   13  A    between atoms: C_18  and  C_20
REMARK   14  A    between atoms: C_22  and  N_23
REMARK   15  A    between atoms: N_24  and  C_25
REMARK   16  A    between atoms: C_25  and  C_26
REMARK   17  A    between atoms: C_26  and  C_27
REMARK   18  A    between atoms: C_26  and  C_28
REMARK                            x       y       z     vdW  Elec       q    Type
REMARK                         _______ _______ _______ _____ _____    ______ ____
ROOT
ATOM      1  C   UNL     1       2.418   5.782  19.984  0.00  0.00    +0.000 C 
ATOM      2  O   UNL     1       1.706   5.847  20.989  0.00  0.00    +0.000 OA
ATOM      3  N   UNL     1       3.127   4.612  19.645  0.00  0.00    +0.000 N 
ENDROOT
BRANCH   3   4
ATOM      4  C   UNL     1       3.931   4.529  18.507  0.00  0.00    +0.000 A 
ATOM      5  C   UNL     1       5.237   4.884  18.534  0.00  0.00    +0.000 A 
ATOM      6  N   UNL     1       6.024   4.675  17.406  0.00  0.00    +0.000 N 
ATOM      7  C   UNL     1       5.542   4.048  16.259  0.00  0.00    +0.000 A 
ATOM      8  O   UNL     1       6.214   3.829  15.253  0.00  0.00    +0.000 OA
ATOM      9  N   UNL     1       4.231   3.677  16.274  0.00  0.00    +0.000 N 
ATOM     10  C   UNL     1       3.337   3.999  17.246  0.00  0.00    +0.000 A 
ATOM     11  O   UNL     1       2.127   3.886  17.078  0.00  0.00    +0.000 OA
ATOM     12  H   UNL     1       3.861   3.315  15.409  0.00  0.00    +0.000 HD
BRANCH   5  13
ATOM     13  N   UNL     1       5.776   5.434  19.691  0.00  0.00    +0.000 N 
ATOM     14  H   UNL     1       5.810   4.764  20.462  0.00  0.00    +0.000 HD
ATOM     15  H   UNL     1       6.693   5.847  19.551  0.00  0.00    +0.000 HD
ENDBRANCH   5  13
BRANCH   6  16
ATOM     16  C   UNL     1       7.419   5.129  17.384  0.00  0.00    +0.000 C 
BRANCH  16  17
ATOM     17  C   UNL     1       7.592   6.648  17.169  0.00  0.00    +0.000 C 
ATOM     18  C   UNL     1       6.281   7.359  16.835  0.00  0.00    +0.000 C 
ATOM     19  C   UNL     1       8.202   7.266  18.428  0.00  0.00    +0.000 C 
ENDBRANCH  16  17
ENDBRANCH   6  16
ENDBRANCH   3   4
BRANCH   1  20
ATOM     20  C   UNL     1       2.606   7.016  19.066  0.00  0.00    +0.000 C 
BRANCH  20  21
ATOM     21  N   UNL     1       1.499   8.014  19.114  0.00  0.00    +0.000 NA
ATOM     22  C   UNL     1       1.666   8.994  18.025  0.00  0.00    +0.000 C 
BRANCH  21  23
ATOM     23  C   UNL     1       1.642   8.687  20.441  0.00  0.00    +0.000 C 
BRANCH  23  25
ATOM     24  N   UNL     1       0.151  10.547  20.913  0.00  0.00    +0.000 N 
ATOM     25  C   UNL     1       0.332   9.184  21.033  0.00  0.00    +0.000 C 
ATOM     26  O   UNL     1      -0.477   8.377  21.487  0.00  0.00    +0.000 OA
ATOM     27  H   UNL     1       0.870  11.034  20.383  0.00  0.00    +0.000 HD
BRANCH  24  31
ATOM     28  C   UNL     1      -3.129  12.749  22.367  0.00  0.00    +0.000 A 
ATOM     29  C   UNL     1      -2.319  12.048  23.256  0.00  0.00    +0.000 A 
ATOM     30  C   UNL     1      -1.220  11.328  22.793  0.00  0.00    +0.000 A 
ATOM     31  C   UNL     1      -0.922  11.288  21.432  0.00  0.00    +0.000 A 
ATOM     32  C   UNL     1      -1.713  12.017  20.541  0.00  0.00    +0.000 A 
ATOM     33  C   UNL     1      -2.824  12.733  21.005  0.00  0.00    +0.000 A 
BRANCH  28  35
ATOM     34  C   UNL     1      -5.479  12.948  22.495  0.00  0.00    +0.000 C 
ATOM     35  O   UNL     1      -4.199  13.374  22.940  0.00  0.00    +0.000 OA
ENDBRANCH  28  35
ENDBRANCH  24  31
ENDBRANCH  23  25
ENDBRANCH  21  23
ENDBRANCH  20  21
ENDBRANCH   1  20
BRANCH   3  36
ATOM     36  C   UNL     1       2.861   3.362  20.385  0.00  0.00    +0.000 C 
BRANCH  36  37
ATOM     37  C   UNL     1       1.366   3.002  20.639  0.00  0.00    +0.000 C 
ATOM     38  C   UNL     1       0.691   2.175  19.539  0.00  0.00    +0.000 C 
ATOM     39  C   UNL     1       1.135   2.347  22.002  0.00  0.00    +0.000 C 
ENDBRANCH  36  37
ENDBRANCH   3  36
TORSDOF 12
ENDMDL
MODEL 5
REMARK VINA RESULT:      -7.3      4.284      8.134
REMARK  Name = 
REMARK  18 active torsions:
REMARK  status: ('A' for Active; 'I' for Inactive)
REMARK    1  A    between atoms: C_1  and  O_2
REMARK    2  A    between atoms: O_2  and  C_3
REMARK    3  A    between atoms: C_6  and  N_7
REMARK    4  A    between atoms: C_8  and  C_10
REMARK    5  A    between atoms: C_10  and  N_11
REMARK    6  A    between atoms: N_11  and  C_12
REMARK    7  A    between atoms: N_11  and  C_13
REMARK    8  A    between atoms: C_13  and  C_14
REMARK    9  A    between atoms: N_16  and  C_17
REMARK   10  A    between atoms: N_16  and  C_21
REMARK   11  A    between atoms: C_17  and  C_18
REMARK   12  A    between atoms: C_18  and  C_19
REMARK   13  A    between atoms: C_18  and  C_20
REMARK   14  A    between atoms: C_22  and  N_23
REMARK   15  A    between atoms: N_24  and  C_25
REMARK   16  A    between atoms: C_25  and  C_26
REMARK   17  A    between atoms: C_26  and  C_27
REMARK   18  A    between atoms: C_26  and  C_28
REMARK                            x       y       z     vdW  Elec       q    Type
REMARK                         _______ _______ _______ _____ _____    ______ ____
ROOT
ATOM      1  C   UNL     1       3.096   5.724  19.640  0.00  0.00    +0.000 C 
ATOM      2  O   UNL     1       2.117   5.787  20.388  0.00  0.00    +0.000 OA
ATOM      3  N   UNL     1       3.770   4.512  19.393  0.00  0.00    +0.000 N 
ENDROOT
BRANCH   3   4
ATOM      4  C   UNL     1       4.875   4.431  18.545  0.00  0.00    +0.000 A 
ATOM      5  C   UNL     1       4.773   3.926  17.293  0.00  0.00    +0.000 A 
ATOM      6  N   UNL     1       5.877   3.973  16.446  0.00  0.00    +0.000 N 
ATOM      7  C   UNL     1       7.076   4.582  16.808  0.00  0.00    +0.000 A 
ATOM      8  O   UNL     1       8.063   4.660  16.079  0.00  0.00    +0.000 OA
ATOM      9  N   UNL     1       7.137   5.106  18.064  0.00  0.00    +0.000 N 
ATOM     10  C   UNL     1       6.188   4.951  19.024  0.00  0.00    +0.000 A 
ATOM     11  O   UNL     1       6.414   5.196  20.206  0.00  0.00    +0.000 OA
ATOM     12  H   UNL     1       8.036   5.456  18.356  0.00  0.00    +0.000 HD
BRANCH   5  13
ATOM     13  N   UNL     1       3.566   3.386  16.866  0.00  0.00    +0.000 N 
ATOM     14  H   UNL     1       2.820   4.084  16.824  0.00  0.00    +0.000 HD
ATOM     15  H   UNL     1       3.635   2.899  15.977  0.00  0.00    +0.000 HD
ENDBRANCH   5  13
BRANCH   6  16
ATOM     16  C   UNL     1       5.814   3.356  15.117  0.00  0.00    +0.000 C 
BRANCH  16  17
ATOM     17  C   UNL     1       5.620   4.357  13.957  0.00  0.00    +0.000 C 
ATOM     18  C   UNL     1       6.938   4.916  13.422  0.00  0.00    +0.000 C 
ATOM     19  C   UNL     1       4.860   3.667  12.822  0.00  0.00    +0.000 C 
ENDBRANCH  16  17
ENDBRANCH   6  16
ENDBRANCH   3   4
BRANCH   1  20
ATOM     20  C   UNL     1       3.663   7.000  18.970  0.00  0.00    +0.000 C 
BRANCH  20  21
ATOM     21  N   UNL     1       2.867   7.518  17.820  0.00  0.00    +0.000 NA
ATOM     22  C   UNL     1       3.633   7.355  16.572  0.00  0.00    +0.000 C 
BRANCH  21  23
ATOM     23  C   UNL     1       2.661   8.969  18.114  0.00  0.00    +0.000 C 
BRANCH  23  25
ATOM     24  N   UNL     1       0.459   9.885  17.647  0.00  0.00    +0.000 N 
ATOM     25  C   UNL     1       1.265   9.313  18.611  0.00  0.00    +0.000 C 
ATOM     26  O   UNL     1       0.932   9.007  19.755  0.00  0.00    +0.000 OA
ATOM     27  H   UNL     1       0.866   9.935  16.717  0.00  0.00    +0.000 HD
BRANCH  24  31
ATOM     28  C   UNL     1      -3.492  11.233  18.196  0.00  0.00    +0.000 A 
ATOM     29  C   UNL     1      -2.465  11.768  18.971  0.00  0.00    +0.000 A 
ATOM     30  C   UNL     1      -1.150  11.345  18.791  0.00  0.00    +0.000 A 
ATOM     31  C   UNL     1      -0.843  10.371  17.841  0.00  0.00    +0.000 A 
ATOM     32  C   UNL     1      -1.865   9.856  17.040  0.00  0.00    +0.000 A 
ATOM     33  C   UNL     1      -3.189  10.274  17.228  0.00  0.00    +0.000 A 
BRANCH  28  35
ATOM     34  C   UNL     1      -5.771  10.720  18.542  0.00  0.00    +0.000 C 
ATOM     35  O   UNL     1      -4.739  11.696  18.503  0.00  0.00    +0.000 OA
ENDBRANCH  28  35
ENDBRANCH  24  31
ENDBRANCH  23  25
ENDBRANCH  21  23
ENDBRANCH  20  21
ENDBRANCH   1  20
BRANCH   3  36
ATOM     36  C   UNL     1       3.182   3.243  19.869  0.00  0.00    +0.000 C 
BRANCH  36  37
ATOM     37  C   UNL     1       1.635   3.215  20.061  0.00  0.00    +0.000 C 
ATOM     38  C   UNL     1       0.847   2.501  18.958  0.00  0.00    +0.000 C 
ATOM     39  C   UNL     1       1.216   2.685  21.433  0.00  0.00    +0.000 C 
ENDBRANCH  36  37
ENDBRANCH   3  36
TORSDOF 12
ENDMDL
MODEL 6
REMARK VINA RESULT:      -7.3      3.710      7.473
REMARK  Name = 
REMARK  18 active torsions:
REMARK  status: ('A' for Active; 'I' for Inactive)
REMARK    1  A    between atoms: C_1  and  O_2
REMARK    2  A    between atoms: O_2  and  C_3
REMARK    3  A    between atoms: C_6  and  N_7
REMARK    4  A    between atoms: C_8  and  C_10
REMARK    5  A    between atoms: C_10  and  N_11
REMARK    6  A    between atoms: N_11  and  C_12
REMARK    7  A    between atoms: N_11  and  C_13
REMARK    8  A    between atoms: C_13  and  C_14
REMARK    9  A    between atoms: N_16  and  C_17
REMARK   10  A    between atoms: N_16  and  C_21
REMARK   11  A    between atoms: C_17  and  C_18
REMARK   12  A    between atoms: C_18  and  C_19
REMARK   13  A    between atoms: C_18  and  C_20
REMARK   14  A    between atoms: C_22  and  N_23
REMARK   15  A    between atoms: N_24  and  C_25
REMARK   16  A    between atoms: C_25  and  C_26
REMARK   17  A    between atoms: C_26  and  C_27
REMARK   18  A    between atoms: C_26  and  C_28
REMARK                            x       y       z     vdW  Elec       q    Type
REMARK                         _______ _______ _______ _____ _____    ______ ____
ROOT
ATOM      1  C   UNL     1       3.348   5.133  20.029  0.00  0.00    +0.000 C 
ATOM      2  O   UNL     1       2.532   4.663  20.826  0.00  0.00    +0.000 OA
ATOM      3  N   UNL     1       4.415   4.369  19.516  0.00  0.00    +0.000 N 
ENDROOT
BRANCH   3   4
ATOM      4  C   UNL     1       5.340   4.891  18.611  0.00  0.00    +0.000 A 
ATOM      5  C   UNL     1       5.085   4.936  17.282  0.00  0.00    +0.000 A 
ATOM      6  N   UNL     1       5.988   5.569  16.434  0.00  0.00    +0.000 N 
ATOM      7  C   UNL     1       7.124   6.225  16.902  0.00  0.00    +0.000 A 
ATOM      8  O   UNL     1       7.933   6.812  16.185  0.00  0.00    +0.000 OA
ATOM      9  N   UNL     1       7.339   6.186  18.248  0.00  0.00    +0.000 N 
ATOM     10  C   UNL     1       6.622   5.444  19.133  0.00  0.00    +0.000 A 
ATOM     11  O   UNL     1       7.026   5.225  20.272  0.00  0.00    +0.000 OA
ATOM     12  H   UNL     1       8.211   6.574  18.570  0.00  0.00    +0.000 HD
BRANCH   5  13
ATOM     13  N   UNL     1       3.917   4.367  16.787  0.00  0.00    +0.000 N 
ATOM     14  H   UNL     1       3.976   4.166  15.787  0.00  0.00    +0.000 HD
ATOM     15  H   UNL     1       3.631   3.533  17.292  0.00  0.00    +0.000 HD
ENDBRANCH   5  13
BRANCH   6  16
ATOM     16  C   UNL     1       5.773   5.556  14.983  0.00  0.00    +0.000 C 
BRANCH  16  17
ATOM     17  C   UNL     1       6.480   4.400  14.243  0.00  0.00    +0.000 C 
ATOM     18  C   UNL     1       5.525   3.556  13.400  0.00  0.00    +0.000 C 
ATOM     19  C   UNL     1       7.578   4.978  13.347  0.00  0.00    +0.000 C 
ENDBRANCH  16  17
ENDBRANCH   6  16
ENDBRANCH   3   4
BRANCH   1  20
ATOM     20  C   UNL     1       3.262   6.616  19.590  0.00  0.00    +0.000 C 
BRANCH  20  21
ATOM     21  N   UNL     1       1.961   7.023  18.987  0.00  0.00    +0.000 NA
ATOM     22  C   UNL     1       1.605   6.095  17.899  0.00  0.00    +0.000 C 
BRANCH  21  23
ATOM     23  C   UNL     1       2.200   8.394  18.441  0.00  0.00    +0.000 C 
BRANCH  23  25
ATOM     24  N   UNL     1       1.311   9.521  20.402  0.00  0.00    +0.000 N 
ATOM     25  C   UNL     1       1.290   9.464  19.022  0.00  0.00    +0.000 C 
ATOM     26  O   UNL     1       0.683  10.225  18.269  0.00  0.00    +0.000 OA
ATOM     27  H   UNL     1       1.980   8.900  20.849  0.00  0.00    +0.000 HD
BRANCH  24  31
ATOM     28  C   UNL     1      -1.074  12.097  22.726  0.00  0.00    +0.000 A 
ATOM     29  C   UNL     1      -1.126  10.722  22.945  0.00  0.00    +0.000 A 
ATOM     30  C   UNL     1      -0.331   9.857  22.195  0.00  0.00    +0.000 A 
ATOM     31  C   UNL     1       0.519  10.353  21.208  0.00  0.00    +0.000 A 
ATOM     32  C   UNL     1       0.598  11.733  21.008  0.00  0.00    +0.000 A 
ATOM     33  C   UNL     1      -0.209  12.602  21.755  0.00  0.00    +0.000 A 
BRANCH  28  35
ATOM     34  C   UNL     1      -3.215  12.255  23.709  0.00  0.00    +0.000 C 
ATOM     35  O   UNL     1      -1.935  12.830  23.492  0.00  0.00    +0.000 OA
ENDBRANCH  28  35
ENDBRANCH  24  31
ENDBRANCH  23  25
ENDBRANCH  21  23
ENDBRANCH  20  21
ENDBRANCH   1  20
BRANCH   3  36
ATOM     36  C   UNL     1       4.454   2.913  19.767  0.00  0.00    +0.000 C 
BRANCH  36  37
ATOM     37  C   UNL     1       3.656   2.010  18.780  0.00  0.00    +0.000 C 
ATOM     38  C   UNL     1       4.227   0.604  18.564  0.00  0.00    +0.000 C 
ATOM     39  C   UNL     1       2.167   1.924  19.122  0.00  0.00    +0.000 C 
ENDBRANCH  36  37
ENDBRANCH   3  36
TORSDOF 12
ENDMDL
MODEL 7
REMARK VINA RESULT:      -7.3      5.028      9.294
REMARK  Name = 
REMARK  18 active torsions:
REMARK  status: ('A' for Active; 'I' for Inactive)
REMARK    1  A    between atoms: C_1  and  O_2
REMARK    2  A    between atoms: O_2  and  C_3
REMARK    3  A    between atoms: C_6  and  N_7
REMARK    4  A    between atoms: C_8  and  C_10
REMARK    5  A    between atoms: C_10  and  N_11
REMARK    6  A    between atoms: N_11  and  C_12
REMARK    7  A    between atoms: N_11  and  C_13
REMARK    8  A    between atoms: C_13  and  C_14
REMARK    9  A    between atoms: N_16  and  C_17
REMARK   10  A    between atoms: N_16  and  C_21
REMARK   11  A    between atoms: C_17  and  C_18
REMARK   12  A    between atoms: C_18  and  C_19
REMARK   13  A    between atoms: C_18  and  C_20
REMARK   14  A    between atoms: C_22  and  N_23
REMARK   15  A    between atoms: N_24  and  C_25
REMARK   16  A    between atoms: C_25  and  C_26
REMARK   17  A    between atoms: C_26  and  C_27
REMARK   18  A    between atoms: C_26  and  C_28
REMARK                            x       y       z     vdW  Elec       q    Type
REMARK                         _______ _______ _______ _____ _____    ______ ____
ROOT
ATOM      1  C   UNL     1      -0.425  11.040  19.328  0.00  0.00    +0.000 C 
ATOM      2  O   UNL     1      -0.212   9.993  18.712  0.00  0.00    +0.000 OA
ATOM      3  N   UNL     1      -1.182  12.092  18.773  0.00  0.00    +0.000 N 
ENDROOT
BRANCH   3   4
ATOM      4  C   UNL     1      -1.432  13.277  19.465  0.00  0.00    +0.000 A 
ATOM      5  C   UNL     1      -0.590  14.335  19.388  0.00  0.00    +0.000 A 
ATOM      6  N   UNL     1      -0.941  15.533  20.003  0.00  0.00    +0.000 N 
ATOM      7  C   UNL     1      -2.163  15.718  20.646  0.00  0.00    +0.000 A 
ATOM      8  O   UNL     1      -2.515  16.767  21.182  0.00  0.00    +0.000 OA
ATOM      9  N   UNL     1      -3.001  14.643  20.681  0.00  0.00    +0.000 N 
ATOM     10  C   UNL     1      -2.679  13.386  20.276  0.00  0.00    +0.000 A 
ATOM     11  O   UNL     1      -3.357  12.411  20.586  0.00  0.00    +0.000 OA
ATOM     12  H   UNL     1      -3.838  14.750  21.231  0.00  0.00    +0.000 HD
BRANCH   5  13
ATOM     13  N   UNL     1       0.601  14.215  18.683  0.00  0.00    +0.000 N 
ATOM     14  H   UNL     1       1.408  14.090  19.298  0.00  0.00    +0.000 HD
ATOM     15  H   UNL     1       0.583  13.479  17.984  0.00  0.00    +0.000 HD
ENDBRANCH   5  13
BRANCH   6  16
ATOM     16  C   UNL     1      -0.007  16.664  20.005  0.00  0.00    +0.000 C 
BRANCH  16  17
ATOM     17  C   UNL     1       1.042  16.624  21.137  0.00  0.00    +0.000 C 
ATOM     18  C   UNL     1       2.473  16.812  20.634  0.00  0.00    +0.000 C 
ATOM     19  C   UNL     1       0.714  17.713  22.161  0.00  0.00    +0.000 C 
ENDBRANCH  16  17
ENDBRANCH   6  16
ENDBRANCH   3   4
BRANCH   1  20
ATOM     20  C   UNL     1       0.178  11.266  20.737  0.00  0.00    +0.000 C 
BRANCH  20  21
ATOM     21  N   UNL     1      -0.550  10.597  21.852  0.00  0.00    +0.000 NA
ATOM     22  C   UNL     1      -0.855  11.580  22.907  0.00  0.00    +0.000 C 
BRANCH  21  23
ATOM     23  C   UNL     1       0.398   9.562  22.368  0.00  0.00    +0.000 C 
BRANCH  23  25
ATOM     24  N   UNL     1       1.700   7.943  21.108  0.00  0.00    +0.000 N 
ATOM     25  C   UNL     1       0.435   8.285  21.544  0.00  0.00    +0.000 C 
ATOM     26  O   UNL     1      -0.593   7.628  21.390  0.00  0.00    +0.000 OA
ATOM     27  H   UNL     1       2.450   8.537  21.451  0.00  0.00    +0.000 HD
BRANCH  24  31
ATOM     28  C   UNL     1       2.753   4.775  18.543  0.00  0.00    +0.000 A 
ATOM     29  C   UNL     1       2.273   4.499  19.821  0.00  0.00    +0.000 A 
ATOM     30  C   UNL     1       1.904   5.535  20.676  0.00  0.00    +0.000 A 
ATOM     31  C   UNL     1       2.022   6.864  20.271  0.00  0.00    +0.000 A 
ATOM     32  C   UNL     1       2.473   7.143  18.979  0.00  0.00    +0.000 A 
ATOM     33  C   UNL     1       2.853   6.101  18.122  0.00  0.00    +0.000 A 
BRANCH  28  35
ATOM     34  C   UNL     1       2.292   2.533  17.962  0.00  0.00    +0.000 C 
ATOM     35  O   UNL     1       3.124   3.675  17.823  0.00  0.00    +0.000 OA
ENDBRANCH  28  35
ENDBRANCH  24  31
ENDBRANCH  23  25
ENDBRANCH  21  23
ENDBRANCH  20  21
ENDBRANCH   1  20
BRANCH   3  36
ATOM     36  C   UNL     1      -1.915  11.871  17.510  0.00  0.00    +0.000 C 
BRANCH  36  37
ATOM     37  C   UNL     1      -3.279  11.124  17.613  0.00  0.00    +0.000 C 
ATOM     38  C   UNL     1      -4.417  11.711  16.769  0.00  0.00    +0.000 C 
ATOM     39  C   UNL     1      -3.156   9.622  17.354  0.00  0.00    +0.000 C 
ENDBRANCH  36  37
ENDBRANCH   3  36
TORSDOF 12
ENDMDL
MODEL 8
REMARK VINA RESULT:      -7.2      3.966      6.555
REMARK  Name = 
REMARK  18 active torsions:
REMARK  status: ('A' for Active; 'I' for Inactive)
REMARK    1  A    between atoms: C_1  and  O_2
REMARK    2  A    between atoms: O_2  and  C_3
REMARK    3  A    between atoms: C_6  and  N_7
REMARK    4  A    between atoms: C_8  and  C_10
REMARK    5  A    between atoms: C_10  and  N_11
REMARK    6  A    between atoms: N_11  and  C_12
REMARK    7  A    between atoms: N_11  and  C_13
REMARK    8  A    between atoms: C_13  and  C_14
REMARK    9  A    between atoms: N_16  and  C_17
REMARK   10  A    between atoms: N_16  and  C_21
REMARK   11  A    between atoms: C_17  and  C_18
REMARK   12  A    between atoms: C_18  and  C_19
REMARK   13  A    between atoms: C_18  and  C_20
REMARK   14  A    between atoms: C_22  and  N_23
REMARK   15  A    between atoms: N_24  and  C_25
REMARK   16  A    between atoms: C_25  and  C_26
REMARK   17  A    between atoms: C_26  and  C_27
REMARK   18  A    between atoms: C_26  and  C_28
REMARK                            x       y       z     vdW  Elec       q    Type
REMARK                         _______ _______ _______ _____ _____    ______ ____
ROOT
ATOM      1  C   UNL     1       3.242   7.365  17.705  0.00  0.00    +0.000 C 
ATOM      2  O   UNL     1       3.141   8.355  16.977  0.00  0.00    +0.000 OA
ATOM      3  N   UNL     1       4.050   6.263  17.359  0.00  0.00    +0.000 N 
ENDROOT
BRANCH   3   4
ATOM      4  C   UNL     1       4.173   5.140  18.179  0.00  0.00    +0.000 A 
ATOM      5  C   UNL     1       3.217   4.184  18.222  0.00  0.00    +0.000 A 
ATOM      6  N   UNL     1       3.438   3.030  18.967  0.00  0.00    +0.000 N 
ATOM      7  C   UNL     1       4.640   2.779  19.626  0.00  0.00    +0.000 A 
ATOM      8  O   UNL     1       4.877   1.763  20.276  0.00  0.00    +0.000 OA
ATOM      9  N   UNL     1       5.593   3.749  19.540  0.00  0.00    +0.000 N 
ATOM     10  C   UNL     1       5.410   4.981  18.996  0.00  0.00    +0.000 A 
ATOM     11  O   UNL     1       6.199   5.901  19.195  0.00  0.00    +0.000 OA
ATOM     12  H   UNL     1       6.421   3.609  20.098  0.00  0.00    +0.000 HD
BRANCH   5  13
ATOM     13  N   UNL     1       2.037   4.359  17.508  0.00  0.00    +0.000 N 
ATOM     14  H   UNL     1       2.023   5.239  16.988  0.00  0.00    +0.000 HD
ATOM     15  H   UNL     1       1.825   3.586  16.884  0.00  0.00    +0.000 HD
ENDBRANCH   5  13
BRANCH   6  16
ATOM     16  C   UNL     1       2.382   2.020  19.095  0.00  0.00    +0.000 C 
BRANCH  16  17
ATOM     17  C   UNL     1       1.420   2.248  20.282  0.00  0.00    +0.000 C 
ATOM     18  C   UNL     1       2.121   2.800  21.523  0.00  0.00    +0.000 C 
ATOM     19  C   UNL     1       0.313   3.212  19.850  0.00  0.00    +0.000 C 
ENDBRANCH  16  17
ENDBRANCH   6  16
ENDBRANCH   3   4
BRANCH   1  20
ATOM     20  C   UNL     1       2.438   7.268  19.025  0.00  0.00    +0.000 C 
BRANCH  20  21
ATOM     21  N   UNL     1       2.003   8.574  19.599  0.00  0.00    +0.000 NA
ATOM     22  C   UNL     1       1.329   8.350  20.890  0.00  0.00    +0.000 C 
BRANCH  21  23
ATOM     23  C   UNL     1       1.039   9.133  18.602  0.00  0.00    +0.000 C 
BRANCH  23  25
ATOM     24  N   UNL     1       1.945  11.375  18.837  0.00  0.00    +0.000 N 
ATOM     25  C   UNL     1       0.789  10.626  18.747  0.00  0.00    +0.000 C 
ATOM     26  O   UNL     1      -0.361  11.059  18.698  0.00  0.00    +0.000 OA
ATOM     27  H   UNL     1       2.809  10.853  18.721  0.00  0.00    +0.000 HD
BRANCH  24  31
ATOM     28  C   UNL     1       2.191  15.509  19.599  0.00  0.00    +0.000 A 
ATOM     29  C   UNL     1       2.524  15.017  18.339  0.00  0.00    +0.000 A 
ATOM     30  C   UNL     1       2.433  13.654  18.066  0.00  0.00    +0.000 A 
ATOM     31  C   UNL     1       2.017  12.760  19.052  0.00  0.00    +0.000 A 
ATOM     32  C   UNL     1       1.651  13.254  20.306  0.00  0.00    +0.000 A 
ATOM     33  C   UNL     1       1.753  14.623  20.584  0.00  0.00    +0.000 A 
BRANCH  28  35
ATOM     34  C   UNL     1       1.275  17.673  19.364  0.00  0.00    +0.000 C 
ATOM     35  O   UNL     1       2.368  16.854  19.752  0.00  0.00    +0.000 OA
ENDBRANCH  28  35
ENDBRANCH  24  31
ENDBRANCH  23  25
ENDBRANCH  21  23
ENDBRANCH  20  21
ENDBRANCH   1  20
BRANCH   3  36
ATOM     36  C   UNL     1       4.962   6.365  16.202  0.00  0.00    +0.000 C 
BRANCH  36  37
ATOM     37  C   UNL     1       5.683   5.056  15.758  0.00  0.00    +0.000 C 
ATOM     38  C   UNL     1       5.265   4.506  14.390  0.00  0.00    +0.000 C 
ATOM     39  C   UNL     1       7.206   5.159  15.839  0.00  0.00    +0.000 C 
ENDBRANCH  36  37
ENDBRANCH   3  36
TORSDOF 12
ENDMDL
MODEL 9
REMARK VINA RESULT:      -7.2      4.293      7.818
REMARK  Name = 
REMARK  18 active torsions:
REMARK  status: ('A' for Active; 'I' for Inactive)
REMARK    1  A    between atoms: C_1  and  O_2
REMARK    2  A    between atoms: O_2  and  C_3
REMARK    3  A    between atoms: C_6  and  N_7
REMARK    4  A    between atoms: C_8  and  C_10
REMARK    5  A    between atoms: C_10  and  N_11
REMARK    6  A    between atoms: N_11  and  C_12
REMARK    7  A    between atoms: N_11  and  C_13
REMARK    8  A    between atoms: C_13  and  C_14
REMARK    9  A    between atoms: N_16  and  C_17
REMARK   10  A    between atoms: N_16  and  C_21
REMARK   11  A    between atoms: C_17  and  C_18
REMARK   12  A    between atoms: C_18  and  C_19
REMARK   13  A    between atoms: C_18  and  C_20
REMARK   14  A    between atoms: C_22  and  N_23
REMARK   15  A    between atoms: N_24  and  C_25
REMARK   16  A    between atoms: C_25  and  C_26
REMARK   17  A    between atoms: C_26  and  C_27
REMARK   18  A    between atoms: C_26  and  C_28
REMARK                            x       y       z     vdW  Elec       q    Type
REMARK                         _______ _______ _______ _____ _____    ______ ____
ROOT
ATOM      1  C   UNL     1       3.585   7.255  17.402  0.00  0.00    +0.000 C 
ATOM      2  O   UNL     1       3.522   8.179  16.588  0.00  0.00    +0.000 OA
ATOM      3  N   UNL     1       4.289   6.066  17.130  0.00  0.00    +0.000 N 
ENDROOT
BRANCH   3   4
ATOM      4  C   UNL     1       4.369   5.018  18.048  0.00  0.00    +0.000 A 
ATOM      5  C   UNL     1       3.399   4.078  18.139  0.00  0.00    +0.000 A 
ATOM      6  N   UNL     1       3.579   2.991  18.988  0.00  0.00    +0.000 N 
ATOM      7  C   UNL     1       4.754   2.786  19.708  0.00  0.00    +0.000 A 
ATOM      8  O   UNL     1       4.955   1.828  20.451  0.00  0.00    +0.000 OA
ATOM      9  N   UNL     1       5.723   3.734  19.572  0.00  0.00    +0.000 N 
ATOM     10  C   UNL     1       5.576   4.917  18.919  0.00  0.00    +0.000 A 
ATOM     11  O   UNL     1       6.369   5.842  19.065  0.00  0.00    +0.000 OA
ATOM     12  H   UNL     1       6.529   3.635  20.169  0.00  0.00    +0.000 HD
BRANCH   5  13
ATOM     13  N   UNL     1       2.247   4.204  17.371  0.00  0.00    +0.000 N 
ATOM     14  H   UNL     1       2.444   4.530  16.423  0.00  0.00    +0.000 HD
ATOM     15  H   UNL     1       1.692   3.354  17.336  0.00  0.00    +0.000 HD
ENDBRANCH   5  13
BRANCH   6  16
ATOM     16  C   UNL     1       2.505   2.007  19.166  0.00  0.00    +0.000 C 
BRANCH  16  17
ATOM     17  C   UNL     1       1.485   2.367  20.268  0.00  0.00    +0.000 C 
ATOM     18  C   UNL     1       2.092   3.200  21.396  0.00  0.00    +0.000 C 
ATOM     19  C   UNL     1       0.318   3.132  19.640  0.00  0.00    +0.000 C 
ENDBRANCH  16  17
ENDBRANCH   6  16
ENDBRANCH   3   4
BRANCH   1  20
ATOM     20  C   UNL     1       2.841   7.344  18.758  0.00  0.00    +0.000 C 
BRANCH  20  21
ATOM     21  N   UNL     1       1.710   8.315  18.798  0.00  0.00    +0.000 NA
ATOM     22  C   UNL     1       2.111   9.572  18.142  0.00  0.00    +0.000 C 
BRANCH  21  23
ATOM     23  C   UNL     1       1.452   8.549  20.252  0.00  0.00    +0.000 C 
BRANCH  23  25
ATOM     24  N   UNL     1       0.578  10.379  21.591  0.00  0.00    +0.000 N 
ATOM     25  C   UNL     1       0.323   9.527  20.535  0.00  0.00    +0.000 C 
ATOM     26  O   UNL     1      -0.662   9.552  19.798  0.00  0.00    +0.000 OA
ATOM     27  H   UNL     1       1.508  10.299  21.995  0.00  0.00    +0.000 HD
BRANCH  24  31
ATOM     28  C   UNL     1      -2.075  13.288  23.083  0.00  0.00    +0.000 A 
ATOM     29  C   UNL     1      -2.225  11.956  23.463  0.00  0.00    +0.000 A 
ATOM     30  C   UNL     1      -1.345  10.984  22.991  0.00  0.00    +0.000 A 
ATOM     31  C   UNL     1      -0.310  11.327  22.123  0.00  0.00    +0.000 A 
ATOM     32  C   UNL     1      -0.137  12.666  21.766  0.00  0.00    +0.000 A 
ATOM     33  C   UNL     1      -1.027  13.642  22.232  0.00  0.00    +0.000 A 
BRANCH  28  35
ATOM     34  C   UNL     1      -2.703  14.796  24.789  0.00  0.00    +0.000 C 
ATOM     35  O   UNL     1      -3.028  14.133  23.575  0.00  0.00    +0.000 OA
ENDBRANCH  28  35
ENDBRANCH  24  31
ENDBRANCH  23  25
ENDBRANCH  21  23
ENDBRANCH  20  21
ENDBRANCH   1  20
BRANCH   3  36
ATOM     36  C   UNL     1       5.149   5.989  15.930  0.00  0.00    +0.000 C 
BRANCH  36  37
ATOM     37  C   UNL     1       5.690   4.579  15.544  0.00  0.00    +0.000 C 
ATOM     38  C   UNL     1       5.415   4.140  14.102  0.00  0.00    +0.000 C 
ATOM     39  C   UNL     1       7.173   4.401  15.872  0.00  0.00    +0.000 C 
ENDBRANCH  36  37
ENDBRANCH   3  36
TORSDOF 12
ENDMDL
