MODEL 1
REMARK VINA RESULT:      -7.0      0.000      0.000
REMARK  Name = 
REMARK  6 active torsions:
REMARK  status: ('A' for Active; 'I' for Inactive)
REMARK    1  A    between atoms: C_1  and  C_2
REMARK    2  A    between atoms: C_4  and  N_5
REMARK    3  A    between atoms: N_5  and  C_6
REMARK    4  A    between atoms: C_6  and  C_7
REMARK    5  A    between atoms: C_7  and  O_8
REMARK    6  A    between atoms: C_10  and  C_11
REMARK                            x       y       z     vdW  Elec       q    Type
REMARK                         _______ _______ _______ _____ _____    ______ ____
ROOT
ATOM      1  C   UNL     1       1.842   2.732  21.638  0.00  0.00    +0.000 C 
ATOM      2  C   UNL     1       2.553   3.640  20.683  0.00  0.00    +0.000 A 
ATOM      3  C   UNL     1       3.676   3.224  20.008  0.00  0.00    +0.000 A 
ATOM      4  C   UNL     1       4.338   4.162  19.242  0.00  0.00    +0.000 A 
ATOM      5  N   UNL     1       3.886   5.419  19.111  0.00  0.00    +0.000 NA
ATOM      6  C   UNL     1       2.748   5.736  19.763  0.00  0.00    +0.000 A 
ATOM      7  N   UNL     1       2.069   4.889  20.558  0.00  0.00    +0.000 NA
ENDROOT
BRANCH   6   8
ATOM      8  C   UNL     1       2.193   7.099  19.603  0.00  0.00    +0.000 A 
ATOM      9  C   UNL     1       1.532   7.764  20.653  0.00  0.00    +0.000 A 
ATOM     10  C   UNL     1       1.032   9.065  20.501  0.00  0.00    +0.000 A 
ATOM     11  C   UNL     1       1.182   9.727  19.283  0.00  0.00    +0.000 A 
ATOM     12  I   UNL     1       0.462  11.662  19.054  0.00  0.00    +0.000 I 
ATOM     13  C   UNL     1       1.820   9.097  18.221  0.00  0.00    +0.000 A 
ATOM     14  C   UNL     1       2.318   7.798  18.384  0.00  0.00    +0.000 A 
ENDBRANCH   6   8
BRANCH   4  15
ATOM     15  N   UNL     1       5.555   3.762  18.662  0.00  0.00    +0.000 N 
ATOM     16  H   UNL     1       5.565   2.753  18.541  0.00  0.00    +0.000 HD
BRANCH  15  17
ATOM     17  C   UNL     1       5.978   4.486  17.458  0.00  0.00    +0.000 C 
BRANCH  17  18
ATOM     18  C   UNL     1       7.385   5.061  17.668  0.00  0.00    +0.000 C 
BRANCH  18  19
ATOM     19  O   UNL     1       8.335   3.993  17.732  0.00  0.00    +0.000 OA
ATOM     20  H   UNL     1       8.399   3.791  18.686  0.00  0.00    +0.000 HD
ENDBRANCH  18  19
ENDBRANCH  17  18
ENDBRANCH  15  17
ENDBRANCH   4  15
TORSDOF 5
ENDMDL
MODEL 2
REMARK VINA RESULT:      -6.8      0.826      1.406
REMARK  Name = 
REMARK  6 active torsions:
REMARK  status: ('A' for Active; 'I' for Inactive)
REMARK    1  A    between atoms: C_1  and  C_2
REMARK    2  A    between atoms: C_4  and  N_5
REMARK    3  A    between atoms: N_5  and  C_6
REMARK    4  A    between atoms: C_6  and  C_7
REMARK    5  A    between atoms: C_7  and  O_8
REMARK    6  A    between atoms: C_10  and  C_11
REMARK                            x       y       z     vdW  Elec       q    Type
REMARK                         _______ _______ _______ _____ _____    ______ ____
ROOT
ATOM      1  C   UNL     1       1.781   2.489  20.721  0.00  0.00    +0.000 C 
ATOM      2  C   UNL     1       2.636   3.533  20.072  0.00  0.00    +0.000 A 
ATOM      3  C   UNL     1       3.904   3.237  19.627  0.00  0.00    +0.000 A 
ATOM      4  C   UNL     1       4.668   4.284  19.153  0.00  0.00    +0.000 A 
ATOM      5  N   UNL     1       4.189   5.536  19.076  0.00  0.00    +0.000 NA
ATOM      6  C   UNL     1       2.918   5.735  19.482  0.00  0.00    +0.000 A 
ATOM      7  N   UNL     1       2.126   4.774  19.991  0.00  0.00    +0.000 NA
ENDROOT
BRANCH   6   8
ATOM      8  C   UNL     1       2.338   7.093  19.365  0.00  0.00    +0.000 A 
ATOM      9  C   UNL     1       2.382   7.820  18.160  0.00  0.00    +0.000 A 
ATOM     10  C   UNL     1       1.808   9.094  18.050  0.00  0.00    +0.000 A 
ATOM     11  C   UNL     1       1.179   9.669  19.153  0.00  0.00    +0.000 A 
ATOM     12  I   UNL     1       0.309  11.549  18.993  0.00  0.00    +0.000 I 
ATOM     13  C   UNL     1       1.126   8.984  20.361  0.00  0.00    +0.000 A 
ATOM     14  C   UNL     1       1.701   7.711  20.460  0.00  0.00    +0.000 A 
ENDBRANCH   6   8
BRANCH   4  15
ATOM     15  N   UNL     1       6.004   3.996  18.824  0.00  0.00    +0.000 N 
ATOM     16  H   UNL     1       6.048   3.142  18.273  0.00  0.00    +0.000 HD
BRANCH  15  17
ATOM     17  C   UNL     1       6.790   5.091  18.243  0.00  0.00    +0.000 C 
BRANCH  17  18
ATOM     18  C   UNL     1       7.282   4.690  16.846  0.00  0.00    +0.000 C 
BRANCH  18  19
ATOM     19  O   UNL     1       7.432   5.860  16.036  0.00  0.00    +0.000 OA
ATOM     20  H   UNL     1       8.342   5.789  15.685  0.00  0.00    +0.000 HD
ENDBRANCH  18  19
ENDBRANCH  17  18
ENDBRANCH  15  17
ENDBRANCH   4  15
TORSDOF 5
ENDMDL
MODEL 3
REMARK VINA RESULT:      -6.8      2.021      2.161
REMARK  Name = 
REMARK  6 active torsions:
REMARK  status: ('A' for Active; 'I' for Inactive)
REMARK    1  A    between atoms: C_1  and  C_2
REMARK    2  A    between atoms: C_4  and  N_5
REMARK    3  A    between atoms: N_5  and  C_6
REMARK    4  A    between atoms: C_6  and  C_7
REMARK    5  A    between atoms: C_7  and  O_8
REMARK    6  A    between atoms: C_10  and  C_11
REMARK                            x       y       z     vdW  Elec       q    Type
REMARK                         _______ _______ _______ _____ _____    ______ ____
ROOT
ATOM      1  C   UNL     1       2.564   2.712  17.510  0.00  0.00    +0.000 C 
ATOM      2  C   UNL     1       3.261   4.037  17.532  0.00  0.00    +0.000 A 
ATOM      3  C   UNL     1       4.568   4.160  17.122  0.00  0.00    +0.000 A 
ATOM      4  C   UNL     1       5.171   5.390  17.288  0.00  0.00    +0.000 A 
ATOM      5  N   UNL     1       4.506   6.447  17.782  0.00  0.00    +0.000 NA
ATOM      6  C   UNL     1       3.211   6.259  18.112  0.00  0.00    +0.000 A 
ATOM      7  N   UNL     1       2.567   5.082  18.015  0.00  0.00    +0.000 NA
ENDROOT
BRANCH   6   8
ATOM      8  C   UNL     1       2.431   7.414  18.613  0.00  0.00    +0.000 A 
ATOM      9  C   UNL     1       2.008   7.504  19.953  0.00  0.00    +0.000 A 
ATOM     10  C   UNL     1       1.293   8.613  20.425  0.00  0.00    +0.000 A 
ATOM     11  C   UNL     1       0.982   9.659  19.557  0.00  0.00    +0.000 A 
ATOM     12  I   UNL     1      -0.061  11.315  20.253  0.00  0.00    +0.000 I 
ATOM     13  C   UNL     1       1.375   9.599  18.225  0.00  0.00    +0.000 A 
ATOM     14  C   UNL     1       2.091   8.487  17.764  0.00  0.00    +0.000 A 
ENDBRANCH   6   8
BRANCH   4  15
ATOM     15  N   UNL     1       6.542   5.470  16.988  0.00  0.00    +0.000 N 
ATOM     16  H   UNL     1       6.783   6.422  16.722  0.00  0.00    +0.000 HD
BRANCH  15  17
ATOM     17  C   UNL     1       7.466   4.903  17.976  0.00  0.00    +0.000 C 
BRANCH  17  18
ATOM     18  C   UNL     1       7.872   5.986  18.985  0.00  0.00    +0.000 C 
BRANCH  18  19
ATOM     19  O   UNL     1       7.838   5.445  20.309  0.00  0.00    +0.000 OA
ATOM     20  H   UNL     1       8.510   5.964  20.794  0.00  0.00    +0.000 HD
ENDBRANCH  18  19
ENDBRANCH  17  18
ENDBRANCH  15  17
ENDBRANCH   4  15
TORSDOF 5
ENDMDL
MODEL 4
REMARK VINA RESULT:      -6.8      1.842      3.548
REMARK  Name = 
REMARK  6 active torsions:
REMARK  status: ('A' for Active; 'I' for Inactive)
REMARK    1  A    between atoms: C_1  and  C_2
REMARK    2  A    between atoms: C_4  and  N_5
REMARK    3  A    between atoms: N_5  and  C_6
REMARK    4  A    between atoms: C_6  and  C_7
REMARK    5  A    between atoms: C_7  and  O_8
REMARK    6  A    between atoms: C_10  and  C_11
REMARK                            x       y       z     vdW  Elec       q    Type
REMARK                         _______ _______ _______ _____ _____    ______ ____
ROOT
ATOM      1  C   UNL     1       5.687   5.501  15.102  0.00  0.00    +0.000 C 
ATOM      2  C   UNL     1       5.195   5.414  16.514  0.00  0.00    +0.000 A 
ATOM      3  C   UNL     1       5.588   4.389  17.342  0.00  0.00    +0.000 A 
ATOM      4  C   UNL     1       4.994   4.317  18.586  0.00  0.00    +0.000 A 
ATOM      5  N   UNL     1       4.105   5.232  19.003  0.00  0.00    +0.000 NA
ATOM      6  C   UNL     1       3.810   6.237  18.152  0.00  0.00    +0.000 A 
ATOM      7  N   UNL     1       4.319   6.353  16.912  0.00  0.00    +0.000 NA
ENDROOT
BRANCH   6   8
ATOM      8  C   UNL     1       2.872   7.292  18.596  0.00  0.00    +0.000 A 
ATOM      9  C   UNL     1       2.496   8.359  17.757  0.00  0.00    +0.000 A 
ATOM     10  C   UNL     1       1.587   9.339  18.177  0.00  0.00    +0.000 A 
ATOM     11  C   UNL     1       1.036   9.272  19.455  0.00  0.00    +0.000 A 
ATOM     12  I   UNL     1      -0.328  10.710  20.078  0.00  0.00    +0.000 I 
ATOM     13  C   UNL     1       1.391   8.239  20.314  0.00  0.00    +0.000 A 
ATOM     14  C   UNL     1       2.299   7.263  19.885  0.00  0.00    +0.000 A 
ENDBRANCH   6   8
BRANCH   4  15
ATOM     15  N   UNL     1       5.305   3.194  19.373  0.00  0.00    +0.000 N 
ATOM     16  H   UNL     1       5.963   3.455  20.102  0.00  0.00    +0.000 HD
BRANCH  15  17
ATOM     17  C   UNL     1       4.171   2.412  19.879  0.00  0.00    +0.000 C 
BRANCH  17  18
ATOM     18  C   UNL     1       3.368   1.842  18.702  0.00  0.00    +0.000 C 
BRANCH  18  19
ATOM     19  O   UNL     1       4.179   0.915  17.973  0.00  0.00    +0.000 OA
ATOM     20  H   UNL     1       4.019   1.148  17.036  0.00  0.00    +0.000 HD
ENDBRANCH  18  19
ENDBRANCH  17  18
ENDBRANCH  15  17
ENDBRANCH   4  15
TORSDOF 5
ENDMDL
MODEL 5
REMARK VINA RESULT:      -6.7      1.020      1.068
REMARK  Name = 
REMARK  6 active torsions:
REMARK  status: ('A' for Active; 'I' for Inactive)
REMARK    1  A    between atoms: C_1  and  C_2
REMARK    2  A    between atoms: C_4  and  N_5
REMARK    3  A    between atoms: N_5  and  C_6
REMARK    4  A    between atoms: C_6  and  C_7
REMARK    5  A    between atoms: C_7  and  O_8
REMARK    6  A    between atoms: C_10  and  C_11
REMARK                            x       y       z     vdW  Elec       q    Type
REMARK                         _______ _______ _______ _____ _____    ______ ____
ROOT
ATOM      1  C   UNL     1       2.123   2.292  20.131  0.00  0.00    +0.000 C 
ATOM      2  C   UNL     1       2.951   3.442  19.647  0.00  0.00    +0.000 A 
ATOM      3  C   UNL     1       4.265   3.268  19.281  0.00  0.00    +0.000 A 
ATOM      4  C   UNL     1       4.989   4.399  18.963  0.00  0.00    +0.000 A 
ATOM      5  N   UNL     1       4.432   5.621  18.958  0.00  0.00    +0.000 NA
ATOM      6  C   UNL     1       3.123   5.702  19.277  0.00  0.00    +0.000 A 
ATOM      7  N   UNL     1       2.364   4.651  19.635  0.00  0.00    +0.000 NA
ENDROOT
BRANCH   6   8
ATOM      8  C   UNL     1       2.462   7.027  19.234  0.00  0.00    +0.000 A 
ATOM      9  C   UNL     1       1.804   7.569  20.354  0.00  0.00    +0.000 A 
ATOM     10  C   UNL     1       1.203   8.835  20.311  0.00  0.00    +0.000 A 
ATOM     11  C   UNL     1       1.248   9.585  19.137  0.00  0.00    +0.000 A 
ATOM     12  I   UNL     1       0.377  11.470  19.072  0.00  0.00    +0.000 I 
ATOM     13  C   UNL     1       1.881   9.077  18.009  0.00  0.00    +0.000 A 
ATOM     14  C   UNL     1       2.479   7.812  18.062  0.00  0.00    +0.000 A 
ENDBRANCH   6   8
BRANCH   4  15
ATOM     15  N   UNL     1       6.362   4.226  18.718  0.00  0.00    +0.000 N 
ATOM     16  H   UNL     1       6.545   3.265  18.440  0.00  0.00    +0.000 HD
BRANCH  15  17
ATOM     17  C   UNL     1       7.001   5.206  17.833  0.00  0.00    +0.000 C 
BRANCH  17  18
ATOM     18  C   UNL     1       7.100   4.634  16.412  0.00  0.00    +0.000 C 
BRANCH  18  19
ATOM     19  O   UNL     1       7.537   5.657  15.512  0.00  0.00    +0.000 OA
ATOM     20  H   UNL     1       8.182   5.203  14.934  0.00  0.00    +0.000 HD
ENDBRANCH  18  19
ENDBRANCH  17  18
ENDBRANCH  15  17
ENDBRANCH   4  15
TORSDOF 5
ENDMDL
MODEL 6
REMARK VINA RESULT:      -6.6      2.253      2.775
REMARK  Name = 
REMARK  6 active torsions:
REMARK  status: ('A' for Active; 'I' for Inactive)
REMARK    1  A    between atoms: C_1  and  C_2
REMARK    2  A    between atoms: C_4  and  N_5
REMARK    3  A    between atoms: N_5  and  C_6
REMARK    4  A    between atoms: C_6  and  C_7
REMARK    5  A    between atoms: C_7  and  O_8
REMARK    6  A    between atoms: C_10  and  C_11
REMARK                            x       y       z     vdW  Elec       q    Type
REMARK                         _______ _______ _______ _____ _____    ______ ____
ROOT
ATOM      1  C   UNL     1       3.547   2.572  17.988  0.00  0.00    +0.000 C 
ATOM      2  C   UNL     1       3.792   3.991  17.578  0.00  0.00    +0.000 A 
ATOM      3  C   UNL     1       4.733   4.303  16.625  0.00  0.00    +0.000 A 
ATOM      4  C   UNL     1       4.981   5.641  16.395  0.00  0.00    +0.000 A 
ATOM      5  N   UNL     1       4.302   6.609  17.031  0.00  0.00    +0.000 NA
ATOM      6  C   UNL     1       3.358   6.221  17.914  0.00  0.00    +0.000 A 
ATOM      7  N   UNL     1       3.087   4.939  18.219  0.00  0.00    +0.000 NA
ENDROOT
BRANCH   6   8
ATOM      8  C   UNL     1       2.555   7.260  18.598  0.00  0.00    +0.000 A 
ATOM      9  C   UNL     1       2.206   7.159  19.958  0.00  0.00    +0.000 A 
ATOM     10  C   UNL     1       1.468   8.160  20.604  0.00  0.00    +0.000 A 
ATOM     11  C   UNL     1       1.058   9.287  19.894  0.00  0.00    +0.000 A 
ATOM     12  I   UNL     1      -0.020  10.784  20.849  0.00  0.00    +0.000 I 
ATOM     13  C   UNL     1       1.376   9.416  18.547  0.00  0.00    +0.000 A 
ATOM     14  C   UNL     1       2.115   8.412  17.911  0.00  0.00    +0.000 A 
ENDBRANCH   6   8
BRANCH   4  15
ATOM     15  N   UNL     1       6.034   5.950  15.516  0.00  0.00    +0.000 N 
ATOM     16  H   UNL     1       6.499   6.801  15.819  0.00  0.00    +0.000 HD
BRANCH  15  17
ATOM     17  C   UNL     1       6.973   4.865  15.209  0.00  0.00    +0.000 C 
BRANCH  17  18
ATOM     18  C   UNL     1       7.110   4.715  13.688  0.00  0.00    +0.000 C 
BRANCH  18  19
ATOM     19  O   UNL     1       8.020   5.700  13.189  0.00  0.00    +0.000 OA
ATOM     20  H   UNL     1       8.690   5.783  13.897  0.00  0.00    +0.000 HD
ENDBRANCH  18  19
ENDBRANCH  17  18
ENDBRANCH  15  17
ENDBRANCH   4  15
TORSDOF 5
ENDMDL
MODEL 7
REMARK VINA RESULT:      -6.5      2.198      3.830
REMARK  Name = 
REMARK  6 active torsions:
REMARK  status: ('A' for Active; 'I' for Inactive)
REMARK    1  A    between atoms: C_1  and  C_2
REMARK    2  A    between atoms: C_4  and  N_5
REMARK    3  A    between atoms: N_5  and  C_6
REMARK    4  A    between atoms: C_6  and  C_7
REMARK    5  A    between atoms: C_7  and  O_8
REMARK    6  A    between atoms: C_10  and  C_11
REMARK                            x       y       z     vdW  Elec       q    Type
REMARK                         _______ _______ _______ _____ _____    ______ ____
ROOT
ATOM      1  C   UNL     1       5.330   4.953  15.927  0.00  0.00    +0.000 C 
ATOM      2  C   UNL     1       4.478   4.984  17.158  0.00  0.00    +0.000 A 
ATOM      3  C   UNL     1       4.322   3.865  17.942  0.00  0.00    +0.000 A 
ATOM      4  C   UNL     1       3.425   3.947  18.988  0.00  0.00    +0.000 A 
ATOM      5  N   UNL     1       2.763   5.080  19.271  0.00  0.00    +0.000 NA
ATOM      6  C   UNL     1       3.011   6.150  18.486  0.00  0.00    +0.000 A 
ATOM      7  N   UNL     1       3.841   6.137  17.428  0.00  0.00    +0.000 NA
ENDROOT
BRANCH   6   8
ATOM      8  C   UNL     1       2.337   7.431  18.798  0.00  0.00    +0.000 A 
ATOM      9  C   UNL     1       2.146   8.430  17.824  0.00  0.00    +0.000 A 
ATOM     10  C   UNL     1       1.484   9.629  18.122  0.00  0.00    +0.000 A 
ATOM     11  C   UNL     1       1.002   9.854  19.410  0.00  0.00    +0.000 A 
ATOM     12  I   UNL     1       0.003  11.621  19.854  0.00  0.00    +0.000 I 
ATOM     13  C   UNL     1       1.182   8.894  20.399  0.00  0.00    +0.000 A 
ATOM     14  C   UNL     1       1.843   7.699  20.092  0.00  0.00    +0.000 A 
ENDBRANCH   6   8
BRANCH   4  15
ATOM     15  N   UNL     1       3.175   2.762  19.703  0.00  0.00    +0.000 N 
ATOM     16  H   UNL     1       3.786   2.712  20.514  0.00  0.00    +0.000 HD
BRANCH  15  17
ATOM     17  C   UNL     1       1.773   2.472  20.025  0.00  0.00    +0.000 C 
BRANCH  17  18
ATOM     18  C   UNL     1       1.579   2.483  21.547  0.00  0.00    +0.000 C 
BRANCH  18  19
ATOM     19  O   UNL     1       2.283   3.594  22.112  0.00  0.00    +0.000 OA
ATOM     20  H   UNL     1       2.957   3.814  21.438  0.00  0.00    +0.000 HD
ENDBRANCH  18  19
ENDBRANCH  17  18
ENDBRANCH  15  17
ENDBRANCH   4  15
TORSDOF 5
ENDMDL
MODEL 8
REMARK VINA RESULT:      -6.5      1.359      1.775
REMARK  Name = 
REMARK  6 active torsions:
REMARK  status: ('A' for Active; 'I' for Inactive)
REMARK    1  A    between atoms: C_1  and  C_2
REMARK    2  A    between atoms: C_4  and  N_5
REMARK    3  A    between atoms: N_5  and  C_6
REMARK    4  A    between atoms: C_6  and  C_7
REMARK    5  A    between atoms: C_7  and  O_8
REMARK    6  A    between atoms: C_10  and  C_11
REMARK                            x       y       z     vdW  Elec       q    Type
REMARK                         _______ _______ _______ _____ _____    ______ ____
ROOT
ATOM      1  C   UNL     1       1.391   2.078  19.039  0.00  0.00    +0.000 C 
ATOM      2  C   UNL     1       2.272   3.175  18.527  0.00  0.00    +0.000 A 
ATOM      3  C   UNL     1       3.435   2.895  17.848  0.00  0.00    +0.000 A 
ATOM      4  C   UNL     1       4.248   3.961  17.518  0.00  0.00    +0.000 A 
ATOM      5  N   UNL     1       3.905   5.228  17.797  0.00  0.00    +0.000 NA
ATOM      6  C   UNL     1       2.723   5.425  18.418  0.00  0.00    +0.000 A 
ATOM      7  N   UNL     1       1.897   4.436  18.805  0.00  0.00    +0.000 NA
ENDROOT
BRANCH   6   8
ATOM      8  C   UNL     1       2.289   6.813  18.697  0.00  0.00    +0.000 A 
ATOM      9  C   UNL     1       2.179   7.779  17.678  0.00  0.00    +0.000 A 
ATOM     10  C   UNL     1       1.742   9.083  17.947  0.00  0.00    +0.000 A 
ATOM     11  C   UNL     1       1.408   9.448  19.250  0.00  0.00    +0.000 A 
ATOM     12  I   UNL     1       0.742  11.374  19.653  0.00  0.00    +0.000 I 
ATOM     13  C   UNL     1       1.514   8.523  20.282  0.00  0.00    +0.000 A 
ATOM     14  C   UNL     1       1.950   7.222  20.003  0.00  0.00    +0.000 A 
ENDBRANCH   6   8
BRANCH   4  15
ATOM     15  N   UNL     1       5.493   3.654  16.943  0.00  0.00    +0.000 N 
ATOM     16  H   UNL     1       5.367   3.000  16.174  0.00  0.00    +0.000 HD
BRANCH  15  17
ATOM     17  C   UNL     1       6.352   4.790  16.590  0.00  0.00    +0.000 C 
BRANCH  17  18
ATOM     18  C   UNL     1       7.359   5.047  17.719  0.00  0.00    +0.000 C 
BRANCH  18  19
ATOM     19  O   UNL     1       8.348   4.013  17.724  0.00  0.00    +0.000 OA
ATOM     20  H   UNL     1       7.852   3.212  17.987  0.00  0.00    +0.000 HD
ENDBRANCH  18  19
ENDBRANCH  17  18
ENDBRANCH  15  17
ENDBRANCH   4  15
TORSDOF 5
ENDMDL
MODEL 9
REMARK VINA RESULT:      -6.5      1.743      2.111
REMARK  Name = 
REMARK  6 active torsions:
REMARK  status: ('A' for Active; 'I' for Inactive)
REMARK    1  A    between atoms: C_1  and  C_2
REMARK    2  A    between atoms: C_4  and  N_5
REMARK    3  A    between atoms: N_5  and  C_6
REMARK    4  A    between atoms: C_6  and  C_7
REMARK    5  A    between atoms: C_7  and  O_8
REMARK    6  A    between atoms: C_10  and  C_11
REMARK                            x       y       z     vdW  Elec       q    Type
REMARK                         _______ _______ _______ _____ _____    ______ ____
ROOT
ATOM      1  C   UNL     1       1.528   2.221  18.646  0.00  0.00    +0.000 C 
ATOM      2  C   UNL     1       2.427   3.365  18.293  0.00  0.00    +0.000 A 
ATOM      3  C   UNL     1       3.659   3.151  17.720  0.00  0.00    +0.000 A 
ATOM      4  C   UNL     1       4.472   4.252  17.539  0.00  0.00    +0.000 A 
ATOM      5  N   UNL     1       4.070   5.493  17.858  0.00  0.00    +0.000 NA
ATOM      6  C   UNL     1       2.827   5.626  18.367  0.00  0.00    +0.000 A 
ATOM      7  N   UNL     1       1.993   4.598  18.607  0.00  0.00    +0.000 NA
ENDROOT
BRANCH   6   8
ATOM      8  C   UNL     1       2.331   6.985  18.683  0.00  0.00    +0.000 A 
ATOM      9  C   UNL     1       2.219   7.986  17.699  0.00  0.00    +0.000 A 
ATOM     10  C   UNL     1       1.723   9.261  18.002  0.00  0.00    +0.000 A 
ATOM     11  C   UNL     1       1.332   9.562  19.306  0.00  0.00    +0.000 A 
ATOM     12  I   UNL     1       0.578  11.444  19.759  0.00  0.00    +0.000 I 
ATOM     13  C   UNL     1       1.437   8.601  20.305  0.00  0.00    +0.000 A 
ATOM     14  C   UNL     1       1.932   7.329  19.991  0.00  0.00    +0.000 A 
ENDBRANCH   6   8
BRANCH   4  15
ATOM     15  N   UNL     1       5.776   4.007  17.076  0.00  0.00    +0.000 N 
ATOM     16  H   UNL     1       6.204   3.264  17.623  0.00  0.00    +0.000 HD
BRANCH  15  17
ATOM     17  C   UNL     1       5.934   3.814  15.630  0.00  0.00    +0.000 C 
BRANCH  17  18
ATOM     18  C   UNL     1       6.224   5.163  14.957  0.00  0.00    +0.000 C 
BRANCH  18  19
ATOM     19  O   UNL     1       7.557   5.579  15.271  0.00  0.00    +0.000 OA
ATOM     20  H   UNL     1       7.909   5.906  14.419  0.00  0.00    +0.000 HD
ENDBRANCH  18  19
ENDBRANCH  17  18
ENDBRANCH  15  17
ENDBRANCH   4  15
TORSDOF 5
ENDMDL
