MODEL 1
REMARK VINA RESULT:      -7.8      0.000      0.000
REMARK  Name = 
REMARK  9 active torsions:
REMARK  status: ('A' for Active; 'I' for Inactive)
REMARK    1  A    between atoms: C_2  and  C_11
REMARK    2  A    between atoms: N_3  and  C_4
REMARK    3  A    between atoms: C_4  and  C_5
REMARK    4  A    between atoms: C_5  and  C_6
REMARK    5  A    between atoms: C_6  and  C_7
REMARK    6  A    between atoms: C_7  and  C_8
REMARK    7  A    between atoms: C_8  and  C_9
REMARK    8  A    between atoms: N_13  and  C_14
REMARK    9  A    between atoms: C_14  and  C_15
REMARK                            x       y       z     vdW  Elec       q    Type
REMARK                         _______ _______ _______ _____ _____    ______ ____
ROOT
ATOM      1  C   UNL     1       2.289   7.359  18.932  0.00  0.00    +0.000 A 
ATOM      2  C   UNL     1       3.200   6.959  18.012  0.00  0.00    +0.000 A 
ATOM      3  N   UNL     1       3.850   5.725  17.952  0.00  0.00    +0.000 N 
ATOM      4  C   UNL     1       3.534   4.747  18.930  0.00  0.00    +0.000 A 
ATOM      5  C   UNL     1       4.158   3.490  19.019  0.00  0.00    +0.000 A 
ATOM      6  C   UNL     1       3.899   2.632  20.089  0.00  0.00    +0.000 A 
ATOM      7 CL   UNL     1       4.843   1.205  20.274  0.00  0.00    +0.000 Cl
ATOM      8  C   UNL     1       2.913   2.951  21.014  0.00  0.00    +0.000 A 
ATOM      9  F   UNL     1       2.663   2.150  22.058  0.00  0.00    +0.000 F 
ATOM     10  C   UNL     1       2.195   4.125  20.895  0.00  0.00    +0.000 A 
ATOM     11  C   UNL     1       2.553   5.039  19.902  0.00  0.00    +0.000 A 
ATOM     12  C   UNL     1       1.910   6.373  19.956  0.00  0.00    +0.000 A 
ATOM     13  O   UNL     1       1.113   6.637  20.828  0.00  0.00    +0.000 OA
ENDROOT
BRANCH   1  15
ATOM     14  O   UNL     1       1.808   9.413  17.860  0.00  0.00    +0.000 OA
ATOM     15  C   UNL     1       1.771   8.750  18.887  0.00  0.00    +0.000 C 
ATOM     16  N   UNL     1       1.252   9.242  20.066  0.00  0.00    +0.000 N 
ATOM     17  H   UNL     1       1.111   8.597  20.842  0.00  0.00    +0.000 HD
BRANCH  16  18
ATOM     18  C   UNL     1       0.772  10.599  20.169  0.00  0.00    +0.000 C 
BRANCH  18  19
ATOM     19  C   UNL     1      -0.703  10.707  19.799  0.00  0.00    +0.000 C 
BRANCH  19  20
ATOM     20  C   UNL     1      -0.929  11.848  18.807  0.00  0.00    +0.000 C 
BRANCH  20  21
ATOM     21  C   UNL     1      -2.275  11.704  18.102  0.00  0.00    +0.000 C 
BRANCH  21  22
ATOM     22  C   UNL     1      -2.610  10.235  17.850  0.00  0.00    +0.000 C 
BRANCH  22  23
ATOM     23  C   UNL     1      -2.082   9.799  16.496  0.00  0.00    +0.000 C 
ATOM     24 BR   UNL     1      -3.289  10.394  15.092  0.00  0.00    +0.000 Br
ENDBRANCH  22  23
ENDBRANCH  21  22
ENDBRANCH  20  21
ENDBRANCH  19  20
ENDBRANCH  18  19
ENDBRANCH  16  18
ENDBRANCH   1  15
BRANCH   3  25
ATOM     25  C   UNL     1       4.964   5.434  17.005  0.00  0.00    +0.000 C 
BRANCH  25  26
ATOM     26  C   UNL     1       6.263   6.076  17.440  0.00  0.00    +0.000 A 
ATOM     27  C   UNL     1       7.044   5.461  18.425  0.00  0.00    +0.000 A 
ATOM     28  C   UNL     1       8.037   6.186  19.075  0.00  0.00    +0.000 A 
ATOM     29  C   UNL     1       8.372   7.462  18.627  0.00  0.00    +0.000 A 
ATOM     30  C   UNL     1       7.731   8.005  17.516  0.00  0.00    +0.000 A 
ATOM     31  C   UNL     1       6.649   7.333  16.949  0.00  0.00    +0.000 A 
ENDBRANCH  25  26
ENDBRANCH   3  25
TORSDOF 9
ENDMDL
MODEL 2
REMARK VINA RESULT:      -7.7      4.464      7.871
REMARK  Name = 
REMARK  9 active torsions:
REMARK  status: ('A' for Active; 'I' for Inactive)
REMARK    1  A    between atoms: C_2  and  C_11
REMARK    2  A    between atoms: N_3  and  C_4
REMARK    3  A    between atoms: C_4  and  C_5
REMARK    4  A    between atoms: C_5  and  C_6
REMARK    5  A    between atoms: C_6  and  C_7
REMARK    6  A    between atoms: C_7  and  C_8
REMARK    7  A    between atoms: C_8  and  C_9
REMARK    8  A    between atoms: N_13  and  C_14
REMARK    9  A    between atoms: C_14  and  C_15
REMARK                            x       y       z     vdW  Elec       q    Type
REMARK                         _______ _______ _______ _____ _____    ______ ____
ROOT
ATOM      1  C   UNL     1       5.806   5.300  16.504  0.00  0.00    +0.000 A 
ATOM      2  C   UNL     1       5.565   4.546  17.603  0.00  0.00    +0.000 A 
ATOM      3  N   UNL     1       4.639   4.804  18.615  0.00  0.00    +0.000 N 
ATOM      4  C   UNL     1       3.826   5.962  18.507  0.00  0.00    +0.000 A 
ATOM      5  C   UNL     1       2.899   6.369  19.483  0.00  0.00    +0.000 A 
ATOM      6  C   UNL     1       2.235   7.592  19.378  0.00  0.00    +0.000 A 
ATOM      7 CL   UNL     1       1.279   8.149  20.697  0.00  0.00    +0.000 Cl
ATOM      8  C   UNL     1       2.377   8.366  18.233  0.00  0.00    +0.000 A 
ATOM      9  F   UNL     1       1.762   9.551  18.122  0.00  0.00    +0.000 F 
ATOM     10  C   UNL     1       3.189   7.943  17.199  0.00  0.00    +0.000 A 
ATOM     11  C   UNL     1       3.954   6.788  17.369  0.00  0.00    +0.000 A 
ATOM     12  C   UNL     1       4.974   6.501  16.333  0.00  0.00    +0.000 A 
ATOM     13  O   UNL     1       5.119   7.245  15.389  0.00  0.00    +0.000 OA
ENDROOT
BRANCH   1  15
ATOM     14  O   UNL     1       7.916   4.361  15.985  0.00  0.00    +0.000 OA
ATOM     15  C   UNL     1       6.901   4.910  15.579  0.00  0.00    +0.000 C 
ATOM     16  N   UNL     1       6.703   5.206  14.247  0.00  0.00    +0.000 N 
ATOM     17  H   UNL     1       5.782   5.523  13.951  0.00  0.00    +0.000 HD
BRANCH  16  18
ATOM     18  C   UNL     1       7.717   4.933  13.256  0.00  0.00    +0.000 C 
BRANCH  18  19
ATOM     19  C   UNL     1       7.174   4.087  12.109  0.00  0.00    +0.000 C 
BRANCH  19  20
ATOM     20  C   UNL     1       5.752   3.616  12.412  0.00  0.00    +0.000 C 
BRANCH  20  21
ATOM     21  C   UNL     1       4.858   3.741  11.181  0.00  0.00    +0.000 C 
BRANCH  21  22
ATOM     22  C   UNL     1       3.883   2.570  11.088  0.00  0.00    +0.000 C 
BRANCH  22  23
ATOM     23  C   UNL     1       2.532   3.047  10.587  0.00  0.00    +0.000 C 
ATOM     24 BR   UNL     1       2.775   4.471   9.285  0.00  0.00    +0.000 Br
ENDBRANCH  22  23
ENDBRANCH  21  22
ENDBRANCH  20  21
ENDBRANCH  19  20
ENDBRANCH  18  19
ENDBRANCH  16  18
ENDBRANCH   1  15
BRANCH   3  25
ATOM     25  C   UNL     1       4.562   4.010  19.875  0.00  0.00    +0.000 C 
BRANCH  25  26
ATOM     26  C   UNL     1       3.253   3.261  19.996  0.00  0.00    +0.000 A 
ATOM     27  C   UNL     1       2.758   2.548  18.899  0.00  0.00    +0.000 A 
ATOM     28  C   UNL     1       1.426   2.152  18.873  0.00  0.00    +0.000 A 
ATOM     29  C   UNL     1       0.633   2.308  20.008  0.00  0.00    +0.000 A 
ATOM     30  C   UNL     1       1.177   2.838  21.175  0.00  0.00    +0.000 A 
ATOM     31  C   UNL     1       2.472   3.355  21.159  0.00  0.00    +0.000 A 
ENDBRANCH  25  26
ENDBRANCH   3  25
TORSDOF 9
ENDMDL
MODEL 3
REMARK VINA RESULT:      -7.6      4.132      7.103
REMARK  Name = 
REMARK  9 active torsions:
REMARK  status: ('A' for Active; 'I' for Inactive)
REMARK    1  A    between atoms: C_2  and  C_11
REMARK    2  A    between atoms: N_3  and  C_4
REMARK    3  A    between atoms: C_4  and  C_5
REMARK    4  A    between atoms: C_5  and  C_6
REMARK    5  A    between atoms: C_6  and  C_7
REMARK    6  A    between atoms: C_7  and  C_8
REMARK    7  A    between atoms: C_8  and  C_9
REMARK    8  A    between atoms: N_13  and  C_14
REMARK    9  A    between atoms: C_14  and  C_15
REMARK                            x       y       z     vdW  Elec       q    Type
REMARK                         _______ _______ _______ _____ _____    ______ ____
ROOT
ATOM      1  C   UNL     1       5.810   6.466  17.647  0.00  0.00    +0.000 A 
ATOM      2  C   UNL     1       4.621   7.116  17.630  0.00  0.00    +0.000 A 
ATOM      3  N   UNL     1       3.361   6.574  17.889  0.00  0.00    +0.000 N 
ATOM      4  C   UNL     1       3.274   5.200  18.231  0.00  0.00    +0.000 A 
ATOM      5  C   UNL     1       2.065   4.517  18.456  0.00  0.00    +0.000 A 
ATOM      6  C   UNL     1       2.045   3.136  18.651  0.00  0.00    +0.000 A 
ATOM      7 CL   UNL     1       0.534   2.313  18.704  0.00  0.00    +0.000 Cl
ATOM      8  C   UNL     1       3.237   2.430  18.764  0.00  0.00    +0.000 A 
ATOM      9  F   UNL     1       3.237   1.101  18.932  0.00  0.00    +0.000 F 
ATOM     10  C   UNL     1       4.449   3.085  18.665  0.00  0.00    +0.000 A 
ATOM     11  C   UNL     1       4.461   4.441  18.335  0.00  0.00    +0.000 A 
ATOM     12  C   UNL     1       5.777   5.043  18.019  0.00  0.00    +0.000 A 
ATOM     13  O   UNL     1       6.785   4.372  18.052  0.00  0.00    +0.000 OA
ENDROOT
BRANCH   1  15
ATOM     14  O   UNL     1       7.775   6.777  16.366  0.00  0.00    +0.000 OA
ATOM     15  C   UNL     1       7.044   7.193  17.253  0.00  0.00    +0.000 C 
ATOM     16  N   UNL     1       7.309   8.355  17.947  0.00  0.00    +0.000 N 
ATOM     17  H   UNL     1       6.591   8.728  18.565  0.00  0.00    +0.000 HD
BRANCH  16  18
ATOM     18  C   UNL     1       8.507   9.122  17.701  0.00  0.00    +0.000 C 
BRANCH  18  19
ATOM     19  C   UNL     1       8.940   9.907  18.934  0.00  0.00    +0.000 C 
BRANCH  19  20
ATOM     20  C   UNL     1       9.818  11.094  18.538  0.00  0.00    +0.000 C 
BRANCH  20  21
ATOM     21  C   UNL     1       9.007  12.156  17.801  0.00  0.00    +0.000 C 
BRANCH  21  22
ATOM     22  C   UNL     1       8.932  13.450  18.610  0.00  0.00    +0.000 C 
BRANCH  22  23
ATOM     23  C   UNL     1      10.250  13.707  19.315  0.00  0.00    +0.000 C 
ATOM     24 BR   UNL     1       9.962  13.831  21.234  0.00  0.00    +0.000 Br
ENDBRANCH  22  23
ENDBRANCH  21  22
ENDBRANCH  20  21
ENDBRANCH  19  20
ENDBRANCH  18  19
ENDBRANCH  16  18
ENDBRANCH   1  15
BRANCH   3  25
ATOM     25  C   UNL     1       2.090   7.324  17.679  0.00  0.00    +0.000 C 
BRANCH  25  26
ATOM     26  C   UNL     1       1.800   8.281  18.814  0.00  0.00    +0.000 A 
ATOM     27  C   UNL     1       1.828   7.818  20.135  0.00  0.00    +0.000 A 
ATOM     28  C   UNL     1       1.240   8.570  21.145  0.00  0.00    +0.000 A 
ATOM     29  C   UNL     1       0.781   9.858  20.877  0.00  0.00    +0.000 A 
ATOM     30  C   UNL     1       0.931  10.403  19.604  0.00  0.00    +0.000 A 
ATOM     31  C   UNL     1       1.400   9.603  18.563  0.00  0.00    +0.000 A 
ENDBRANCH  25  26
ENDBRANCH   3  25
TORSDOF 9
ENDMDL
MODEL 4
REMARK VINA RESULT:      -7.6      2.225      2.745
REMARK  Name = 
REMARK  9 active torsions:
REMARK  status: ('A' for Active; 'I' for Inactive)
REMARK    1  A    between atoms: C_2  and  C_11
REMARK    2  A    between atoms: N_3  and  C_4
REMARK    3  A    between atoms: C_4  and  C_5
REMARK    4  A    between atoms: C_5  and  C_6
REMARK    5  A    between atoms: C_6  and  C_7
REMARK    6  A    between atoms: C_7  and  C_8
REMARK    7  A    between atoms: C_8  and  C_9
REMARK    8  A    between atoms: N_13  and  C_14
REMARK    9  A    between atoms: C_14  and  C_15
REMARK                            x       y       z     vdW  Elec       q    Type
REMARK                         _______ _______ _______ _____ _____    ______ ____
ROOT
ATOM      1  C   UNL     1       2.337   7.419  18.689  0.00  0.00    +0.000 A 
ATOM      2  C   UNL     1       3.291   6.977  17.834  0.00  0.00    +0.000 A 
ATOM      3  N   UNL     1       3.935   5.739  17.859  0.00  0.00    +0.000 N 
ATOM      4  C   UNL     1       3.564   4.804  18.858  0.00  0.00    +0.000 A 
ATOM      5  C   UNL     1       4.175   3.549  19.031  0.00  0.00    +0.000 A 
ATOM      6  C   UNL     1       3.856   2.737  20.121  0.00  0.00    +0.000 A 
ATOM      7 CL   UNL     1       4.779   1.315  20.413  0.00  0.00    +0.000 Cl
ATOM      8  C   UNL     1       2.826   3.099  20.980  0.00  0.00    +0.000 A 
ATOM      9  F   UNL     1       2.518   2.342  22.042  0.00  0.00    +0.000 F 
ATOM     10  C   UNL     1       2.122   4.270  20.776  0.00  0.00    +0.000 A 
ATOM     11  C   UNL     1       2.536   5.140  19.766  0.00  0.00    +0.000 A 
ATOM     12  C   UNL     1       1.900   6.477  19.732  0.00  0.00    +0.000 A 
ATOM     13  O   UNL     1       1.060   6.781  20.550  0.00  0.00    +0.000 OA
ENDROOT
BRANCH   1  15
ATOM     14  O   UNL     1       1.954   9.440  17.520  0.00  0.00    +0.000 OA
ATOM     15  C   UNL     1       1.830   8.809  18.560  0.00  0.00    +0.000 C 
ATOM     16  N   UNL     1       1.219   9.337  19.677  0.00  0.00    +0.000 N 
ATOM     17  H   UNL     1       1.011   8.717  20.458  0.00  0.00    +0.000 HD
BRANCH  16  18
ATOM     18  C   UNL     1       0.738  10.698  19.700  0.00  0.00    +0.000 C 
BRANCH  18  19
ATOM     19  C   UNL     1      -0.429  10.870  20.666  0.00  0.00    +0.000 C 
BRANCH  19  20
ATOM     20  C   UNL     1      -0.015  10.488  22.087  0.00  0.00    +0.000 C 
BRANCH  20  21
ATOM     21  C   UNL     1      -1.161  10.709  23.071  0.00  0.00    +0.000 C 
BRANCH  21  22
ATOM     22  C   UNL     1      -1.596  12.173  23.087  0.00  0.00    +0.000 C 
BRANCH  22  23
ATOM     23  C   UNL     1      -3.070  12.280  23.435  0.00  0.00    +0.000 C 
ATOM     24 BR   UNL     1      -3.445  14.028  24.197  0.00  0.00    +0.000 Br
ENDBRANCH  22  23
ENDBRANCH  21  22
ENDBRANCH  20  21
ENDBRANCH  19  20
ENDBRANCH  18  19
ENDBRANCH  16  18
ENDBRANCH   1  15
BRANCH   3  25
ATOM     25  C   UNL     1       5.095   5.404  16.983  0.00  0.00    +0.000 C 
BRANCH  25  26
ATOM     26  C   UNL     1       6.367   6.084  17.439  0.00  0.00    +0.000 A 
ATOM     27  C   UNL     1       7.141   5.499  18.448  0.00  0.00    +0.000 A 
ATOM     28  C   UNL     1       8.101   6.256  19.112  0.00  0.00    +0.000 A 
ATOM     29  C   UNL     1       8.413   7.535  18.657  0.00  0.00    +0.000 A 
ATOM     30  C   UNL     1       7.784   8.049  17.526  0.00  0.00    +0.000 A 
ATOM     31  C   UNL     1       6.732   7.345  16.943  0.00  0.00    +0.000 A 
ENDBRANCH  25  26
ENDBRANCH   3  25
TORSDOF 9
ENDMDL
MODEL 5
REMARK VINA RESULT:      -7.3      1.263      1.557
REMARK  Name = 
REMARK  9 active torsions:
REMARK  status: ('A' for Active; 'I' for Inactive)
REMARK    1  A    between atoms: C_2  and  C_11
REMARK    2  A    between atoms: N_3  and  C_4
REMARK    3  A    between atoms: C_4  and  C_5
REMARK    4  A    between atoms: C_5  and  C_6
REMARK    5  A    between atoms: C_6  and  C_7
REMARK    6  A    between atoms: C_7  and  C_8
REMARK    7  A    between atoms: C_8  and  C_9
REMARK    8  A    between atoms: N_13  and  C_14
REMARK    9  A    between atoms: C_14  and  C_15
REMARK                            x       y       z     vdW  Elec       q    Type
REMARK                         _______ _______ _______ _____ _____    ______ ____
ROOT
ATOM      1  C   UNL     1       2.128   8.120  18.743  0.00  0.00    +0.000 A 
ATOM      2  C   UNL     1       2.987   7.639  17.813  0.00  0.00    +0.000 A 
ATOM      3  N   UNL     1       3.582   6.376  17.789  0.00  0.00    +0.000 N 
ATOM      4  C   UNL     1       3.260   5.459  18.822  0.00  0.00    +0.000 A 
ATOM      5  C   UNL     1       3.833   4.181  18.949  0.00  0.00    +0.000 A 
ATOM      6  C   UNL     1       3.576   3.385  20.066  0.00  0.00    +0.000 A 
ATOM      7 CL   UNL     1       4.465   1.927  20.286  0.00  0.00    +0.000 Cl
ATOM      8  C   UNL     1       2.639   3.789  21.008  0.00  0.00    +0.000 A 
ATOM      9  F   UNL     1       2.393   3.048  22.097  0.00  0.00    +0.000 F 
ATOM     10  C   UNL     1       1.967   4.987  20.858  0.00  0.00    +0.000 A 
ATOM     11  C   UNL     1       2.327   5.838  19.812  0.00  0.00    +0.000 A 
ATOM     12  C   UNL     1       1.744   7.199  19.825  0.00  0.00    +0.000 A 
ATOM     13  O   UNL     1       0.990   7.538  20.709  0.00  0.00    +0.000 OA
ENDROOT
BRANCH   1  15
ATOM     14  O   UNL     1       2.348  10.389  18.107  0.00  0.00    +0.000 OA
ATOM     15  C   UNL     1       1.668   9.530  18.650  0.00  0.00    +0.000 C 
ATOM     16  N   UNL     1       0.439   9.804  19.211  0.00  0.00    +0.000 N 
ATOM     17  H   UNL     1      -0.144   9.024  19.512  0.00  0.00    +0.000 HD
BRANCH  16  18
ATOM     18  C   UNL     1      -0.094  11.146  19.240  0.00  0.00    +0.000 C 
BRANCH  18  19
ATOM     19  C   UNL     1      -1.123  11.369  18.137  0.00  0.00    +0.000 C 
BRANCH  19  20
ATOM     20  C   UNL     1      -2.043  10.156  18.003  0.00  0.00    +0.000 C 
BRANCH  20  21
ATOM     21  C   UNL     1      -3.503  10.584  17.889  0.00  0.00    +0.000 C 
BRANCH  21  22
ATOM     22  C   UNL     1      -3.755  11.887  18.645  0.00  0.00    +0.000 C 
BRANCH  22  23
ATOM     23  C   UNL     1      -5.126  11.863  19.295  0.00  0.00    +0.000 C 
ATOM     24 BR   UNL     1      -6.504  11.721  17.930  0.00  0.00    +0.000 Br
ENDBRANCH  22  23
ENDBRANCH  21  22
ENDBRANCH  20  21
ENDBRANCH  19  20
ENDBRANCH  18  19
ENDBRANCH  16  18
ENDBRANCH   1  15
BRANCH   3  25
ATOM     25  C   UNL     1       4.648   5.994  16.820  0.00  0.00    +0.000 C 
BRANCH  25  26
ATOM     26  C   UNL     1       6.024   6.403  17.297  0.00  0.00    +0.000 A 
ATOM     27  C   UNL     1       6.741   5.557  18.151  0.00  0.00    +0.000 A 
ATOM     28  C   UNL     1       7.828   6.052  18.864  0.00  0.00    +0.000 A 
ATOM     29  C   UNL     1       8.310   7.331  18.598  0.00  0.00    +0.000 A 
ATOM     30  C   UNL     1       7.721   8.109  17.604  0.00  0.00    +0.000 A 
ATOM     31  C   UNL     1       6.553   7.665  16.983  0.00  0.00    +0.000 A 
ENDBRANCH  25  26
ENDBRANCH   3  25
TORSDOF 9
ENDMDL
MODEL 6
REMARK VINA RESULT:      -7.3      4.105      8.194
REMARK  Name = 
REMARK  9 active torsions:
REMARK  status: ('A' for Active; 'I' for Inactive)
REMARK    1  A    between atoms: C_2  and  C_11
REMARK    2  A    between atoms: N_3  and  C_4
REMARK    3  A    between atoms: C_4  and  C_5
REMARK    4  A    between atoms: C_5  and  C_6
REMARK    5  A    between atoms: C_6  and  C_7
REMARK    6  A    between atoms: C_7  and  C_8
REMARK    7  A    between atoms: C_8  and  C_9
REMARK    8  A    between atoms: N_13  and  C_14
REMARK    9  A    between atoms: C_14  and  C_15
REMARK                            x       y       z     vdW  Elec       q    Type
REMARK                         _______ _______ _______ _____ _____    ______ ____
ROOT
ATOM      1  C   UNL     1       2.075   8.368  18.701  0.00  0.00    +0.000 A 
ATOM      2  C   UNL     1       1.521   9.497  18.197  0.00  0.00    +0.000 A 
ATOM      3  N   UNL     1       0.742  10.431  18.883  0.00  0.00    +0.000 N 
ATOM      4  C   UNL     1       0.499  10.223  20.265  0.00  0.00    +0.000 A 
ATOM      5  C   UNL     1      -0.315  11.052  21.057  0.00  0.00    +0.000 A 
ATOM      6  C   UNL     1      -0.623  10.711  22.375  0.00  0.00    +0.000 A 
ATOM      7 CL   UNL     1      -1.794  11.635  23.234  0.00  0.00    +0.000 Cl
ATOM      8  C   UNL     1      -0.016   9.613  22.970  0.00  0.00    +0.000 A 
ATOM      9  F   UNL     1      -0.313   9.259  24.228  0.00  0.00    +0.000 F 
ATOM     10  C   UNL     1       0.882   8.840  22.260  0.00  0.00    +0.000 A 
ATOM     11  C   UNL     1       1.081   9.107  20.905  0.00  0.00    +0.000 A 
ATOM     12  C   UNL     1       1.872   8.118  20.136  0.00  0.00    +0.000 A 
ATOM     13  O   UNL     1       2.319   7.131  20.678  0.00  0.00    +0.000 OA
ENDROOT
BRANCH   1  15
ATOM     14  O   UNL     1       3.238   7.822  16.713  0.00  0.00    +0.000 OA
ATOM     15  C   UNL     1       2.800   7.444  17.791  0.00  0.00    +0.000 C 
ATOM     16  N   UNL     1       2.944   6.146  18.234  0.00  0.00    +0.000 N 
ATOM     17  H   UNL     1       2.694   5.931  19.198  0.00  0.00    +0.000 HD
BRANCH  16  18
ATOM     18  C   UNL     1       3.575   5.137  17.417  0.00  0.00    +0.000 C 
BRANCH  18  19
ATOM     19  C   UNL     1       2.623   3.991  17.097  0.00  0.00    +0.000 C 
BRANCH  19  20
ATOM     20  C   UNL     1       1.443   3.981  18.069  0.00  0.00    +0.000 C 
BRANCH  20  21
ATOM     21  C   UNL     1       1.272   2.608  18.712  0.00  0.00    +0.000 C 
BRANCH  21  22
ATOM     22  C   UNL     1       2.625   1.988  19.053  0.00  0.00    +0.000 C 
BRANCH  22  23
ATOM     23  C   UNL     1       3.151   2.555  20.359  0.00  0.00    +0.000 C 
ATOM     24 BR   UNL     1       1.683   2.810  21.608  0.00  0.00    +0.000 Br
ENDBRANCH  22  23
ENDBRANCH  21  22
ENDBRANCH  20  21
ENDBRANCH  19  20
ENDBRANCH  18  19
ENDBRANCH  16  18
ENDBRANCH   1  15
BRANCH   3  25
ATOM     25  C   UNL     1       0.030  11.554  18.209  0.00  0.00    +0.000 C 
BRANCH  25  26
ATOM     26  C   UNL     1      -1.411  11.212  17.902  0.00  0.00    +0.000 A 
ATOM     27  C   UNL     1      -2.437  12.028  18.394  0.00  0.00    +0.000 A 
ATOM     28  C   UNL     1      -3.744  11.556  18.422  0.00  0.00    +0.000 A 
ATOM     29  C   UNL     1      -4.061  10.349  17.803  0.00  0.00    +0.000 A 
ATOM     30  C   UNL     1      -3.077   9.624  17.137  0.00  0.00    +0.000 A 
ATOM     31  C   UNL     1      -1.746  10.030  17.222  0.00  0.00    +0.000 A 
ENDBRANCH  25  26
ENDBRANCH   3  25
TORSDOF 9
ENDMDL
MODEL 7
REMARK VINA RESULT:      -7.3      4.051      7.361
REMARK  Name = 
REMARK  9 active torsions:
REMARK  status: ('A' for Active; 'I' for Inactive)
REMARK    1  A    between atoms: C_2  and  C_11
REMARK    2  A    between atoms: N_3  and  C_4
REMARK    3  A    between atoms: C_4  and  C_5
REMARK    4  A    between atoms: C_5  and  C_6
REMARK    5  A    between atoms: C_6  and  C_7
REMARK    6  A    between atoms: C_7  and  C_8
REMARK    7  A    between atoms: C_8  and  C_9
REMARK    8  A    between atoms: N_13  and  C_14
REMARK    9  A    between atoms: C_14  and  C_15
REMARK                            x       y       z     vdW  Elec       q    Type
REMARK                         _______ _______ _______ _____ _____    ______ ____
ROOT
ATOM      1  C   UNL     1       5.818   6.469  17.665  0.00  0.00    +0.000 A 
ATOM      2  C   UNL     1       4.641   7.136  17.589  0.00  0.00    +0.000 A 
ATOM      3  N   UNL     1       3.364   6.620  17.820  0.00  0.00    +0.000 N 
ATOM      4  C   UNL     1       3.245   5.259  18.198  0.00  0.00    +0.000 A 
ATOM      5  C   UNL     1       2.018   4.600  18.401  0.00  0.00    +0.000 A 
ATOM      6  C   UNL     1       1.970   3.225  18.635  0.00  0.00    +0.000 A 
ATOM      7 CL   UNL     1       0.445   2.427  18.659  0.00  0.00    +0.000 Cl
ATOM      8  C   UNL     1       3.146   2.506  18.808  0.00  0.00    +0.000 A 
ATOM      9  F   UNL     1       3.119   1.183  19.014  0.00  0.00    +0.000 F 
ATOM     10  C   UNL     1       4.371   3.140  18.732  0.00  0.00    +0.000 A 
ATOM     11  C   UNL     1       4.415   4.486  18.365  0.00  0.00    +0.000 A 
ATOM     12  C   UNL     1       5.750   5.058  18.076  0.00  0.00    +0.000 A 
ATOM     13  O   UNL     1       6.746   4.374  18.163  0.00  0.00    +0.000 OA
ENDROOT
BRANCH   1  15
ATOM     14  O   UNL     1       7.799   6.747  16.400  0.00  0.00    +0.000 OA
ATOM     15  C   UNL     1       7.076   7.166  17.293  0.00  0.00    +0.000 C 
ATOM     16  N   UNL     1       7.374   8.303  18.014  0.00  0.00    +0.000 N 
ATOM     17  H   UNL     1       6.664   8.685  18.637  0.00  0.00    +0.000 HD
BRANCH  16  18
ATOM     18  C   UNL     1       8.597   9.038  17.790  0.00  0.00    +0.000 C 
BRANCH  18  19
ATOM     19  C   UNL     1       8.567  10.405  18.464  0.00  0.00    +0.000 C 
BRANCH  19  20
ATOM     20  C   UNL     1       9.510  10.435  19.667  0.00  0.00    +0.000 C 
BRANCH  20  21
ATOM     21  C   UNL     1      10.063  11.839  19.896  0.00  0.00    +0.000 C 
BRANCH  21  22
ATOM     22  C   UNL     1      11.581  11.865  19.737  0.00  0.00    +0.000 C 
BRANCH  22  23
ATOM     23  C   UNL     1      11.956  12.000  18.273  0.00  0.00    +0.000 C 
ATOM     24 BR   UNL     1      10.799  13.303  17.411  0.00  0.00    +0.000 Br
ENDBRANCH  22  23
ENDBRANCH  21  22
ENDBRANCH  20  21
ENDBRANCH  19  20
ENDBRANCH  18  19
ENDBRANCH  16  18
ENDBRANCH   1  15
BRANCH   3  25
ATOM     25  C   UNL     1       2.113   7.383  17.546  0.00  0.00    +0.000 C 
BRANCH  25  26
ATOM     26  C   UNL     1       1.632   8.143  18.762  0.00  0.00    +0.000 A 
ATOM     27  C   UNL     1       1.074   9.417  18.607  0.00  0.00    +0.000 A 
ATOM     28  C   UNL     1       0.949  10.257  19.707  0.00  0.00    +0.000 A 
ATOM     29  C   UNL     1       1.212   9.772  20.986  0.00  0.00    +0.000 A 
ATOM     30  C   UNL     1       1.578   8.440  21.168  0.00  0.00    +0.000 A 
ATOM     31  C   UNL     1       1.830   7.638  20.056  0.00  0.00    +0.000 A 
ENDBRANCH  25  26
ENDBRANCH   3  25
TORSDOF 9
ENDMDL
MODEL 8
REMARK VINA RESULT:      -7.2      4.248      7.328
REMARK  Name = 
REMARK  9 active torsions:
REMARK  status: ('A' for Active; 'I' for Inactive)
REMARK    1  A    between atoms: C_2  and  C_11
REMARK    2  A    between atoms: N_3  and  C_4
REMARK    3  A    between atoms: C_4  and  C_5
REMARK    4  A    between atoms: C_5  and  C_6
REMARK    5  A    between atoms: C_6  and  C_7
REMARK    6  A    between atoms: C_7  and  C_8
REMARK    7  A    between atoms: C_8  and  C_9
REMARK    8  A    between atoms: N_13  and  C_14
REMARK    9  A    between atoms: C_14  and  C_15
REMARK                            x       y       z     vdW  Elec       q    Type
REMARK                         _______ _______ _______ _____ _____    ______ ____
ROOT
ATOM      1  C   UNL     1       5.898   6.418  17.690  0.00  0.00    +0.000 A 
ATOM      2  C   UNL     1       4.702   7.051  17.620  0.00  0.00    +0.000 A 
ATOM      3  N   UNL     1       3.441   6.494  17.843  0.00  0.00    +0.000 N 
ATOM      4  C   UNL     1       3.361   5.126  18.205  0.00  0.00    +0.000 A 
ATOM      5  C   UNL     1       2.155   4.429  18.399  0.00  0.00    +0.000 A 
ATOM      6  C   UNL     1       2.147   3.051  18.617  0.00  0.00    +0.000 A 
ATOM      7 CL   UNL     1       0.647   2.207  18.630  0.00  0.00    +0.000 Cl
ATOM      8  C   UNL     1       3.344   2.365  18.783  0.00  0.00    +0.000 A 
ATOM      9  F   UNL     1       3.357   1.039  18.974  0.00  0.00    +0.000 F 
ATOM     10  C   UNL     1       4.549   3.035  18.716  0.00  0.00    +0.000 A 
ATOM     11  C   UNL     1       4.554   4.386  18.364  0.00  0.00    +0.000 A 
ATOM     12  C   UNL     1       5.872   5.001  18.084  0.00  0.00    +0.000 A 
ATOM     13  O   UNL     1       6.887   4.346  18.165  0.00  0.00    +0.000 OA
ENDROOT
BRANCH   1  15
ATOM     14  O   UNL     1       7.829   6.816  16.380  0.00  0.00    +0.000 OA
ATOM     15  C   UNL     1       7.135   7.157  17.328  0.00  0.00    +0.000 C 
ATOM     16  N   UNL     1       7.449   8.239  18.122  0.00  0.00    +0.000 N 
ATOM     17  H   UNL     1       6.759   8.564  18.798  0.00  0.00    +0.000 HD
BRANCH  16  18
ATOM     18  C   UNL     1       8.655   9.003  17.912  0.00  0.00    +0.000 C 
BRANCH  18  19
ATOM     19  C   UNL     1       8.579  10.375  18.573  0.00  0.00    +0.000 C 
BRANCH  19  20
ATOM     20  C   UNL     1       9.849  10.661  19.373  0.00  0.00    +0.000 C 
BRANCH  20  21
ATOM     21  C   UNL     1       9.882  12.109  19.853  0.00  0.00    +0.000 C 
BRANCH  21  22
ATOM     22  C   UNL     1      10.931  12.917  19.093  0.00  0.00    +0.000 C 
BRANCH  22  23
ATOM     23  C   UNL     1      10.815  12.662  17.602  0.00  0.00    +0.000 C 
ATOM     24 BR   UNL     1      12.333  13.446  16.675  0.00  0.00    +0.000 Br
ENDBRANCH  22  23
ENDBRANCH  21  22
ENDBRANCH  20  21
ENDBRANCH  19  20
ENDBRANCH  18  19
ENDBRANCH  16  18
ENDBRANCH   1  15
BRANCH   3  25
ATOM     25  C   UNL     1       2.168   7.223  17.576  0.00  0.00    +0.000 C 
BRANCH  25  26
ATOM     26  C   UNL     1       1.831   8.202  18.678  0.00  0.00    +0.000 A 
ATOM     27  C   UNL     1       1.851   7.779  20.012  0.00  0.00    +0.000 A 
ATOM     28  C   UNL     1       1.223   8.541  20.991  0.00  0.00    +0.000 A 
ATOM     29  C   UNL     1       0.730   9.805  20.677  0.00  0.00    +0.000 A 
ATOM     30  C   UNL     1       0.884  10.318  19.392  0.00  0.00    +0.000 A 
ATOM     31  C   UNL     1       1.394   9.503  18.381  0.00  0.00    +0.000 A 
ENDBRANCH  25  26
ENDBRANCH   3  25
TORSDOF 9
ENDMDL
MODEL 9
REMARK VINA RESULT:      -7.2      5.110      9.090
REMARK  Name = 
REMARK  9 active torsions:
REMARK  status: ('A' for Active; 'I' for Inactive)
REMARK    1  A    between atoms: C_2  and  C_11
REMARK    2  A    between atoms: N_3  and  C_4
REMARK    3  A    between atoms: C_4  and  C_5
REMARK    4  A    between atoms: C_5  and  C_6
REMARK    5  A    between atoms: C_6  and  C_7
REMARK    6  A    between atoms: C_7  and  C_8
REMARK    7  A    between atoms: C_8  and  C_9
REMARK    8  A    between atoms: N_13  and  C_14
REMARK    9  A    between atoms: C_14  and  C_15
REMARK                            x       y       z     vdW  Elec       q    Type
REMARK                         _______ _______ _______ _____ _____    ______ ____
ROOT
ATOM      1  C   UNL     1       0.630   9.420  20.309  0.00  0.00    +0.000 A 
ATOM      2  C   UNL     1       0.253  10.244  19.302  0.00  0.00    +0.000 A 
ATOM      3  N   UNL     1      -0.636  11.317  19.380  0.00  0.00    +0.000 N 
ATOM      4  C   UNL     1      -1.213  11.626  20.638  0.00  0.00    +0.000 A 
ATOM      5  C   UNL     1      -2.167  12.640  20.842  0.00  0.00    +0.000 A 
ATOM      6  C   UNL     1      -2.796  12.797  22.077  0.00  0.00    +0.000 A 
ATOM      7 CL   UNL     1      -4.108  13.902  22.221  0.00  0.00    +0.000 Cl
ATOM      8  C   UNL     1      -2.390  12.040  23.168  0.00  0.00    +0.000 A 
ATOM      9  F   UNL     1      -2.995  12.163  24.357  0.00  0.00    +0.000 F 
ATOM     10  C   UNL     1      -1.374  11.113  23.036  0.00  0.00    +0.000 A 
ATOM     11  C   UNL     1      -0.843  10.866  21.769  0.00  0.00    +0.000 A 
ATOM     12  C   UNL     1       0.076   9.712  21.641  0.00  0.00    +0.000 A 
ATOM     13  O   UNL     1       0.344   9.028  22.603  0.00  0.00    +0.000 OA
ENDROOT
BRANCH   1  15
ATOM     14  O   UNL     1       2.307   8.293  19.078  0.00  0.00    +0.000 OA
ATOM     15  C   UNL     1       1.521   8.268  20.014  0.00  0.00    +0.000 C 
ATOM     16  N   UNL     1       1.405   7.182  20.855  0.00  0.00    +0.000 N 
ATOM     17  H   UNL     1       0.846   7.278  21.701  0.00  0.00    +0.000 HD
BRANCH  16  18
ATOM     18  C   UNL     1       2.172   5.978  20.639  0.00  0.00    +0.000 C 
BRANCH  18  19
ATOM     19  C   UNL     1       1.288   4.736  20.641  0.00  0.00    +0.000 C 
BRANCH  19  20
ATOM     20  C   UNL     1       2.132   3.471  20.794  0.00  0.00    +0.000 C 
BRANCH  20  21
ATOM     21  C   UNL     1       1.549   2.320  19.981  0.00  0.00    +0.000 C 
BRANCH  21  22
ATOM     22  C   UNL     1       1.396   2.706  18.511  0.00  0.00    +0.000 C 
BRANCH  22  23
ATOM     23  C   UNL     1       2.610   2.256  17.719  0.00  0.00    +0.000 C 
ATOM     24 BR   UNL     1       3.713   3.792  17.268  0.00  0.00    +0.000 Br
ENDBRANCH  22  23
ENDBRANCH  21  22
ENDBRANCH  20  21
ENDBRANCH  19  20
ENDBRANCH  18  19
ENDBRANCH  16  18
ENDBRANCH   1  15
BRANCH   3  25
ATOM     25  C   UNL     1      -1.125  12.062  18.184  0.00  0.00    +0.000 C 
BRANCH  25  26
ATOM     26  C   UNL     1      -2.227  11.319  17.462  0.00  0.00    +0.000 A 
ATOM     27  C   UNL     1      -1.904  10.258  16.609  0.00  0.00    +0.000 A 
ATOM     28  C   UNL     1      -2.840   9.798  15.689  0.00  0.00    +0.000 A 
ATOM     29  C   UNL     1      -4.150  10.270  15.735  0.00  0.00    +0.000 A 
ATOM     30  C   UNL     1      -4.530  11.185  16.714  0.00  0.00    +0.000 A 
ATOM     31  C   UNL     1      -3.562  11.742  17.549  0.00  0.00    +0.000 A 
ENDBRANCH  25  26
ENDBRANCH   3  25
TORSDOF 9
ENDMDL
