MODEL 1
REMARK VINA RESULT:      -8.2      0.000      0.000
REMARK  Name = 
REMARK  5 active torsions:
REMARK  status: ('A' for Active; 'I' for Inactive)
REMARK    1  A    between atoms: N_2  and  C_4
REMARK    2  A    between atoms: C_8  and  C_9
REMARK    3  A    between atoms: N_10  and  N_11
REMARK    4  A    between atoms: C_12  and  S_13
REMARK    5  A    between atoms: C_16  and  C_17
REMARK                            x       y       z     vdW  Elec       q    Type
REMARK                         _______ _______ _______ _____ _____    ______ ____
ROOT
ATOM      1  N   UNL     1       5.892   4.378  15.000  0.00  0.00    +0.000 N 
ATOM      2  C   UNL     1       6.110   4.139  13.654  0.00  0.00    +0.000 A 
ATOM      3  N   UNL     1       7.170   4.779  13.225  0.00  0.00    +0.000 NA
ATOM      4  N   UNL     1       7.718   5.426  14.297  0.00  0.00    +0.000 NA
ATOM      5  C   UNL     1       7.004   5.141  15.376  0.00  0.00    +0.000 A 
ENDROOT
BRANCH   5   6
ATOM      6  C   UNL     1       7.371   5.547  16.727  0.00  0.00    +0.000 A 
ATOM      7  C   UNL     1       7.599   4.617  17.739  0.00  0.00    +0.000 A 
ATOM      8  N   UNL     1       7.987   4.982  18.987  0.00  0.00    +0.000 NA
ATOM      9  C   UNL     1       8.123   6.308  19.193  0.00  0.00    +0.000 A 
ATOM     10  C   UNL     1       7.884   7.237  18.196  0.00  0.00    +0.000 A 
ATOM     11  N   UNL     1       7.500   6.878  16.955  0.00  0.00    +0.000 NA
ENDBRANCH   5   6
BRANCH   1  13
ATOM     12  C   UNL     1       4.424   4.537  16.746  0.00  0.00    +0.000 C 
ATOM     13  N   UNL     1       4.823   3.855  15.720  0.00  0.00    +0.000 NA
BRANCH  12  18
ATOM     14  C   UNL     1       2.921   2.994  19.846  0.00  0.00    +0.000 A 
ATOM     15  C   UNL     1       1.567   2.912  19.496  0.00  0.00    +0.000 A 
ATOM     16  C   UNL     1       1.153   3.366  18.244  0.00  0.00    +0.000 A 
ATOM     17  C   UNL     1       2.084   3.899  17.349  0.00  0.00    +0.000 A 
ATOM     18  C   UNL     1       3.432   4.000  17.709  0.00  0.00    +0.000 A 
ATOM     19  C   UNL     1       3.862   3.546  18.962  0.00  0.00    +0.000 A 
BRANCH  14  21
ATOM     20  O   UNL     1       2.583   2.571  22.105  0.00  0.00    +0.000 OA
ATOM     21  N   UNL     1       3.360   2.468  21.146  0.00  0.00    +0.000 N 
ATOM     22  O   UNL     1       4.478   1.937  21.201  0.00  0.00    +0.000 OA
ENDBRANCH  14  21
ENDBRANCH  12  18
ENDBRANCH   1  13
BRANCH   2  23
ATOM     23  S   UNL     1       5.059   3.182  12.665  0.00  0.00    +0.000 S 
ATOM     24  H   UNL     1       5.000   4.003  11.606  0.00  0.00    +0.000 HD
ENDBRANCH   2  23
TORSDOF 5
ENDMDL
MODEL 2
REMARK VINA RESULT:      -8.1      4.677      5.816
REMARK  Name = 
REMARK  5 active torsions:
REMARK  status: ('A' for Active; 'I' for Inactive)
REMARK    1  A    between atoms: N_2  and  C_4
REMARK    2  A    between atoms: C_8  and  C_9
REMARK    3  A    between atoms: N_10  and  N_11
REMARK    4  A    between atoms: C_12  and  S_13
REMARK    5  A    between atoms: C_16  and  C_17
REMARK                            x       y       z     vdW  Elec       q    Type
REMARK                         _______ _______ _______ _____ _____    ______ ____
ROOT
ATOM      1  N   UNL     1       3.609   4.361  19.889  0.00  0.00    +0.000 N 
ATOM      2  C   UNL     1       3.121   3.141  20.323  0.00  0.00    +0.000 A 
ATOM      3  N   UNL     1       3.906   2.158  19.956  0.00  0.00    +0.000 NA
ATOM      4  N   UNL     1       4.974   2.711  19.306  0.00  0.00    +0.000 NA
ATOM      5  C   UNL     1       4.843   4.030  19.318  0.00  0.00    +0.000 A 
ENDROOT
BRANCH   5   6
ATOM      6  C   UNL     1       5.860   4.954  18.833  0.00  0.00    +0.000 A 
ATOM      7  C   UNL     1       5.752   5.585  17.596  0.00  0.00    +0.000 A 
ATOM      8  N   UNL     1       6.670   6.482  17.155  0.00  0.00    +0.000 NA
ATOM      9  C   UNL     1       7.707   6.714  17.986  0.00  0.00    +0.000 A 
ATOM     10  C   UNL     1       7.827   6.080  19.210  0.00  0.00    +0.000 A 
ATOM     11  N   UNL     1       6.917   5.189  19.651  0.00  0.00    +0.000 NA
ENDBRANCH   5   6
BRANCH   1  13
ATOM     12  C   UNL     1       2.574   6.222  19.055  0.00  0.00    +0.000 C 
ATOM     13  N   UNL     1       2.969   5.577  20.107  0.00  0.00    +0.000 NA
BRANCH  12  18
ATOM     14  C   UNL     1       1.067   9.407  20.409  0.00  0.00    +0.000 A 
ATOM     15  C   UNL     1       1.011  10.208  19.261  0.00  0.00    +0.000 A 
ATOM     16  C   UNL     1       1.470   9.698  18.047  0.00  0.00    +0.000 A 
ATOM     17  C   UNL     1       1.984   8.400  17.980  0.00  0.00    +0.000 A 
ATOM     18  C   UNL     1       2.058   7.610  19.132  0.00  0.00    +0.000 A 
ATOM     19  C   UNL     1       1.598   8.108  20.358  0.00  0.00    +0.000 A 
BRANCH  14  21
ATOM     20  O   UNL     1      -0.492  10.622  21.631  0.00  0.00    +0.000 OA
ATOM     21  N   UNL     1       0.536   9.929  21.676  0.00  0.00    +0.000 N 
ATOM     22  O   UNL     1       1.139   9.633  22.717  0.00  0.00    +0.000 OA
ENDBRANCH  14  21
ENDBRANCH  12  18
ENDBRANCH   1  13
BRANCH   2  23
ATOM     23  S   UNL     1       1.620   2.951  21.168  0.00  0.00    +0.000 S 
ATOM     24  H   UNL     1       0.846   3.661  20.336  0.00  0.00    +0.000 HD
ENDBRANCH   2  23
TORSDOF 5
ENDMDL
MODEL 3
REMARK VINA RESULT:      -8.0      4.631      5.911
REMARK  Name = 
REMARK  5 active torsions:
REMARK  status: ('A' for Active; 'I' for Inactive)
REMARK    1  A    between atoms: N_2  and  C_4
REMARK    2  A    between atoms: C_8  and  C_9
REMARK    3  A    between atoms: N_10  and  N_11
REMARK    4  A    between atoms: C_12  and  S_13
REMARK    5  A    between atoms: C_16  and  C_17
REMARK                            x       y       z     vdW  Elec       q    Type
REMARK                         _______ _______ _______ _____ _____    ______ ____
ROOT
ATOM      1  N   UNL     1       3.294   4.012  19.556  0.00  0.00    +0.000 N 
ATOM      2  C   UNL     1       2.953   3.091  20.531  0.00  0.00    +0.000 A 
ATOM      3  N   UNL     1       3.839   2.128  20.604  0.00  0.00    +0.000 NA
ATOM      4  N   UNL     1       4.828   2.415  19.705  0.00  0.00    +0.000 NA
ATOM      5  C   UNL     1       4.550   3.571  19.121  0.00  0.00    +0.000 A 
ENDROOT
BRANCH   5   6
ATOM      6  C   UNL     1       5.450   4.257  18.202  0.00  0.00    +0.000 A 
ATOM      7  C   UNL     1       5.140   4.421  16.853  0.00  0.00    +0.000 A 
ATOM      8  N   UNL     1       5.948   5.098  15.999  0.00  0.00    +0.000 NA
ATOM      9  C   UNL     1       7.084   5.591  16.535  0.00  0.00    +0.000 A 
ATOM     10  C   UNL     1       7.403   5.419  17.870  0.00  0.00    +0.000 A 
ATOM     11  N   UNL     1       6.602   4.748  18.722  0.00  0.00    +0.000 NA
ENDBRANCH   5   6
BRANCH   1  13
ATOM     12  C   UNL     1       3.013   6.281  19.553  0.00  0.00    +0.000 C 
ATOM     13  N   UNL     1       2.525   5.125  19.233  0.00  0.00    +0.000 NA
BRANCH  12  18
ATOM     14  C   UNL     1       0.818   9.212  20.471  0.00  0.00    +0.000 A 
ATOM     15  C   UNL     1       0.642   9.838  19.229  0.00  0.00    +0.000 A 
ATOM     16  C   UNL     1       1.249   9.295  18.096  0.00  0.00    +0.000 A 
ATOM     17  C   UNL     1       2.024   8.138  18.202  0.00  0.00    +0.000 A 
ATOM     18  C   UNL     1       2.216   7.527  19.447  0.00  0.00    +0.000 A 
ATOM     19  C   UNL     1       1.611   8.060  20.592  0.00  0.00    +0.000 A 
BRANCH  14  21
ATOM     20  O   UNL     1      -0.609   9.003  22.292  0.00  0.00    +0.000 OA
ATOM     21  N   UNL     1       0.136   9.758  21.652  0.00  0.00    +0.000 N 
ATOM     22  O   UNL     1       0.361  10.940  21.949  0.00  0.00    +0.000 OA
ENDBRANCH  14  21
ENDBRANCH  12  18
ENDBRANCH   1  13
BRANCH   2  23
ATOM     23  S   UNL     1       1.496   3.174  21.464  0.00  0.00    +0.000 S 
ATOM     24  H   UNL     1       2.045   3.524  22.636  0.00  0.00    +0.000 HD
ENDBRANCH   2  23
TORSDOF 5
ENDMDL
MODEL 4
REMARK VINA RESULT:      -8.0      1.038      1.224
REMARK  Name = 
REMARK  5 active torsions:
REMARK  status: ('A' for Active; 'I' for Inactive)
REMARK    1  A    between atoms: N_2  and  C_4
REMARK    2  A    between atoms: C_8  and  C_9
REMARK    3  A    between atoms: N_10  and  N_11
REMARK    4  A    between atoms: C_12  and  S_13
REMARK    5  A    between atoms: C_16  and  C_17
REMARK                            x       y       z     vdW  Elec       q    Type
REMARK                         _______ _______ _______ _____ _____    ______ ____
ROOT
ATOM      1  N   UNL     1       5.979   4.307  14.943  0.00  0.00    +0.000 N 
ATOM      2  C   UNL     1       6.212   4.122  13.591  0.00  0.00    +0.000 A 
ATOM      3  N   UNL     1       7.228   4.841  13.182  0.00  0.00    +0.000 NA
ATOM      4  N   UNL     1       7.734   5.489  14.274  0.00  0.00    +0.000 NA
ATOM      5  C   UNL     1       7.040   5.127  15.343  0.00  0.00    +0.000 A 
ENDROOT
BRANCH   5   6
ATOM      6  C   UNL     1       7.380   5.516  16.706  0.00  0.00    +0.000 A 
ATOM      7  C   UNL     1       7.608   4.573  17.706  0.00  0.00    +0.000 A 
ATOM      8  N   UNL     1       7.972   4.923  18.966  0.00  0.00    +0.000 NA
ATOM      9  C   UNL     1       8.082   6.247  19.196  0.00  0.00    +0.000 A 
ATOM     10  C   UNL     1       7.843   7.189  18.212  0.00  0.00    +0.000 A 
ATOM     11  N   UNL     1       7.483   6.845  16.959  0.00  0.00    +0.000 NA
ENDBRANCH   5   6
BRANCH   1  13
ATOM     12  C   UNL     1       4.388   4.393  16.584  0.00  0.00    +0.000 C 
ATOM     13  N   UNL     1       4.945   3.695  15.645  0.00  0.00    +0.000 NA
BRANCH  12  18
ATOM     14  C   UNL     1       2.314   3.811  19.684  0.00  0.00    +0.000 A 
ATOM     15  C   UNL     1       1.638   2.628  19.357  0.00  0.00    +0.000 A 
ATOM     16  C   UNL     1       1.865   2.028  18.119  0.00  0.00    +0.000 A 
ATOM     17  C   UNL     1       2.759   2.605  17.213  0.00  0.00    +0.000 A 
ATOM     18  C   UNL     1       3.416   3.798  17.533  0.00  0.00    +0.000 A 
ATOM     19  C   UNL     1       3.200   4.410  18.773  0.00  0.00    +0.000 A 
BRANCH  14  21
ATOM     20  O   UNL     1       2.252   3.685  22.003  0.00  0.00    +0.000 OA
ATOM     21  N   UNL     1       2.110   4.412  21.009  0.00  0.00    +0.000 N 
ATOM     22  O   UNL     1       1.823   5.617  21.054  0.00  0.00    +0.000 OA
ENDBRANCH  14  21
ENDBRANCH  12  18
ENDBRANCH   1  13
BRANCH   2  23
ATOM     23  S   UNL     1       5.223   3.130  12.571  0.00  0.00    +0.000 S 
ATOM     24  H   UNL     1       6.172   2.748  11.705  0.00  0.00    +0.000 HD
ENDBRANCH   2  23
TORSDOF 5
ENDMDL
MODEL 5
REMARK VINA RESULT:      -7.9      4.653      5.890
REMARK  Name = 
REMARK  5 active torsions:
REMARK  status: ('A' for Active; 'I' for Inactive)
REMARK    1  A    between atoms: N_2  and  C_4
REMARK    2  A    between atoms: C_8  and  C_9
REMARK    3  A    between atoms: N_10  and  N_11
REMARK    4  A    between atoms: C_12  and  S_13
REMARK    5  A    between atoms: C_16  and  C_17
REMARK                            x       y       z     vdW  Elec       q    Type
REMARK                         _______ _______ _______ _____ _____    ______ ____
ROOT
ATOM      1  N   UNL     1       3.378   4.127  19.235  0.00  0.00    +0.000 N 
ATOM      2  C   UNL     1       3.113   3.301  20.313  0.00  0.00    +0.000 A 
ATOM      3  N   UNL     1       3.960   2.304  20.366  0.00  0.00    +0.000 NA
ATOM      4  N   UNL     1       4.852   2.471  19.344  0.00  0.00    +0.000 NA
ATOM      5  C   UNL     1       4.556   3.592  18.701  0.00  0.00    +0.000 A 
ENDROOT
BRANCH   5   6
ATOM      6  C   UNL     1       5.373   4.161  17.637  0.00  0.00    +0.000 A 
ATOM      7  C   UNL     1       6.653   4.658  17.876  0.00  0.00    +0.000 A 
ATOM      8  N   UNL     1       7.440   5.146  16.884  0.00  0.00    +0.000 NA
ATOM      9  C   UNL     1       6.898   5.136  15.649  0.00  0.00    +0.000 A 
ATOM     10  C   UNL     1       5.623   4.658  15.407  0.00  0.00    +0.000 A 
ATOM     11  N   UNL     1       4.839   4.170  16.390  0.00  0.00    +0.000 NA
ENDBRANCH   5   6
BRANCH   1  13
ATOM     12  C   UNL     1       3.049   6.387  19.362  0.00  0.00    +0.000 C 
ATOM     13  N   UNL     1       2.623   5.249  18.910  0.00  0.00    +0.000 NA
BRANCH  12  18
ATOM     14  C   UNL     1       0.751   9.244  20.259  0.00  0.00    +0.000 A 
ATOM     15  C   UNL     1       0.647   9.922  19.038  0.00  0.00    +0.000 A 
ATOM     16  C   UNL     1       1.335   9.439  17.925  0.00  0.00    +0.000 A 
ATOM     17  C   UNL     1       2.121   8.289  18.031  0.00  0.00    +0.000 A 
ATOM     18  C   UNL     1       2.240   7.625  19.257  0.00  0.00    +0.000 A 
ATOM     19  C   UNL     1       1.553   8.098  20.382  0.00  0.00    +0.000 A 
BRANCH  14  21
ATOM     20  O   UNL     1      -0.476   8.884  22.199  0.00  0.00    +0.000 OA
ATOM     21  N   UNL     1      -0.016   9.727  21.416  0.00  0.00    +0.000 N 
ATOM     22  O   UNL     1      -0.142  10.953  21.548  0.00  0.00    +0.000 OA
ENDBRANCH  14  21
ENDBRANCH  12  18
ENDBRANCH   1  13
BRANCH   2  23
ATOM     23  S   UNL     1       1.776   3.527  21.392  0.00  0.00    +0.000 S 
ATOM     24  H   UNL     1       2.392   4.304  22.293  0.00  0.00    +0.000 HD
ENDBRANCH   2  23
TORSDOF 5
ENDMDL
MODEL 6
REMARK VINA RESULT:      -7.9      4.486      5.578
REMARK  Name = 
REMARK  5 active torsions:
REMARK  status: ('A' for Active; 'I' for Inactive)
REMARK    1  A    between atoms: N_2  and  C_4
REMARK    2  A    between atoms: C_8  and  C_9
REMARK    3  A    between atoms: N_10  and  N_11
REMARK    4  A    between atoms: C_12  and  S_13
REMARK    5  A    between atoms: C_16  and  C_17
REMARK                            x       y       z     vdW  Elec       q    Type
REMARK                         _______ _______ _______ _____ _____    ______ ____
ROOT
ATOM      1  N   UNL     1       2.939   3.974  18.020  0.00  0.00    +0.000 N 
ATOM      2  C   UNL     1       2.360   2.985  18.796  0.00  0.00    +0.000 A 
ATOM      3  N   UNL     1       3.004   1.850  18.676  0.00  0.00    +0.000 NA
ATOM      4  N   UNL     1       4.069   2.071  17.848  0.00  0.00    +0.000 NA
ATOM      5  C   UNL     1       4.081   3.350  17.503  0.00  0.00    +0.000 A 
ENDROOT
BRANCH   5   6
ATOM      6  C   UNL     1       5.150   3.977  16.735  0.00  0.00    +0.000 A 
ATOM      7  C   UNL     1       6.314   4.445  17.340  0.00  0.00    +0.000 A 
ATOM      8  N   UNL     1       7.335   4.987  16.628  0.00  0.00    +0.000 NA
ATOM      9  C   UNL     1       7.144   5.061  15.295  0.00  0.00    +0.000 A 
ATOM     10  C   UNL     1       5.984   4.611  14.690  0.00  0.00    +0.000 A 
ATOM     11  N   UNL     1       4.969   4.071  15.394  0.00  0.00    +0.000 NA
ENDBRANCH   5   6
BRANCH   1  13
ATOM     12  C   UNL     1       2.881   6.119  18.809  0.00  0.00    +0.000 C 
ATOM     13  N   UNL     1       2.453   5.273  17.926  0.00  0.00    +0.000 NA
BRANCH  12  18
ATOM     14  C   UNL     1       1.127   9.131  20.261  0.00  0.00    +0.000 A 
ATOM     15  C   UNL     1       1.124  10.012  19.171  0.00  0.00    +0.000 A 
ATOM     16  C   UNL     1       1.700   9.614  17.965  0.00  0.00    +0.000 A 
ATOM     17  C   UNL     1       2.276   8.346  17.848  0.00  0.00    +0.000 A 
ATOM     18  C   UNL     1       2.297   7.476  18.943  0.00  0.00    +0.000 A 
ATOM     19  C   UNL     1       1.720   7.862  20.160  0.00  0.00    +0.000 A 
BRANCH  14  21
ATOM     20  O   UNL     1      -0.414   8.801  21.967  0.00  0.00    +0.000 OA
ATOM     21  N   UNL     1       0.475   9.535  21.513  0.00  0.00    +0.000 N 
ATOM     22  O   UNL     1       0.864  10.582  22.051  0.00  0.00    +0.000 OA
ENDBRANCH  14  21
ENDBRANCH  12  18
ENDBRANCH   1  13
BRANCH   2  23
ATOM     23  S   UNL     1       0.921   3.216  19.732  0.00  0.00    +0.000 S 
ATOM     24  H   UNL     1       0.597   4.434  19.278  0.00  0.00    +0.000 HD
ENDBRANCH   2  23
TORSDOF 5
ENDMDL
MODEL 7
REMARK VINA RESULT:      -7.8      4.491      5.240
REMARK  Name = 
REMARK  5 active torsions:
REMARK  status: ('A' for Active; 'I' for Inactive)
REMARK    1  A    between atoms: N_2  and  C_4
REMARK    2  A    between atoms: C_8  and  C_9
REMARK    3  A    between atoms: N_10  and  N_11
REMARK    4  A    between atoms: C_12  and  S_13
REMARK    5  A    between atoms: C_16  and  C_17
REMARK                            x       y       z     vdW  Elec       q    Type
REMARK                         _______ _______ _______ _____ _____    ______ ____
ROOT
ATOM      1  N   UNL     1       3.402   4.492  18.498  0.00  0.00    +0.000 N 
ATOM      2  C   UNL     1       2.805   3.251  18.358  0.00  0.00    +0.000 A 
ATOM      3  N   UNL     1       3.585   2.421  17.712  0.00  0.00    +0.000 NA
ATOM      4  N   UNL     1       4.754   3.079  17.449  0.00  0.00    +0.000 NA
ATOM      5  C   UNL     1       4.684   4.295  17.972  0.00  0.00    +0.000 A 
ENDROOT
BRANCH   5   6
ATOM      6  C   UNL     1       5.798   5.234  18.003  0.00  0.00    +0.000 A 
ATOM      7  C   UNL     1       5.917   6.266  17.074  0.00  0.00    +0.000 A 
ATOM      8  N   UNL     1       6.924   7.173  17.122  0.00  0.00    +0.000 NA
ATOM      9  C   UNL     1       7.817   7.004  18.118  0.00  0.00    +0.000 A 
ATOM     10  C   UNL     1       7.712   5.973  19.035  0.00  0.00    +0.000 A 
ATOM     11  N   UNL     1       6.712   5.071  18.991  0.00  0.00    +0.000 NA
ENDBRANCH   5   6
BRANCH   1  13
ATOM     12  C   UNL     1       2.411   6.547  18.343  0.00  0.00    +0.000 C 
ATOM     13  N   UNL     1       2.796   5.581  19.116  0.00  0.00    +0.000 NA
BRANCH  12  18
ATOM     14  C   UNL     1       1.112   9.164  20.733  0.00  0.00    +0.000 A 
ATOM     15  C   UNL     1       0.955  10.271  19.888  0.00  0.00    +0.000 A 
ATOM     16  C   UNL     1       1.279  10.152  18.536  0.00  0.00    +0.000 A 
ATOM     17  C   UNL     1       1.757   8.940  18.033  0.00  0.00    +0.000 A 
ATOM     18  C   UNL     1       1.933   7.843  18.884  0.00  0.00    +0.000 A 
ATOM     19  C   UNL     1       1.610   7.946  20.242  0.00  0.00    +0.000 A 
BRANCH  14  21
ATOM     20  O   UNL     1      -0.457   9.039  22.442  0.00  0.00    +0.000 OA
ATOM     21  N   UNL     1       0.722   9.278  22.145  0.00  0.00    +0.000 N 
ATOM     22  O   UNL     1       1.601   9.593  22.960  0.00  0.00    +0.000 OA
ENDBRANCH  14  21
ENDBRANCH  12  18
ENDBRANCH   1  13
BRANCH   2  23
ATOM     23  S   UNL     1       1.199   2.889  18.898  0.00  0.00    +0.000 S 
ATOM     24  H   UNL     1       1.302   1.553  18.908  0.00  0.00    +0.000 HD
ENDBRANCH   2  23
TORSDOF 5
ENDMDL
MODEL 8
REMARK VINA RESULT:      -7.7      5.046      5.980
REMARK  Name = 
REMARK  5 active torsions:
REMARK  status: ('A' for Active; 'I' for Inactive)
REMARK    1  A    between atoms: N_2  and  C_4
REMARK    2  A    between atoms: C_8  and  C_9
REMARK    3  A    between atoms: N_10  and  N_11
REMARK    4  A    between atoms: C_12  and  S_13
REMARK    5  A    between atoms: C_16  and  C_17
REMARK                            x       y       z     vdW  Elec       q    Type
REMARK                         _______ _______ _______ _____ _____    ______ ____
ROOT
ATOM      1  N   UNL     1       3.230   4.784  19.379  0.00  0.00    +0.000 N 
ATOM      2  C   UNL     1       2.740   3.625  19.956  0.00  0.00    +0.000 A 
ATOM      3  N   UNL     1       3.641   2.674  19.948  0.00  0.00    +0.000 NA
ATOM      4  N   UNL     1       4.782   3.198  19.407  0.00  0.00    +0.000 NA
ATOM      5  C   UNL     1       4.572   4.476  19.125  0.00  0.00    +0.000 A 
ENDROOT
BRANCH   5   6
ATOM      6  C   UNL     1       5.608   5.388  18.659  0.00  0.00    +0.000 A 
ATOM      7  C   UNL     1       6.850   5.473  19.285  0.00  0.00    +0.000 A 
ATOM      8  N   UNL     1       7.838   6.285  18.831  0.00  0.00    +0.000 NA
ATOM      9  C   UNL     1       7.536   7.021  17.742  0.00  0.00    +0.000 A 
ATOM     10  C   UNL     1       6.300   6.952  17.125  0.00  0.00    +0.000 A 
ATOM     11  N   UNL     1       5.317   6.146  17.572  0.00  0.00    +0.000 NA
ENDBRANCH   5   6
BRANCH   1  13
ATOM     12  C   UNL     1       2.645   6.866  20.125  0.00  0.00    +0.000 C 
ATOM     13  N   UNL     1       2.487   5.950  19.223  0.00  0.00    +0.000 NA
BRANCH  12  18
ATOM     14  C   UNL     1       0.407   9.596  21.463  0.00  0.00    +0.000 A 
ATOM     15  C   UNL     1       0.068  10.286  20.292  0.00  0.00    +0.000 A 
ATOM     16  C   UNL     1       0.578   9.853  19.069  0.00  0.00    +0.000 A 
ATOM     17  C   UNL     1       1.421   8.741  19.014  0.00  0.00    +0.000 A 
ATOM     18  C   UNL     1       1.776   8.065  20.187  0.00  0.00    +0.000 A 
ATOM     19  C   UNL     1       1.269   8.487  21.423  0.00  0.00    +0.000 A 
BRANCH  14  21
ATOM     20  O   UNL     1      -1.200  10.717  22.711  0.00  0.00    +0.000 OA
ATOM     21  N   UNL     1      -0.173  10.024  22.743  0.00  0.00    +0.000 N 
ATOM     22  O   UNL     1       0.392   9.652  23.782  0.00  0.00    +0.000 OA
ENDBRANCH  14  21
ENDBRANCH  12  18
ENDBRANCH   1  13
BRANCH   2  23
ATOM     23  S   UNL     1       1.115   3.449  20.530  0.00  0.00    +0.000 S 
ATOM     24  H   UNL     1       1.370   2.644  21.570  0.00  0.00    +0.000 HD
ENDBRANCH   2  23
TORSDOF 5
ENDMDL
MODEL 9
REMARK VINA RESULT:      -7.7      4.378      5.269
REMARK  Name = 
REMARK  5 active torsions:
REMARK  status: ('A' for Active; 'I' for Inactive)
REMARK    1  A    between atoms: N_2  and  C_4
REMARK    2  A    between atoms: C_8  and  C_9
REMARK    3  A    between atoms: N_10  and  N_11
REMARK    4  A    between atoms: C_12  and  S_13
REMARK    5  A    between atoms: C_16  and  C_17
REMARK                            x       y       z     vdW  Elec       q    Type
REMARK                         _______ _______ _______ _____ _____    ______ ____
ROOT
ATOM      1  N   UNL     1       2.950   3.987  18.044  0.00  0.00    +0.000 N 
ATOM      2  C   UNL     1       2.369   2.771  18.360  0.00  0.00    +0.000 A 
ATOM      3  N   UNL     1       3.202   1.781  18.157  0.00  0.00    +0.000 NA
ATOM      4  N   UNL     1       4.388   2.322  17.747  0.00  0.00    +0.000 NA
ATOM      5  C   UNL     1       4.272   3.643  17.739  0.00  0.00    +0.000 A 
ENDROOT
BRANCH   5   6
ATOM      6  C   UNL     1       5.379   4.556  17.482  0.00  0.00    +0.000 A 
ATOM      7  C   UNL     1       5.482   5.270  16.290  0.00  0.00    +0.000 A 
ATOM      8  N   UNL     1       6.482   6.158  16.059  0.00  0.00    +0.000 NA
ATOM      9  C   UNL     1       7.383   6.295  17.053  0.00  0.00    +0.000 A 
ATOM     10  C   UNL     1       7.294   5.579  18.233  0.00  0.00    +0.000 A 
ATOM     11  N   UNL     1       6.301   4.697  18.467  0.00  0.00    +0.000 NA
ENDBRANCH   5   6
BRANCH   1  13
ATOM     12  C   UNL     1       2.927   6.169  18.729  0.00  0.00    +0.000 C 
ATOM     13  N   UNL     1       2.293   5.209  18.132  0.00  0.00    +0.000 NA
BRANCH  12  18
ATOM     14  C   UNL     1       1.123   8.870  20.653  0.00  0.00    +0.000 A 
ATOM     15  C   UNL     1       0.957   9.857  19.673  0.00  0.00    +0.000 A 
ATOM     16  C   UNL     1       1.441   9.631  18.384  0.00  0.00    +0.000 A 
ATOM     17  C   UNL     1       2.086   8.431  18.077  0.00  0.00    +0.000 A 
ATOM     18  C   UNL     1       2.270   7.455  19.063  0.00  0.00    +0.000 A 
ATOM     19  C   UNL     1       1.787   7.667  20.361  0.00  0.00    +0.000 A 
BRANCH  14  21
ATOM     20  O   UNL     1       1.311   9.581  22.857  0.00  0.00    +0.000 OA
ATOM     21  N   UNL     1       0.567   9.090  21.995  0.00  0.00    +0.000 N 
ATOM     22  O   UNL     1      -0.619   8.786  22.182  0.00  0.00    +0.000 OA
ENDBRANCH  14  21
ENDBRANCH  12  18
ENDBRANCH   1  13
BRANCH   2  23
ATOM     23  S   UNL     1       0.724   2.596  18.874  0.00  0.00    +0.000 S 
ATOM     24  H   UNL     1       0.846   1.412  19.490  0.00  0.00    +0.000 HD
ENDBRANCH   2  23
TORSDOF 5
ENDMDL
