MODEL 1
REMARK VINA RESULT:      -6.0      0.000      0.000
REMARK  Name = 
REMARK  14 active torsions:
REMARK  status: ('A' for Active; 'I' for Inactive)
REMARK    1  A    between atoms: C_1  and  C_2
REMARK    2  A    between atoms: C_2  and  O_3
REMARK    3  A    between atoms: O_3  and  C_4
REMARK    4  A    between atoms: C_4  and  C_6
REMARK    5  A    between atoms: C_6  and  C_7
REMARK    6  A    between atoms: C_7  and  C_8
REMARK    7  A    between atoms: C_8  and  N_9
REMARK    8  A    between atoms: C_11  and  N_12
REMARK    9  A    between atoms: C_15  and  N_16
REMARK   10  A    between atoms: N_16  and  C_17
REMARK   11  A    between atoms: N_16  and  C_19
REMARK   12  A    between atoms: C_17  and  C_18
REMARK   13  A    between atoms: C_19  and  C_20
REMARK   14  A    between atoms: N_27  and  C_28
REMARK                            x       y       z     vdW  Elec       q    Type
REMARK                         _______ _______ _______ _____ _____    ______ ____
ROOT
ATOM      1  N   UNL     1       7.664   6.066  18.186  0.00  0.00    +0.000 NA
ATOM      2  C   UNL     1       6.893   5.264  19.148  0.00  0.00    +0.000 C 
ATOM      3  C   UNL     1       5.472   4.923  18.826  0.00  0.00    +0.000 C 
ATOM      4  C   UNL     1       4.760   5.370  17.765  0.00  0.00    +0.000 C 
ATOM      5  N   UNL     1       5.507   6.116  16.819  0.00  0.00    +0.000 N 
ATOM      6  C   UNL     1       5.034   6.399  15.462  0.00  0.00    +0.000 C 
ATOM      7  C   UNL     1       6.977   6.147  16.902  0.00  0.00    +0.000 C 
ENDROOT
BRANCH   3   8
ATOM      8  N   UNL     1       4.918   4.004  19.797  0.00  0.00    +0.000 N 
ATOM      9  O   UNL     1       5.208   2.807  19.669  0.00  0.00    +0.000 OA
ATOM     10  O   UNL     1       4.136   4.437  20.651  0.00  0.00    +0.000 OA
ENDBRANCH   3   8
BRANCH   1  11
ATOM     11  C   UNL     1       8.086   7.370  18.703  0.00  0.00    +0.000 C 
BRANCH  11  12
ATOM     12  C   UNL     1       8.230   8.435  17.603  0.00  0.00    +0.000 C 
BRANCH  12  13
ATOM     13  C   UNL     1       7.954   9.851  18.106  0.00  0.00    +0.000 C 
BRANCH  13  14
ATOM     14  C   UNL     1       9.229  10.507  18.567  0.00  0.00    +0.000 C 
ATOM     15  O   UNL     1      10.077  10.973  17.826  0.00  0.00    +0.000 OA
BRANCH  14  16
ATOM     16  O   UNL     1       9.339  10.389  19.921  0.00  0.00    +0.000 OA
BRANCH  16  18
ATOM     17  C   UNL     1       9.016  11.954  21.686  0.00  0.00    +0.000 C 
ATOM     18  C   UNL     1       9.944  11.514  20.568  0.00  0.00    +0.000 C 
ENDBRANCH  16  18
ENDBRANCH  14  16
ENDBRANCH  13  14
ENDBRANCH  12  13
ENDBRANCH  11  12
ENDBRANCH   1  11
BRANCH   4  19
ATOM     19  N   UNL     1       3.352   5.269  17.596  0.00  0.00    +0.000 N 
BRANCH  19  20
ATOM     20  C   UNL     1       2.707   4.031  17.058  0.00  0.00    +0.000 C 
ATOM     21  C   UNL     1       1.884   3.204  18.023  0.00  0.00    +0.000 C 
ENDBRANCH  19  20
BRANCH  19  22
ATOM     22  C   UNL     1       2.448   5.825  18.657  0.00  0.00    +0.000 C 
BRANCH  22  23
ATOM     23  C   UNL     1       2.250   7.314  18.684  0.00  0.00    +0.000 A 
ATOM     24  C   UNL     1       1.711   7.905  19.840  0.00  0.00    +0.000 A 
ATOM     25  C   UNL     1       1.373   9.256  19.846  0.00  0.00    +0.000 A 
ATOM     26  C   UNL     1       1.591   9.976  18.687  0.00  0.00    +0.000 A 
ATOM     27 CL   UNL     1       1.176  11.638  18.597  0.00  0.00    +0.000 Cl
ATOM     28  N   UNL     1       2.103   9.456  17.555  0.00  0.00    +0.000 NA
ATOM     29  C   UNL     1       2.414   8.136  17.580  0.00  0.00    +0.000 A 
ENDBRANCH  22  23
ENDBRANCH  19  22
ENDBRANCH   4  19
TORSDOF 11
ENDMDL
MODEL 2
REMARK VINA RESULT:      -5.8      1.669      2.188
REMARK  Name = 
REMARK  14 active torsions:
REMARK  status: ('A' for Active; 'I' for Inactive)
REMARK    1  A    between atoms: C_1  and  C_2
REMARK    2  A    between atoms: C_2  and  O_3
REMARK    3  A    between atoms: O_3  and  C_4
REMARK    4  A    between atoms: C_4  and  C_6
REMARK    5  A    between atoms: C_6  and  C_7
REMARK    6  A    between atoms: C_7  and  C_8
REMARK    7  A    between atoms: C_8  and  N_9
REMARK    8  A    between atoms: C_11  and  N_12
REMARK    9  A    between atoms: C_15  and  N_16
REMARK   10  A    between atoms: N_16  and  C_17
REMARK   11  A    between atoms: N_16  and  C_19
REMARK   12  A    between atoms: C_17  and  C_18
REMARK   13  A    between atoms: C_19  and  C_20
REMARK   14  A    between atoms: N_27  and  C_28
REMARK                            x       y       z     vdW  Elec       q    Type
REMARK                         _______ _______ _______ _____ _____    ______ ____
ROOT
ATOM      1  N   UNL     1       7.174   5.936  17.498  0.00  0.00    +0.000 NA
ATOM      2  C   UNL     1       6.529   5.337  18.677  0.00  0.00    +0.000 C 
ATOM      3  C   UNL     1       5.389   4.390  18.470  0.00  0.00    +0.000 C 
ATOM      4  C   UNL     1       4.798   4.091  17.289  0.00  0.00    +0.000 C 
ATOM      5  N   UNL     1       5.435   4.639  16.148  0.00  0.00    +0.000 N 
ATOM      6  C   UNL     1       5.177   4.181  14.782  0.00  0.00    +0.000 C 
ATOM      7  C   UNL     1       6.769   5.253  16.275  0.00  0.00    +0.000 C 
ENDROOT
BRANCH   3   8
ATOM      8  N   UNL     1       4.981   3.777  19.716  0.00  0.00    +0.000 N 
ATOM      9  O   UNL     1       4.467   4.517  20.565  0.00  0.00    +0.000 OA
ATOM     10  O   UNL     1       5.227   2.580  19.901  0.00  0.00    +0.000 OA
ENDBRANCH   3   8
BRANCH   1  11
ATOM     11  C   UNL     1       7.039   7.393  17.423  0.00  0.00    +0.000 C 
BRANCH  11  12
ATOM     12  C   UNL     1       8.221   8.141  18.062  0.00  0.00    +0.000 C 
BRANCH  12  13
ATOM     13  C   UNL     1       8.083   9.659  17.972  0.00  0.00    +0.000 C 
BRANCH  13  14
ATOM     14  C   UNL     1       9.201  10.338  18.718  0.00  0.00    +0.000 C 
ATOM     15  O   UNL     1       9.274  10.423  19.932  0.00  0.00    +0.000 OA
BRANCH  14  16
ATOM     16  O   UNL     1      10.044  10.939  17.831  0.00  0.00    +0.000 OA
BRANCH  16  18
ATOM     17  C   UNL     1       8.857  12.995  17.657  0.00  0.00    +0.000 C 
ATOM     18  C   UNL     1      10.186  12.353  18.011  0.00  0.00    +0.000 C 
ENDBRANCH  16  18
ENDBRANCH  14  16
ENDBRANCH  13  14
ENDBRANCH  12  13
ENDBRANCH  11  12
ENDBRANCH   1  11
BRANCH   4  19
ATOM     19  N   UNL     1       3.562   3.409  17.118  0.00  0.00    +0.000 N 
BRANCH  19  20
ATOM     20  C   UNL     1       3.330   2.042  17.676  0.00  0.00    +0.000 C 
ATOM     21  C   UNL     1       2.005   1.789  18.364  0.00  0.00    +0.000 C 
ENDBRANCH  19  20
BRANCH  19  22
ATOM     22  C   UNL     1       2.280   4.178  17.256  0.00  0.00    +0.000 C 
BRANCH  22  23
ATOM     23  C   UNL     1       2.211   5.219  18.336  0.00  0.00    +0.000 A 
ATOM     24  C   UNL     1       1.600   4.888  19.558  0.00  0.00    +0.000 A 
ATOM     25  C   UNL     1       1.384   5.869  20.523  0.00  0.00    +0.000 A 
ATOM     26  C   UNL     1       1.794   7.156  20.232  0.00  0.00    +0.000 A 
ATOM     27 CL   UNL     1       1.540   8.430  21.352  0.00  0.00    +0.000 Cl
ATOM     28  N   UNL     1       2.382   7.523  19.078  0.00  0.00    +0.000 NA
ATOM     29  C   UNL     1       2.571   6.545  18.156  0.00  0.00    +0.000 A 
ENDBRANCH  22  23
ENDBRANCH  19  22
ENDBRANCH   4  19
TORSDOF 11
ENDMDL
MODEL 3
REMARK VINA RESULT:      -5.8      1.546      1.967
REMARK  Name = 
REMARK  14 active torsions:
REMARK  status: ('A' for Active; 'I' for Inactive)
REMARK    1  A    between atoms: C_1  and  C_2
REMARK    2  A    between atoms: C_2  and  O_3
REMARK    3  A    between atoms: O_3  and  C_4
REMARK    4  A    between atoms: C_4  and  C_6
REMARK    5  A    between atoms: C_6  and  C_7
REMARK    6  A    between atoms: C_7  and  C_8
REMARK    7  A    between atoms: C_8  and  N_9
REMARK    8  A    between atoms: C_11  and  N_12
REMARK    9  A    between atoms: C_15  and  N_16
REMARK   10  A    between atoms: N_16  and  C_17
REMARK   11  A    between atoms: N_16  and  C_19
REMARK   12  A    between atoms: C_17  and  C_18
REMARK   13  A    between atoms: C_19  and  C_20
REMARK   14  A    between atoms: N_27  and  C_28
REMARK                            x       y       z     vdW  Elec       q    Type
REMARK                         _______ _______ _______ _____ _____    ______ ____
ROOT
ATOM      1  N   UNL     1       6.950   6.036  17.481  0.00  0.00    +0.000 NA
ATOM      2  C   UNL     1       6.464   4.840  18.184  0.00  0.00    +0.000 C 
ATOM      3  C   UNL     1       5.011   4.748  18.531  0.00  0.00    +0.000 C 
ATOM      4  C   UNL     1       4.082   5.719  18.359  0.00  0.00    +0.000 C 
ATOM      5  N   UNL     1       4.537   6.860  17.654  0.00  0.00    +0.000 N 
ATOM      6  C   UNL     1       3.639   7.858  17.070  0.00  0.00    +0.000 C 
ATOM      7  C   UNL     1       5.839   6.828  16.964  0.00  0.00    +0.000 C 
ENDROOT
BRANCH   3   8
ATOM      8  N   UNL     1       4.679   3.448  19.072  0.00  0.00    +0.000 N 
ATOM      9  O   UNL     1       4.955   3.245  20.262  0.00  0.00    +0.000 OA
ATOM     10  O   UNL     1       4.212   2.588  18.315  0.00  0.00    +0.000 OA
ENDBRANCH   3   8
BRANCH   1  11
ATOM     11  C   UNL     1       7.917   6.825  18.249  0.00  0.00    +0.000 C 
BRANCH  11  12
ATOM     12  C   UNL     1       7.944   8.307  17.841  0.00  0.00    +0.000 C 
BRANCH  12  13
ATOM     13  C   UNL     1       8.836   9.156  18.745  0.00  0.00    +0.000 C 
BRANCH  13  14
ATOM     14  C   UNL     1       8.934  10.565  18.219  0.00  0.00    +0.000 C 
ATOM     15  O   UNL     1       8.063  11.128  17.579  0.00  0.00    +0.000 OA
BRANCH  14  16
ATOM     16  O   UNL     1      10.181  11.058  18.464  0.00  0.00    +0.000 OA
BRANCH  16  18
ATOM     17  C   UNL     1      11.855  11.890  19.939  0.00  0.00    +0.000 C 
ATOM     18  C   UNL     1      10.400  11.474  19.816  0.00  0.00    +0.000 C 
ENDBRANCH  16  18
ENDBRANCH  14  16
ENDBRANCH  13  14
ENDBRANCH  12  13
ENDBRANCH  11  12
ENDBRANCH   1  11
BRANCH   4  19
ATOM     19  N   UNL     1       2.777   5.740  18.922  0.00  0.00    +0.000 N 
BRANCH  19  20
ATOM     20  C   UNL     1       1.850   4.571  18.815  0.00  0.00    +0.000 C 
ATOM     21  C   UNL     1       1.357   4.203  17.432  0.00  0.00    +0.000 C 
ENDBRANCH  19  20
BRANCH  19  22
ATOM     22  C   UNL     1       2.577   6.353  20.278  0.00  0.00    +0.000 C 
BRANCH  22  23
ATOM     23  C   UNL     1       1.691   7.563  20.365  0.00  0.00    +0.000 A 
ATOM     24  C   UNL     1       1.635   8.443  19.271  0.00  0.00    +0.000 A 
ATOM     25  C   UNL     1       0.944   9.648  19.373  0.00  0.00    +0.000 A 
ATOM     26  C   UNL     1       0.325   9.932  20.575  0.00  0.00    +0.000 A 
ATOM     27 CL   UNL     1      -0.521  11.407  20.798  0.00  0.00    +0.000 Cl
ATOM     28  N   UNL     1       0.351   9.123  21.653  0.00  0.00    +0.000 NA
ATOM     29  C   UNL     1       1.038   7.961  21.522  0.00  0.00    +0.000 A 
ENDBRANCH  22  23
ENDBRANCH  19  22
ENDBRANCH   4  19
TORSDOF 11
ENDMDL
MODEL 4
REMARK VINA RESULT:      -5.7      4.268      8.739
REMARK  Name = 
REMARK  14 active torsions:
REMARK  status: ('A' for Active; 'I' for Inactive)
REMARK    1  A    between atoms: C_1  and  C_2
REMARK    2  A    between atoms: C_2  and  O_3
REMARK    3  A    between atoms: O_3  and  C_4
REMARK    4  A    between atoms: C_4  and  C_6
REMARK    5  A    between atoms: C_6  and  C_7
REMARK    6  A    between atoms: C_7  and  C_8
REMARK    7  A    between atoms: C_8  and  N_9
REMARK    8  A    between atoms: C_11  and  N_12
REMARK    9  A    between atoms: C_15  and  N_16
REMARK   10  A    between atoms: N_16  and  C_17
REMARK   11  A    between atoms: N_16  and  C_19
REMARK   12  A    between atoms: C_17  and  C_18
REMARK   13  A    between atoms: C_19  and  C_20
REMARK   14  A    between atoms: N_27  and  C_28
REMARK                            x       y       z     vdW  Elec       q    Type
REMARK                         _______ _______ _______ _____ _____    ______ ____
ROOT
ATOM      1  N   UNL     1       9.415  10.202  18.849  0.00  0.00    +0.000 NA
ATOM      2  C   UNL     1      10.145  11.222  18.082  0.00  0.00    +0.000 C 
ATOM      3  C   UNL     1      10.274  12.599  18.655  0.00  0.00    +0.000 C 
ATOM      4  C   UNL     1       9.687  13.055  19.787  0.00  0.00    +0.000 C 
ATOM      5  N   UNL     1       9.010  12.069  20.546  0.00  0.00    +0.000 N 
ATOM      6  C   UNL     1       8.606  12.261  21.939  0.00  0.00    +0.000 C 
ATOM      7  C   UNL     1       9.184  10.643  20.220  0.00  0.00    +0.000 C 
ENDROOT
BRANCH   3   8
ATOM      8  N   UNL     1      11.151  13.424  17.851  0.00  0.00    +0.000 N 
ATOM      9  O   UNL     1      10.683  13.887  16.802  0.00  0.00    +0.000 OA
ATOM     10  O   UNL     1      12.327  13.565  18.205  0.00  0.00    +0.000 OA
ENDBRANCH   3   8
BRANCH   1  11
ATOM     11  C   UNL     1       8.204   9.712  18.184  0.00  0.00    +0.000 C 
BRANCH  11  12
ATOM     12  C   UNL     1       8.273   8.217  17.834  0.00  0.00    +0.000 C 
BRANCH  12  13
ATOM     13  C   UNL     1       6.900   7.606  17.559  0.00  0.00    +0.000 C 
BRANCH  13  14
ATOM     14  C   UNL     1       7.041   6.283  16.853  0.00  0.00    +0.000 C 
ATOM     15  O   UNL     1       7.594   6.126  15.778  0.00  0.00    +0.000 OA
BRANCH  14  16
ATOM     16  O   UNL     1       6.357   5.324  17.539  0.00  0.00    +0.000 OA
BRANCH  16  18
ATOM     17  C   UNL     1       4.835   5.122  19.359  0.00  0.00    +0.000 C 
ATOM     18  C   UNL     1       6.221   5.580  18.941  0.00  0.00    +0.000 C 
ENDBRANCH  16  18
ENDBRANCH  14  16
ENDBRANCH  13  14
ENDBRANCH  12  13
ENDBRANCH  11  12
ENDBRANCH   1  11
BRANCH   4  19
ATOM     19  N   UNL     1       9.588  14.415  20.191  0.00  0.00    +0.000 N 
BRANCH  19  20
ATOM     20  C   UNL     1      10.708  15.115  20.892  0.00  0.00    +0.000 C 
ATOM     21  C   UNL     1      11.308  16.323  20.205  0.00  0.00    +0.000 C 
ENDBRANCH  19  20
BRANCH  19  22
ATOM     22  C   UNL     1       8.944  15.405  19.265  0.00  0.00    +0.000 C 
BRANCH  22  23
ATOM     23  C   UNL     1       7.450  15.344  19.119  0.00  0.00    +0.000 A 
ATOM     24  C   UNL     1       6.660  15.236  20.277  0.00  0.00    +0.000 A 
ATOM     25  C   UNL     1       5.287  15.025  20.173  0.00  0.00    +0.000 A 
ATOM     26  C   UNL     1       4.747  14.934  18.904  0.00  0.00    +0.000 A 
ATOM     27 CL   UNL     1       3.071  14.647  18.684  0.00  0.00    +0.000 Cl
ATOM     28  N   UNL     1       5.461  15.030  17.766  0.00  0.00    +0.000 NA
ATOM     29  C   UNL     1       6.797  15.228  17.902  0.00  0.00    +0.000 A 
ENDBRANCH  22  23
ENDBRANCH  19  22
ENDBRANCH   4  19
TORSDOF 11
ENDMDL
MODEL 5
REMARK VINA RESULT:      -5.6      4.650      9.075
REMARK  Name = 
REMARK  14 active torsions:
REMARK  status: ('A' for Active; 'I' for Inactive)
REMARK    1  A    between atoms: C_1  and  C_2
REMARK    2  A    between atoms: C_2  and  O_3
REMARK    3  A    between atoms: O_3  and  C_4
REMARK    4  A    between atoms: C_4  and  C_6
REMARK    5  A    between atoms: C_6  and  C_7
REMARK    6  A    between atoms: C_7  and  C_8
REMARK    7  A    between atoms: C_8  and  N_9
REMARK    8  A    between atoms: C_11  and  N_12
REMARK    9  A    between atoms: C_15  and  N_16
REMARK   10  A    between atoms: N_16  and  C_17
REMARK   11  A    between atoms: N_16  and  C_19
REMARK   12  A    between atoms: C_17  and  C_18
REMARK   13  A    between atoms: C_19  and  C_20
REMARK   14  A    between atoms: N_27  and  C_28
REMARK                            x       y       z     vdW  Elec       q    Type
REMARK                         _______ _______ _______ _____ _____    ______ ____
ROOT
ATOM      1  N   UNL     1       9.733  10.299  18.864  0.00  0.00    +0.000 NA
ATOM      2  C   UNL     1      10.406  11.343  18.076  0.00  0.00    +0.000 C 
ATOM      3  C   UNL     1      10.398  12.749  18.588  0.00  0.00    +0.000 C 
ATOM      4  C   UNL     1       9.731  13.204  19.675  0.00  0.00    +0.000 C 
ATOM      5  N   UNL     1       9.109  12.198  20.455  0.00  0.00    +0.000 N 
ATOM      6  C   UNL     1       8.635  12.417  21.823  0.00  0.00    +0.000 C 
ATOM      7  C   UNL     1       9.413  10.779  20.204  0.00  0.00    +0.000 C 
ENDROOT
BRANCH   3   8
ATOM      8  N   UNL     1      11.235  13.609  17.778  0.00  0.00    +0.000 N 
ATOM      9  O   UNL     1      12.333  13.933  18.250  0.00  0.00    +0.000 OA
ATOM     10  O   UNL     1      10.792  14.032  16.704  0.00  0.00    +0.000 OA
ENDBRANCH   3   8
BRANCH   1  11
ATOM     11  C   UNL     1       8.594   9.680  18.180  0.00  0.00    +0.000 C 
BRANCH  11  12
ATOM     12  C   UNL     1       8.362   8.220  18.600  0.00  0.00    +0.000 C 
BRANCH  12  13
ATOM     13  C   UNL     1       7.645   7.399  17.529  0.00  0.00    +0.000 C 
BRANCH  13  14
ATOM     14  C   UNL     1       7.189   6.078  18.091  0.00  0.00    +0.000 C 
ATOM     15  O   UNL     1       7.841   5.387  18.855  0.00  0.00    +0.000 OA
BRANCH  14  16
ATOM     16  O   UNL     1       6.002   5.725  17.522  0.00  0.00    +0.000 OA
BRANCH  16  18
ATOM     17  C   UNL     1       3.840   6.705  17.712  0.00  0.00    +0.000 C 
ATOM     18  C   UNL     1       5.209   6.829  17.068  0.00  0.00    +0.000 C 
ENDBRANCH  16  18
ENDBRANCH  14  16
ENDBRANCH  13  14
ENDBRANCH  12  13
ENDBRANCH  11  12
ENDBRANCH   1  11
BRANCH   4  19
ATOM     19  N   UNL     1       9.504  14.567  20.011  0.00  0.00    +0.000 N 
BRANCH  19  20
ATOM     20  C   UNL     1      10.547  15.400  20.684  0.00  0.00    +0.000 C 
ATOM     21  C   UNL     1      10.322  15.750  22.140  0.00  0.00    +0.000 C 
ENDBRANCH  19  20
BRANCH  19  22
ATOM     22  C   UNL     1       8.782  15.448  19.033  0.00  0.00    +0.000 C 
BRANCH  22  23
ATOM     23  C   UNL     1       7.456  16.010  19.459  0.00  0.00    +0.000 A 
ATOM     24  C   UNL     1       6.511  15.150  20.044  0.00  0.00    +0.000 A 
ATOM     25  C   UNL     1       5.221  15.602  20.311  0.00  0.00    +0.000 A 
ATOM     26  C   UNL     1       4.920  16.910  19.985  0.00  0.00    +0.000 A 
ATOM     27 CL   UNL     1       3.347  17.540  20.252  0.00  0.00    +0.000 Cl
ATOM     28  N   UNL     1       5.789  17.773  19.423  0.00  0.00    +0.000 NA
ATOM     29  C   UNL     1       7.034  17.299  19.168  0.00  0.00    +0.000 A 
ENDBRANCH  22  23
ENDBRANCH  19  22
ENDBRANCH   4  19
TORSDOF 11
ENDMDL
MODEL 6
REMARK VINA RESULT:      -5.6      4.399      8.986
REMARK  Name = 
REMARK  14 active torsions:
REMARK  status: ('A' for Active; 'I' for Inactive)
REMARK    1  A    between atoms: C_1  and  C_2
REMARK    2  A    between atoms: C_2  and  O_3
REMARK    3  A    between atoms: O_3  and  C_4
REMARK    4  A    between atoms: C_4  and  C_6
REMARK    5  A    between atoms: C_6  and  C_7
REMARK    6  A    between atoms: C_7  and  C_8
REMARK    7  A    between atoms: C_8  and  N_9
REMARK    8  A    between atoms: C_11  and  N_12
REMARK    9  A    between atoms: C_15  and  N_16
REMARK   10  A    between atoms: N_16  and  C_17
REMARK   11  A    between atoms: N_16  and  C_19
REMARK   12  A    between atoms: C_17  and  C_18
REMARK   13  A    between atoms: C_19  and  C_20
REMARK   14  A    between atoms: N_27  and  C_28
REMARK                            x       y       z     vdW  Elec       q    Type
REMARK                         _______ _______ _______ _____ _____    ______ ____
ROOT
ATOM      1  N   UNL     1       9.448  10.197  18.834  0.00  0.00    +0.000 NA
ATOM      2  C   UNL     1      10.219  11.197  18.080  0.00  0.00    +0.000 C 
ATOM      3  C   UNL     1      10.338  12.582  18.633  0.00  0.00    +0.000 C 
ATOM      4  C   UNL     1       9.709  13.065  19.731  0.00  0.00    +0.000 C 
ATOM      5  N   UNL     1       8.992  12.099  20.478  0.00  0.00    +0.000 N 
ATOM      6  C   UNL     1       8.531  12.321  21.850  0.00  0.00    +0.000 C 
ATOM      7  C   UNL     1       9.165  10.665  20.186  0.00  0.00    +0.000 C 
ENDROOT
BRANCH   3   8
ATOM      8  N   UNL     1      11.256  13.384  17.852  0.00  0.00    +0.000 N 
ATOM      9  O   UNL     1      12.333  13.685  18.383  0.00  0.00    +0.000 OA
ATOM     10  O   UNL     1      10.898  13.786  16.739  0.00  0.00    +0.000 OA
ENDBRANCH   3   8
BRANCH   1  11
ATOM     11  C   UNL     1       8.261   9.707  18.128  0.00  0.00    +0.000 C 
BRANCH  11  12
ATOM     12  C   UNL     1       8.308   8.195  17.852  0.00  0.00    +0.000 C 
BRANCH  12  13
ATOM     13  C   UNL     1       6.921   7.577  17.685  0.00  0.00    +0.000 C 
BRANCH  13  14
ATOM     14  C   UNL     1       7.030   6.150  17.215  0.00  0.00    +0.000 C 
ATOM     15  O   UNL     1       7.511   5.240  17.868  0.00  0.00    +0.000 OA
BRANCH  14  16
ATOM     16  O   UNL     1       6.622   6.065  15.917  0.00  0.00    +0.000 OA
BRANCH  16  18
ATOM     17  C   UNL     1       7.022   4.705  14.004  0.00  0.00    +0.000 C 
ATOM     18  C   UNL     1       6.487   4.727  15.424  0.00  0.00    +0.000 C 
ENDBRANCH  16  18
ENDBRANCH  14  16
ENDBRANCH  13  14
ENDBRANCH  12  13
ENDBRANCH  11  12
ENDBRANCH   1  11
BRANCH   4  19
ATOM     19  N   UNL     1       9.607  14.433  20.105  0.00  0.00    +0.000 N 
BRANCH  19  20
ATOM     20  C   UNL     1      10.603  15.081  21.013  0.00  0.00    +0.000 C 
ATOM     21  C   UNL     1      10.061  15.881  22.178  0.00  0.00    +0.000 C 
ENDBRANCH  19  20
BRANCH  19  22
ATOM     22  C   UNL     1       9.213  15.445  19.070  0.00  0.00    +0.000 C 
BRANCH  22  23
ATOM     23  C   UNL     1       7.766  15.497  18.671  0.00  0.00    +0.000 A 
ATOM     24  C   UNL     1       6.961  16.535  19.173  0.00  0.00    +0.000 A 
ATOM     25  C   UNL     1       5.587  16.530  18.948  0.00  0.00    +0.000 A 
ATOM     26  C   UNL     1       5.061  15.481  18.218  0.00  0.00    +0.000 A 
ATOM     27 CL   UNL     1       3.375  15.380  17.919  0.00  0.00    +0.000 Cl
ATOM     28  N   UNL     1       5.788  14.464  17.717  0.00  0.00    +0.000 NA
ATOM     29  C   UNL     1       7.123  14.495  17.961  0.00  0.00    +0.000 A 
ENDBRANCH  22  23
ENDBRANCH  19  22
ENDBRANCH   4  19
TORSDOF 11
ENDMDL
MODEL 7
REMARK VINA RESULT:      -5.5      4.478      9.192
REMARK  Name = 
REMARK  14 active torsions:
REMARK  status: ('A' for Active; 'I' for Inactive)
REMARK    1  A    between atoms: C_1  and  C_2
REMARK    2  A    between atoms: C_2  and  O_3
REMARK    3  A    between atoms: O_3  and  C_4
REMARK    4  A    between atoms: C_4  and  C_6
REMARK    5  A    between atoms: C_6  and  C_7
REMARK    6  A    between atoms: C_7  and  C_8
REMARK    7  A    between atoms: C_8  and  N_9
REMARK    8  A    between atoms: C_11  and  N_12
REMARK    9  A    between atoms: C_15  and  N_16
REMARK   10  A    between atoms: N_16  and  C_17
REMARK   11  A    between atoms: N_16  and  C_19
REMARK   12  A    between atoms: C_17  and  C_18
REMARK   13  A    between atoms: C_19  and  C_20
REMARK   14  A    between atoms: N_27  and  C_28
REMARK                            x       y       z     vdW  Elec       q    Type
REMARK                         _______ _______ _______ _____ _____    ______ ____
ROOT
ATOM      1  N   UNL     1       9.329  10.883  17.904  0.00  0.00    +0.000 NA
ATOM      2  C   UNL     1       8.589  12.153  17.831  0.00  0.00    +0.000 C 
ATOM      3  C   UNL     1       9.122  13.341  18.569  0.00  0.00    +0.000 C 
ATOM      4  C   UNL     1      10.185  13.354  19.408  0.00  0.00    +0.000 C 
ATOM      5  N   UNL     1      10.920  12.143  19.457  0.00  0.00    +0.000 N 
ATOM      6  C   UNL     1      12.268  12.041  20.019  0.00  0.00    +0.000 C 
ATOM      7  C   UNL     1      10.660  11.085  18.466  0.00  0.00    +0.000 C 
ENDROOT
BRANCH   3   8
ATOM      8  N   UNL     1       8.365  14.535  18.261  0.00  0.00    +0.000 N 
ATOM      9  O   UNL     1       7.177  14.555  18.610  0.00  0.00    +0.000 OA
ATOM     10  O   UNL     1       8.909  15.434  17.609  0.00  0.00    +0.000 OA
ENDBRANCH   3   8
BRANCH   1  11
ATOM     11  C   UNL     1       8.584   9.798  18.548  0.00  0.00    +0.000 C 
BRANCH  11  12
ATOM     12  C   UNL     1       8.072   8.746  17.551  0.00  0.00    +0.000 C 
BRANCH  12  13
ATOM     13  C   UNL     1       7.928   7.358  18.172  0.00  0.00    +0.000 C 
BRANCH  13  14
ATOM     14  C   UNL     1       6.729   6.645  17.603  0.00  0.00    +0.000 C 
ATOM     15  O   UNL     1       6.166   6.953  16.567  0.00  0.00    +0.000 OA
BRANCH  14  16
ATOM     16  O   UNL     1       6.306   5.692  18.481  0.00  0.00    +0.000 OA
BRANCH  16  18
ATOM     17  C   UNL     1       4.864   3.850  18.927  0.00  0.00    +0.000 C 
ATOM     18  C   UNL     1       5.698   4.548  17.868  0.00  0.00    +0.000 C 
ENDBRANCH  16  18
ENDBRANCH  14  16
ENDBRANCH  13  14
ENDBRANCH  12  13
ENDBRANCH  11  12
ENDBRANCH   1  11
BRANCH   4  19
ATOM     19  N   UNL     1      10.531  14.399  20.307  0.00  0.00    +0.000 N 
BRANCH  19  20
ATOM     20  C   UNL     1      11.392  15.549  19.889  0.00  0.00    +0.000 C 
ATOM     21  C   UNL     1      10.865  16.943  20.160  0.00  0.00    +0.000 C 
ENDBRANCH  19  20
BRANCH  19  22
ATOM     22  C   UNL     1       9.485  14.933  21.242  0.00  0.00    +0.000 C 
BRANCH  22  23
ATOM     23  C   UNL     1       8.632  13.932  21.968  0.00  0.00    +0.000 A 
ATOM     24  C   UNL     1       7.256  14.183  22.098  0.00  0.00    +0.000 A 
ATOM     25  C   UNL     1       6.463  13.357  22.891  0.00  0.00    +0.000 A 
ATOM     26  C   UNL     1       7.079  12.297  23.528  0.00  0.00    +0.000 A 
ATOM     27 CL   UNL     1       6.185  11.247  24.548  0.00  0.00    +0.000 Cl
ATOM     28  N   UNL     1       8.393  12.016  23.436  0.00  0.00    +0.000 NA
ATOM     29  C   UNL     1       9.138  12.844  22.662  0.00  0.00    +0.000 A 
ENDBRANCH  22  23
ENDBRANCH  19  22
ENDBRANCH   4  19
TORSDOF 11
ENDMDL
MODEL 8
REMARK VINA RESULT:      -5.5      6.339     10.615
REMARK  Name = 
REMARK  14 active torsions:
REMARK  status: ('A' for Active; 'I' for Inactive)
REMARK    1  A    between atoms: C_1  and  C_2
REMARK    2  A    between atoms: C_2  and  O_3
REMARK    3  A    between atoms: O_3  and  C_4
REMARK    4  A    between atoms: C_4  and  C_6
REMARK    5  A    between atoms: C_6  and  C_7
REMARK    6  A    between atoms: C_7  and  C_8
REMARK    7  A    between atoms: C_8  and  N_9
REMARK    8  A    between atoms: C_11  and  N_12
REMARK    9  A    between atoms: C_15  and  N_16
REMARK   10  A    between atoms: N_16  and  C_17
REMARK   11  A    between atoms: N_16  and  C_19
REMARK   12  A    between atoms: C_17  and  C_18
REMARK   13  A    between atoms: C_19  and  C_20
REMARK   14  A    between atoms: N_27  and  C_28
REMARK                            x       y       z     vdW  Elec       q    Type
REMARK                         _______ _______ _______ _____ _____    ______ ____
ROOT
ATOM      1  N   UNL     1      -2.081  13.652  21.626  0.00  0.00    +0.000 NA
ATOM      2  C   UNL     1      -1.705  12.359  22.216  0.00  0.00    +0.000 C 
ATOM      3  C   UNL     1      -0.967  11.368  21.372  0.00  0.00    +0.000 C 
ATOM      4  C   UNL     1      -0.688  11.489  20.052  0.00  0.00    +0.000 C 
ATOM      5  N   UNL     1      -1.019  12.745  19.486  0.00  0.00    +0.000 N 
ATOM      6  C   UNL     1      -0.508  13.206  18.194  0.00  0.00    +0.000 C 
ATOM      7  C   UNL     1      -1.389  13.871  20.361  0.00  0.00    +0.000 C 
ENDROOT
BRANCH   3   8
ATOM      8  N   UNL     1      -0.539  10.226  22.151  0.00  0.00    +0.000 N 
ATOM      9  O   UNL     1       0.123  10.457  23.172  0.00  0.00    +0.000 OA
ATOM     10  O   UNL     1      -0.787   9.090  21.731  0.00  0.00    +0.000 OA
ENDBRANCH   3   8
BRANCH   1  11
ATOM     11  C   UNL     1      -3.528  13.868  21.541  0.00  0.00    +0.000 C 
BRANCH  11  12
ATOM     12  C   UNL     1      -4.337  12.850  22.361  0.00  0.00    +0.000 C 
BRANCH  12  13
ATOM     13  C   UNL     1      -5.824  13.193  22.435  0.00  0.00    +0.000 C 
BRANCH  13  14
ATOM     14  C   UNL     1      -6.525  12.783  21.166  0.00  0.00    +0.000 C 
ATOM     15  O   UNL     1      -7.224  13.520  20.491  0.00  0.00    +0.000 OA
BRANCH  14  16
ATOM     16  O   UNL     1      -6.356  11.446  20.962  0.00  0.00    +0.000 OA
BRANCH  16  18
ATOM     17  C   UNL     1      -6.742  10.433  18.842  0.00  0.00    +0.000 C 
ATOM     18  C   UNL     1      -7.374  10.834  20.163  0.00  0.00    +0.000 C 
ENDBRANCH  16  18
ENDBRANCH  14  16
ENDBRANCH  13  14
ENDBRANCH  12  13
ENDBRANCH  11  12
ENDBRANCH   1  11
BRANCH   4  19
ATOM     19  N   UNL     1      -0.231  10.452  19.193  0.00  0.00    +0.000 N 
BRANCH  19  20
ATOM     20  C   UNL     1      -0.976  10.064  17.956  0.00  0.00    +0.000 C 
ATOM     21  C   UNL     1      -2.485   9.989  18.050  0.00  0.00    +0.000 C 
ENDBRANCH  19  20
BRANCH  19  22
ATOM     22  C   UNL     1       1.235  10.351  18.889  0.00  0.00    +0.000 C 
BRANCH  22  23
ATOM     23  C   UNL     1       1.858   8.985  18.935  0.00  0.00    +0.000 A 
ATOM     24  C   UNL     1       2.496   8.492  17.784  0.00  0.00    +0.000 A 
ATOM     25  C   UNL     1       2.950   7.175  17.743  0.00  0.00    +0.000 A 
ATOM     26  C   UNL     1       2.752   6.393  18.864  0.00  0.00    +0.000 A 
ATOM     27 CL   UNL     1       3.253   4.753  18.888  0.00  0.00    +0.000 Cl
ATOM     28  N   UNL     1       2.146   6.818  19.989  0.00  0.00    +0.000 NA
ATOM     29  C   UNL     1       1.708   8.103  19.994  0.00  0.00    +0.000 A 
ENDBRANCH  22  23
ENDBRANCH  19  22
ENDBRANCH   4  19
TORSDOF 11
ENDMDL
MODEL 9
REMARK VINA RESULT:      -5.5      4.571      7.864
REMARK  Name = 
REMARK  14 active torsions:
REMARK  status: ('A' for Active; 'I' for Inactive)
REMARK    1  A    between atoms: C_1  and  C_2
REMARK    2  A    between atoms: C_2  and  O_3
REMARK    3  A    between atoms: O_3  and  C_4
REMARK    4  A    between atoms: C_4  and  C_6
REMARK    5  A    between atoms: C_6  and  C_7
REMARK    6  A    between atoms: C_7  and  C_8
REMARK    7  A    between atoms: C_8  and  N_9
REMARK    8  A    between atoms: C_11  and  N_12
REMARK    9  A    between atoms: C_15  and  N_16
REMARK   10  A    between atoms: N_16  and  C_17
REMARK   11  A    between atoms: N_16  and  C_19
REMARK   12  A    between atoms: C_17  and  C_18
REMARK   13  A    between atoms: C_19  and  C_20
REMARK   14  A    between atoms: N_27  and  C_28
REMARK                            x       y       z     vdW  Elec       q    Type
REMARK                         _______ _______ _______ _____ _____    ______ ____
ROOT
ATOM      1  N   UNL     1       1.027   8.955  18.546  0.00  0.00    +0.000 NA
ATOM      2  C   UNL     1       1.044   8.906  20.016  0.00  0.00    +0.000 C 
ATOM      3  C   UNL     1       0.311   9.963  20.781  0.00  0.00    +0.000 C 
ATOM      4  C   UNL     1      -0.300  11.053  20.259  0.00  0.00    +0.000 C 
ATOM      5  N   UNL     1      -0.347  11.088  18.843  0.00  0.00    +0.000 N 
ATOM      6  C   UNL     1      -1.233  11.976  18.088  0.00  0.00    +0.000 C 
ATOM      7  C   UNL     1       0.018   9.892  18.065  0.00  0.00    +0.000 C 
ENDROOT
BRANCH   3   8
ATOM      8  N   UNL     1       0.298   9.674  22.199  0.00  0.00    +0.000 N 
ATOM      9  O   UNL     1       1.354   9.857  22.820  0.00  0.00    +0.000 OA
ATOM     10  O   UNL     1      -0.726   9.197  22.702  0.00  0.00    +0.000 OA
ENDBRANCH   3   8
BRANCH   1  11
ATOM     11  C   UNL     1       2.346   9.161  17.943  0.00  0.00    +0.000 C 
BRANCH  11  12
ATOM     12  C   UNL     1       3.146   7.857  17.787  0.00  0.00    +0.000 C 
BRANCH  12  13
ATOM     13  C   UNL     1       2.562   6.700  18.595  0.00  0.00    +0.000 C 
BRANCH  13  14
ATOM     14  C   UNL     1       2.695   5.405  17.837  0.00  0.00    +0.000 C 
ATOM     15  O   UNL     1       1.905   4.479  17.901  0.00  0.00    +0.000 OA
BRANCH  14  16
ATOM     16  O   UNL     1       3.886   5.385  17.173  0.00  0.00    +0.000 OA
BRANCH  16  18
ATOM     17  C   UNL     1       5.378   4.108  15.827  0.00  0.00    +0.000 C 
ATOM     18  C   UNL     1       4.473   4.084  17.045  0.00  0.00    +0.000 C 
ENDBRANCH  16  18
ENDBRANCH  14  16
ENDBRANCH  13  14
ENDBRANCH  12  13
ENDBRANCH  11  12
ENDBRANCH   1  11
BRANCH   4  19
ATOM     19  N   UNL     1      -0.761  12.185  20.986  0.00  0.00    +0.000 N 
BRANCH  19  20
ATOM     20  C   UNL     1      -1.915  12.100  21.933  0.00  0.00    +0.000 C 
ATOM     21  C   UNL     1      -1.747  12.751  23.289  0.00  0.00    +0.000 C 
ENDBRANCH  19  20
BRANCH  19  22
ATOM     22  C   UNL     1       0.244  13.129  21.579  0.00  0.00    +0.000 C 
BRANCH  22  23
ATOM     23  C   UNL     1       1.156  13.853  20.631  0.00  0.00    +0.000 A 
ATOM     24  C   UNL     1       0.606  14.804  19.755  0.00  0.00    +0.000 A 
ATOM     25  C   UNL     1       1.393  15.383  18.762  0.00  0.00    +0.000 A 
ATOM     26  C   UNL     1       2.715  14.990  18.682  0.00  0.00    +0.000 A 
ATOM     27 CL   UNL     1       3.748  15.630  17.472  0.00  0.00    +0.000 Cl
ATOM     28  N   UNL     1       3.288  14.083  19.496  0.00  0.00    +0.000 NA
ATOM     29  C   UNL     1       2.492  13.533  20.447  0.00  0.00    +0.000 A 
ENDBRANCH  22  23
ENDBRANCH  19  22
ENDBRANCH   4  19
TORSDOF 11
ENDMDL
