MODEL 1
REMARK VINA RESULT:      -8.3      0.000      0.000
REMARK  Name = 
REMARK  5 active torsions:
REMARK  status: ('A' for Active; 'I' for Inactive)
REMARK    1  A    between atoms: N_1  and  C_2
REMARK    2  A    between atoms: C_2  and  C_3
REMARK    3  A    between atoms: C_3  and  C_4
REMARK    4  A    between atoms: C_4  and  N_5
REMARK    5  A    between atoms: C_11  and  N_12
REMARK                            x       y       z     vdW  Elec       q    Type
REMARK                         _______ _______ _______ _____ _____    ______ ____
ROOT
ATOM      1  N   UNL     1       3.209   4.574  19.416  0.00  0.00    +0.000 N 
ATOM      2  C   UNL     1       2.941   5.891  19.071  0.00  0.00    +0.000 A 
ATOM      3  C   UNL     1       3.514   6.436  17.937  0.00  0.00    +0.000 A 
ATOM      4  C   UNL     1       4.392   5.720  17.086  0.00  0.00    +0.000 A 
ATOM      5  C   UNL     1       5.038   6.438  15.779  0.00  0.00    +0.000 A 
ATOM      6  C   UNL     1       5.732   5.403  15.301  0.00  0.00    +0.000 A 
ATOM      7  C   UNL     1       6.418   4.509  14.796  0.00  0.00    +0.000 A 
ATOM      8  C   UNL     1       5.976   3.255  16.124  0.00  0.00    +0.000 A 
ATOM      9  C   UNL     1       4.822   4.124  17.315  0.00  0.00    +0.000 A 
ATOM     10  C   UNL     1       4.068   3.713  18.605  0.00  0.00    +0.000 A 
ATOM     11  O   UNL     1       4.190   2.573  19.014  0.00  0.00    +0.000 OA
ATOM     12  C   UNL     1       3.050   7.844  17.824  0.00  0.00    +0.000 C 
ATOM     13  O   UNL     1       3.369   8.649  16.960  0.00  0.00    +0.000 OA
ATOM     14  C   UNL     1       2.146   8.117  18.953  0.00  0.00    +0.000 A 
ATOM     15  C   UNL     1       1.445   9.280  19.313  0.00  0.00    +0.000 A 
ATOM     16  C   UNL     1       0.628   9.273  20.450  0.00  0.00    +0.000 A 
ATOM     17  C   UNL     1       0.537   8.149  21.233  0.00  0.00    +0.000 A 
ATOM     18  C   UNL     1       1.284   7.052  20.919  0.00  0.00    +0.000 A 
ATOM     19  C   UNL     1       2.075   6.980  19.735  0.00  0.00    +0.000 A 
ENDROOT
BRANCH   7  20
ATOM     20  N   UNL     1       7.244   4.906  13.472  0.00  0.00    +0.000 N 
ATOM     21  O   UNL     1       7.008   4.414  12.378  0.00  0.00    +0.000 OA
ATOM     22  O   UNL     1       8.234   5.792  13.436  0.00  0.00    +0.000 OA
ENDBRANCH   7  20
BRANCH   1  23
ATOM     23  C   UNL     1       2.655   4.038  20.710  0.00  0.00    +0.000 C 
BRANCH  23  24
ATOM     24  C   UNL     1       1.198   3.578  20.663  0.00  0.00    +0.000 C 
BRANCH  24  25
ATOM     25  C   UNL     1       0.837   2.921  19.262  0.00  0.00    +0.000 C 
BRANCH  25  26
ATOM     26  N   UNL     1       1.431   1.566  19.009  0.00  0.00    +0.000 NA
ATOM     27  H   UNL     1       0.808   0.834  18.559  0.00  0.00    +0.000 HD
ATOM     28  H   UNL     1       2.480   1.525  18.861  0.00  0.00    +0.000 HD
ENDBRANCH  25  26
ENDBRANCH  24  25
ENDBRANCH  23  24
ENDBRANCH   1  23
TORSDOF 5
ENDMDL
MODEL 2
REMARK VINA RESULT:      -7.2      2.515      6.491
REMARK  Name = 
REMARK  5 active torsions:
REMARK  status: ('A' for Active; 'I' for Inactive)
REMARK    1  A    between atoms: N_1  and  C_2
REMARK    2  A    between atoms: C_2  and  C_3
REMARK    3  A    between atoms: C_3  and  C_4
REMARK    4  A    between atoms: C_4  and  N_5
REMARK    5  A    between atoms: C_11  and  N_12
REMARK                            x       y       z     vdW  Elec       q    Type
REMARK                         _______ _______ _______ _____ _____    ______ ____
ROOT
ATOM      1  N   UNL     1       3.159   4.505  19.538  0.00  0.00    +0.000 N 
ATOM      2  C   UNL     1       3.617   5.216  18.438  0.00  0.00    +0.000 A 
ATOM      3  C   UNL     1       3.239   6.535  18.265  0.00  0.00    +0.000 A 
ATOM      4  C   UNL     1       2.381   7.223  19.157  0.00  0.00    +0.000 A 
ATOM      5  C   UNL     1       1.970   8.771  18.874  0.00  0.00    +0.000 A 
ATOM      6  C   UNL     1       1.216   8.981  19.955  0.00  0.00    +0.000 A 
ATOM      7  C   UNL     1       0.488   9.261  20.912  0.00  0.00    +0.000 A 
ATOM      8  C   UNL     1       0.632   7.551  21.676  0.00  0.00    +0.000 A 
ATOM      9  C   UNL     1       1.744   6.554  20.546  0.00  0.00    +0.000 A 
ATOM     10  C   UNL     1       2.299   5.107  20.555  0.00  0.00    +0.000 A 
ATOM     11  O   UNL     1       2.000   4.373  21.479  0.00  0.00    +0.000 OA
ATOM     12  C   UNL     1       3.875   7.030  17.015  0.00  0.00    +0.000 C 
ATOM     13  O   UNL     1       3.750   8.144  16.526  0.00  0.00    +0.000 OA
ATOM     14  C   UNL     1       4.677   5.934  16.447  0.00  0.00    +0.000 A 
ATOM     15  C   UNL     1       5.466   5.874  15.287  0.00  0.00    +0.000 A 
ATOM     16  C   UNL     1       6.147   4.692  14.972  0.00  0.00    +0.000 A 
ATOM     17  C   UNL     1       6.020   3.583  15.771  0.00  0.00    +0.000 A 
ATOM     18  C   UNL     1       5.188   3.628  16.851  0.00  0.00    +0.000 A 
ATOM     19  C   UNL     1       4.527   4.825  17.257  0.00  0.00    +0.000 A 
ENDROOT
BRANCH   7  20
ATOM     20  N   UNL     1      -0.135  10.746  20.922  0.00  0.00    +0.000 N 
ATOM     21  O   UNL     1      -1.090  11.062  20.228  0.00  0.00    +0.000 OA
ATOM     22  O   UNL     1       0.311  11.748  21.672  0.00  0.00    +0.000 OA
ENDBRANCH   7  20
BRANCH   1  23
ATOM     23  C   UNL     1       3.502   3.042  19.648  0.00  0.00    +0.000 C 
BRANCH  23  24
ATOM     24  C   UNL     1       2.614   2.094  18.845  0.00  0.00    +0.000 C 
BRANCH  24  25
ATOM     25  C   UNL     1       1.213   2.759  18.497  0.00  0.00    +0.000 C 
BRANCH  25  26
ATOM     26  N   UNL     1       0.139   2.588  19.533  0.00  0.00    +0.000 NA
ATOM     27  H   UNL     1       0.219   1.759  20.189  0.00  0.00    +0.000 HD
ATOM     28  H   UNL     1      -0.354   3.469  19.857  0.00  0.00    +0.000 HD
ENDBRANCH  25  26
ENDBRANCH  24  25
ENDBRANCH  23  24
ENDBRANCH   1  23
TORSDOF 5
ENDMDL
MODEL 3
REMARK VINA RESULT:      -7.0      1.138      1.465
REMARK  Name = 
REMARK  5 active torsions:
REMARK  status: ('A' for Active; 'I' for Inactive)
REMARK    1  A    between atoms: N_1  and  C_2
REMARK    2  A    between atoms: C_2  and  C_3
REMARK    3  A    between atoms: C_3  and  C_4
REMARK    4  A    between atoms: C_4  and  N_5
REMARK    5  A    between atoms: C_11  and  N_12
REMARK                            x       y       z     vdW  Elec       q    Type
REMARK                         _______ _______ _______ _____ _____    ______ ____
ROOT
ATOM      1  N   UNL     1       2.945   3.917  18.708  0.00  0.00    +0.000 N 
ATOM      2  C   UNL     1       2.888   5.303  18.687  0.00  0.00    +0.000 A 
ATOM      3  C   UNL     1       3.622   6.008  17.751  0.00  0.00    +0.000 A 
ATOM      4  C   UNL     1       4.460   5.389  16.791  0.00  0.00    +0.000 A 
ATOM      5  C   UNL     1       5.303   6.290  15.732  0.00  0.00    +0.000 A 
ATOM      6  C   UNL     1       5.885   5.305  15.046  0.00  0.00    +0.000 A 
ATOM      7  C   UNL     1       6.481   4.462  14.368  0.00  0.00    +0.000 A 
ATOM      8  C   UNL     1       5.765   3.012  15.323  0.00  0.00    +0.000 A 
ATOM      9  C   UNL     1       4.647   3.738  16.638  0.00  0.00    +0.000 A 
ATOM     10  C   UNL     1       3.741   3.153  17.750  0.00  0.00    +0.000 A 
ATOM     11  O   UNL     1       3.672   1.943  17.869  0.00  0.00    +0.000 OA
ATOM     12  C   UNL     1       3.365   7.456  17.969  0.00  0.00    +0.000 C 
ATOM     13  O   UNL     1       3.860   8.385  17.346  0.00  0.00    +0.000 OA
ATOM     14  C   UNL     1       2.417   7.587  19.087  0.00  0.00    +0.000 A 
ATOM     15  C   UNL     1       1.855   8.724  19.691  0.00  0.00    +0.000 A 
ATOM     16  C   UNL     1       0.955   8.572  20.752  0.00  0.00    +0.000 A 
ATOM     17  C   UNL     1       0.647   7.322  21.228  0.00  0.00    +0.000 A 
ATOM     18  C   UNL     1       1.260   6.230  20.687  0.00  0.00    +0.000 A 
ATOM     19  C   UNL     1       2.128   6.322  19.559  0.00  0.00    +0.000 A 
ENDROOT
BRANCH   7  20
ATOM     20  N   UNL     1       7.459   5.033  13.223  0.00  0.00    +0.000 N 
ATOM     21  O   UNL     1       8.355   5.830  13.460  0.00  0.00    +0.000 OA
ATOM     22  O   UNL     1       7.396   4.696  11.939  0.00  0.00    +0.000 OA
ENDBRANCH   7  20
BRANCH   1  23
ATOM     23  C   UNL     1       2.218   3.179  19.803  0.00  0.00    +0.000 C 
BRANCH  23  24
ATOM     24  C   UNL     1       2.951   3.094  21.140  0.00  0.00    +0.000 C 
BRANCH  24  25
ATOM     25  C   UNL     1       3.834   1.776  21.241  0.00  0.00    +0.000 C 
BRANCH  25  26
ATOM     26  N   UNL     1       5.133   1.807  20.489  0.00  0.00    +0.000 NA
ATOM     27  H   UNL     1       5.310   2.635  19.851  0.00  0.00    +0.000 HD
ATOM     28  H   UNL     1       5.952   1.302  20.933  0.00  0.00    +0.000 HD
ENDBRANCH  25  26
ENDBRANCH  24  25
ENDBRANCH  23  24
ENDBRANCH   1  23
TORSDOF 5
ENDMDL
MODEL 4
REMARK VINA RESULT:      -6.8      2.665      6.591
REMARK  Name = 
REMARK  5 active torsions:
REMARK  status: ('A' for Active; 'I' for Inactive)
REMARK    1  A    between atoms: N_1  and  C_2
REMARK    2  A    between atoms: C_2  and  C_3
REMARK    3  A    between atoms: C_3  and  C_4
REMARK    4  A    between atoms: C_4  and  N_5
REMARK    5  A    between atoms: C_11  and  N_12
REMARK                            x       y       z     vdW  Elec       q    Type
REMARK                         _______ _______ _______ _____ _____    ______ ____
ROOT
ATOM      1  N   UNL     1       3.156   4.837  19.712  0.00  0.00    +0.000 N 
ATOM      2  C   UNL     1       3.582   5.520  18.581  0.00  0.00    +0.000 A 
ATOM      3  C   UNL     1       3.130   6.804  18.343  0.00  0.00    +0.000 A 
ATOM      4  C   UNL     1       2.226   7.484  19.195  0.00  0.00    +0.000 A 
ATOM      5  C   UNL     1       1.729   8.989  18.836  0.00  0.00    +0.000 A 
ATOM      6  C   UNL     1       0.954   9.207  19.900  0.00  0.00    +0.000 A 
ATOM      7  C   UNL     1       0.203   9.490  20.839  0.00  0.00    +0.000 A 
ATOM      8  C   UNL     1       0.438   7.829  21.685  0.00  0.00    +0.000 A 
ATOM      9  C   UNL     1       1.616   6.845  20.611  0.00  0.00    +0.000 A 
ATOM     10  C   UNL     1       2.254   5.435  20.693  0.00  0.00    +0.000 A 
ATOM     11  O   UNL     1       1.989   4.730  21.650  0.00  0.00    +0.000 OA
ATOM     12  C   UNL     1       3.748   7.275  17.075  0.00  0.00    +0.000 C 
ATOM     13  O   UNL     1       3.563   8.355  16.532  0.00  0.00    +0.000 OA
ATOM     14  C   UNL     1       4.616   6.202  16.566  0.00  0.00    +0.000 A 
ATOM     15  C   UNL     1       5.419   6.132  15.414  0.00  0.00    +0.000 A 
ATOM     16  C   UNL     1       6.169   4.978  15.162  0.00  0.00    +0.000 A 
ATOM     17  C   UNL     1       6.099   3.903  16.012  0.00  0.00    +0.000 A 
ATOM     18  C   UNL     1       5.256   3.951  17.083  0.00  0.00    +0.000 A 
ATOM     19  C   UNL     1       4.524   5.126  17.427  0.00  0.00    +0.000 A 
ENDROOT
BRANCH   7  20
ATOM     20  N   UNL     1      -0.505  10.934  20.773  0.00  0.00    +0.000 N 
ATOM     21  O   UNL     1      -0.968  11.485  21.762  0.00  0.00    +0.000 OA
ATOM     22  O   UNL     1      -0.648  11.657  19.667  0.00  0.00    +0.000 OA
ENDBRANCH   7  20
BRANCH   1  23
ATOM     23  C   UNL     1       3.582   3.403  19.895  0.00  0.00    +0.000 C 
BRANCH  23  24
ATOM     24  C   UNL     1       2.550   2.352  19.491  0.00  0.00    +0.000 C 
BRANCH  24  25
ATOM     25  C   UNL     1       2.971   1.604  18.153  0.00  0.00    +0.000 C 
BRANCH  25  26
ATOM     26  N   UNL     1       4.158   0.692  18.265  0.00  0.00    +0.000 NA
ATOM     27  H   UNL     1       4.866   0.709  17.476  0.00  0.00    +0.000 HD
ATOM     28  H   UNL     1       4.471   0.436  19.245  0.00  0.00    +0.000 HD
ENDBRANCH  25  26
ENDBRANCH  24  25
ENDBRANCH  23  24
ENDBRANCH   1  23
TORSDOF 5
ENDMDL
MODEL 5
REMARK VINA RESULT:      -6.6      2.729      6.660
REMARK  Name = 
REMARK  5 active torsions:
REMARK  status: ('A' for Active; 'I' for Inactive)
REMARK    1  A    between atoms: N_1  and  C_2
REMARK    2  A    between atoms: C_2  and  C_3
REMARK    3  A    between atoms: C_3  and  C_4
REMARK    4  A    between atoms: C_4  and  N_5
REMARK    5  A    between atoms: C_11  and  N_12
REMARK                            x       y       z     vdW  Elec       q    Type
REMARK                         _______ _______ _______ _____ _____    ______ ____
ROOT
ATOM      1  N   UNL     1       2.919   4.441  19.366  0.00  0.00    +0.000 N 
ATOM      2  C   UNL     1       3.458   5.196  18.334  0.00  0.00    +0.000 A 
ATOM      3  C   UNL     1       3.172   6.545  18.245  0.00  0.00    +0.000 A 
ATOM      4  C   UNL     1       2.329   7.225  19.158  0.00  0.00    +0.000 A 
ATOM      5  C   UNL     1       2.028   8.812  18.976  0.00  0.00    +0.000 A 
ATOM      6  C   UNL     1       1.252   8.996  20.045  0.00  0.00    +0.000 A 
ATOM      7  C   UNL     1       0.511   9.255  20.998  0.00  0.00    +0.000 A 
ATOM      8  C   UNL     1       0.518   7.490  21.641  0.00  0.00    +0.000 A 
ATOM      9  C   UNL     1       1.602   6.504  20.476  0.00  0.00    +0.000 A 
ATOM     10  C   UNL     1       2.064   5.026  20.397  0.00  0.00    +0.000 A 
ATOM     11  O   UNL     1       1.686   4.250  21.256  0.00  0.00    +0.000 OA
ATOM     12  C   UNL     1       3.881   7.083  17.054  0.00  0.00    +0.000 C 
ATOM     13  O   UNL     1       3.844   8.235  16.643  0.00  0.00    +0.000 OA
ATOM     14  C   UNL     1       4.630   5.979  16.433  0.00  0.00    +0.000 A 
ATOM     15  C   UNL     1       5.454   5.948  15.296  0.00  0.00    +0.000 A 
ATOM     16  C   UNL     1       6.069   4.749  14.918  0.00  0.00    +0.000 A 
ATOM     17  C   UNL     1       5.843   3.597  15.630  0.00  0.00    +0.000 A 
ATOM     18  C   UNL     1       4.979   3.622  16.685  0.00  0.00    +0.000 A 
ATOM     19  C   UNL     1       4.383   4.828  17.156  0.00  0.00    +0.000 A 
ENDROOT
BRANCH   7  20
ATOM     20  N   UNL     1      -0.017  10.774  21.097  0.00  0.00    +0.000 N 
ATOM     21  O   UNL     1       0.599  11.646  21.691  0.00  0.00    +0.000 OA
ATOM     22  O   UNL     1      -1.142  11.220  20.549  0.00  0.00    +0.000 OA
ENDBRANCH   7  20
BRANCH   1  23
ATOM     23  C   UNL     1       3.163   2.955  19.380  0.00  0.00    +0.000 C 
BRANCH  23  24
ATOM     24  C   UNL     1       4.532   2.517  19.899  0.00  0.00    +0.000 C 
BRANCH  24  25
ATOM     25  C   UNL     1       4.404   1.646  21.223  0.00  0.00    +0.000 C 
BRANCH  25  26
ATOM     26  N   UNL     1       5.688   1.078  21.752  0.00  0.00    +0.000 NA
ATOM     27  H   UNL     1       5.968   0.109  21.424  0.00  0.00    +0.000 HD
ATOM     28  H   UNL     1       6.438   1.774  22.031  0.00  0.00    +0.000 HD
ENDBRANCH  25  26
ENDBRANCH  24  25
ENDBRANCH  23  24
ENDBRANCH   1  23
TORSDOF 5
ENDMDL
MODEL 6
REMARK VINA RESULT:      -6.5      3.007      7.688
REMARK  Name = 
REMARK  5 active torsions:
REMARK  status: ('A' for Active; 'I' for Inactive)
REMARK    1  A    between atoms: N_1  and  C_2
REMARK    2  A    between atoms: C_2  and  C_3
REMARK    3  A    between atoms: C_3  and  C_4
REMARK    4  A    between atoms: C_4  and  N_5
REMARK    5  A    between atoms: C_11  and  N_12
REMARK                            x       y       z     vdW  Elec       q    Type
REMARK                         _______ _______ _______ _____ _____    ______ ____
ROOT
ATOM      1  N   UNL     1       3.298   6.788  17.660  0.00  0.00    +0.000 N 
ATOM      2  C   UNL     1       2.984   5.714  18.480  0.00  0.00    +0.000 A 
ATOM      3  C   UNL     1       2.232   5.916  19.622  0.00  0.00    +0.000 A 
ATOM      4  C   UNL     1       1.757   7.187  20.028  0.00  0.00    +0.000 A 
ATOM      5  C   UNL     1       0.892   7.345  21.395  0.00  0.00    +0.000 A 
ATOM      6  C   UNL     1       0.654   8.656  21.335  0.00  0.00    +0.000 A 
ATOM      7  C   UNL     1       0.401   9.864  21.373  0.00  0.00    +0.000 A 
ATOM      8  C   UNL     1       1.323  10.231  19.778  0.00  0.00    +0.000 A 
ATOM      9  C   UNL     1       2.008   8.597  19.171  0.00  0.00    +0.000 A 
ATOM     10  C   UNL     1       2.839   8.147  17.942  0.00  0.00    +0.000 A 
ATOM     11  O   UNL     1       3.166   8.984  17.121  0.00  0.00    +0.000 OA
ATOM     12  C   UNL     1       2.058   4.599  20.291  0.00  0.00    +0.000 C 
ATOM     13  O   UNL     1       1.469   4.388  21.342  0.00  0.00    +0.000 OA
ATOM     14  C   UNL     1       2.738   3.581  19.474  0.00  0.00    +0.000 A 
ATOM     15  C   UNL     1       2.877   2.195  19.656  0.00  0.00    +0.000 A 
ATOM     16  C   UNL     1       3.577   1.438  18.709  0.00  0.00    +0.000 A 
ATOM     17  C   UNL     1       4.158   2.047  17.625  0.00  0.00    +0.000 A 
ATOM     18  C   UNL     1       4.085   3.404  17.501  0.00  0.00    +0.000 A 
ATOM     19  C   UNL     1       3.325   4.213  18.395  0.00  0.00    +0.000 A 
ENDROOT
BRANCH   7  20
ATOM     20  N   UNL     1      -0.434  10.376  22.652  0.00  0.00    +0.000 N 
ATOM     21  O   UNL     1      -0.164  10.032  23.793  0.00  0.00    +0.000 OA
ATOM     22  O   UNL     1      -1.468  11.209  22.596  0.00  0.00    +0.000 OA
ENDBRANCH   7  20
BRANCH   1  23
ATOM     23  C   UNL     1       4.204   6.558  16.478  0.00  0.00    +0.000 C 
BRANCH  23  24
ATOM     24  C   UNL     1       5.696   6.739  16.746  0.00  0.00    +0.000 C 
BRANCH  24  25
ATOM     25  C   UNL     1       6.527   5.452  16.321  0.00  0.00    +0.000 C 
BRANCH  25  26
ATOM     26  N   UNL     1       7.391   5.610  15.104  0.00  0.00    +0.000 NA
ATOM     27  H   UNL     1       7.554   6.594  14.743  0.00  0.00    +0.000 HD
ATOM     28  H   UNL     1       8.125   4.863  14.940  0.00  0.00    +0.000 HD
ENDBRANCH  25  26
ENDBRANCH  24  25
ENDBRANCH  23  24
ENDBRANCH   1  23
TORSDOF 5
ENDMDL
MODEL 7
REMARK VINA RESULT:      -6.5      3.973      7.498
REMARK  Name = 
REMARK  5 active torsions:
REMARK  status: ('A' for Active; 'I' for Inactive)
REMARK    1  A    between atoms: N_1  and  C_2
REMARK    2  A    between atoms: C_2  and  C_3
REMARK    3  A    between atoms: C_3  and  C_4
REMARK    4  A    between atoms: C_4  and  N_5
REMARK    5  A    between atoms: C_11  and  N_12
REMARK                            x       y       z     vdW  Elec       q    Type
REMARK                         _______ _______ _______ _____ _____    ______ ____
ROOT
ATOM      1  N   UNL     1       0.910  11.545  19.142  0.00  0.00    +0.000 N 
ATOM      2  C   UNL     1       0.258  11.226  20.324  0.00  0.00    +0.000 A 
ATOM      3  C   UNL     1       0.373   9.954  20.852  0.00  0.00    +0.000 A 
ATOM      4  C   UNL     1       1.126   8.921  20.241  0.00  0.00    +0.000 A 
ATOM      5  C   UNL     1       1.199   7.445  20.918  0.00  0.00    +0.000 A 
ATOM      6  C   UNL     1       2.013   6.859  20.039  0.00  0.00    +0.000 A 
ATOM      7  C   UNL     1       2.745   6.229  19.268  0.00  0.00    +0.000 A 
ATOM      8  C   UNL     1       2.980   7.687  18.108  0.00  0.00    +0.000 A 
ATOM      9  C   UNL     1       1.998   9.108  18.831  0.00  0.00    +0.000 A 
ATOM     10  C   UNL     1       1.749  10.584  18.429  0.00  0.00    +0.000 A 
ATOM     11  O   UNL     1       2.282  11.012  17.421  0.00  0.00    +0.000 OA
ATOM     12  C   UNL     1      -0.424   9.909  22.107  0.00  0.00    +0.000 C 
ATOM     13  O   UNL     1      -0.579   8.940  22.837  0.00  0.00    +0.000 OA
ATOM     14  C   UNL     1      -1.018  11.239  22.317  0.00  0.00    +0.000 A 
ATOM     15  C   UNL     1      -1.851  11.727  23.338  0.00  0.00    +0.000 A 
ATOM     16  C   UNL     1      -2.276  13.059  23.308  0.00  0.00    +0.000 A 
ATOM     17  C   UNL     1      -1.915  13.881  22.269  0.00  0.00    +0.000 A 
ATOM     18  C   UNL     1      -1.173  13.375  21.243  0.00  0.00    +0.000 A 
ATOM     19  C   UNL     1      -0.653  12.047  21.258  0.00  0.00    +0.000 A 
ENDROOT
BRANCH   7  20
ATOM     20  N   UNL     1       3.001   4.682  19.635  0.00  0.00    +0.000 N 
ATOM     21  O   UNL     1       4.038   4.102  19.350  0.00  0.00    +0.000 OA
ATOM     22  O   UNL     1       2.134   3.903  20.273  0.00  0.00    +0.000 OA
ENDBRANCH   7  20
BRANCH   1  23
ATOM     23  C   UNL     1       0.685  12.905  18.535  0.00  0.00    +0.000 C 
BRANCH  23  24
ATOM     24  C   UNL     1       1.537  14.034  19.111  0.00  0.00    +0.000 C 
BRANCH  24  25
ATOM     25  C   UNL     1       2.604  14.559  18.056  0.00  0.00    +0.000 C 
BRANCH  25  26
ATOM     26  N   UNL     1       3.753  13.633  17.781  0.00  0.00    +0.000 NA
ATOM     27  H   UNL     1       4.605  14.040  17.299  0.00  0.00    +0.000 HD
ATOM     28  H   UNL     1       3.865  12.805  18.434  0.00  0.00    +0.000 HD
ENDBRANCH  25  26
ENDBRANCH  24  25
ENDBRANCH  23  24
ENDBRANCH   1  23
TORSDOF 5
ENDMDL
MODEL 8
REMARK VINA RESULT:      -6.5      7.485     11.821
REMARK  Name = 
REMARK  5 active torsions:
REMARK  status: ('A' for Active; 'I' for Inactive)
REMARK    1  A    between atoms: N_1  and  C_2
REMARK    2  A    between atoms: C_2  and  C_3
REMARK    3  A    between atoms: C_3  and  C_4
REMARK    4  A    between atoms: C_4  and  N_5
REMARK    5  A    between atoms: C_11  and  N_12
REMARK                            x       y       z     vdW  Elec       q    Type
REMARK                         _______ _______ _______ _____ _____    ______ ____
ROOT
ATOM      1  N   UNL     1      -1.066  11.708  20.430  0.00  0.00    +0.000 N 
ATOM      2  C   UNL     1      -2.177  11.753  19.600  0.00  0.00    +0.000 A 
ATOM      3  C   UNL     1      -3.274  12.515  19.959  0.00  0.00    +0.000 A 
ATOM      4  C   UNL     1      -3.343  13.265  21.159  0.00  0.00    +0.000 A 
ATOM      5  C   UNL     1      -4.676  14.124  21.516  0.00  0.00    +0.000 A 
ATOM      6  C   UNL     1      -4.269  14.659  22.669  0.00  0.00    +0.000 A 
ATOM      7  C   UNL     1      -3.986  15.184  23.750  0.00  0.00    +0.000 A 
ATOM      8  C   UNL     1      -2.284  14.395  23.826  0.00  0.00    +0.000 A 
ATOM      9  C   UNL     1      -2.107  13.359  22.276  0.00  0.00    +0.000 A 
ATOM     10  C   UNL     1      -0.991  12.465  21.678  0.00  0.00    +0.000 A 
ATOM     11  O   UNL     1       0.056  12.352  22.288  0.00  0.00    +0.000 OA
ATOM     12  C   UNL     1      -4.298  12.370  18.890  0.00  0.00    +0.000 C 
ATOM     13  O   UNL     1      -5.409  12.879  18.873  0.00  0.00    +0.000 OA
ATOM     14  C   UNL     1      -3.748  11.485  17.851  0.00  0.00    +0.000 A 
ATOM     15  C   UNL     1      -4.300  11.027  16.643  0.00  0.00    +0.000 A 
ATOM     16  C   UNL     1      -3.551  10.184  15.814  0.00  0.00    +0.000 A 
ATOM     17  C   UNL     1      -2.296   9.775  16.190  0.00  0.00    +0.000 A 
ATOM     18  C   UNL     1      -1.802  10.161  17.401  0.00  0.00    +0.000 A 
ATOM     19  C   UNL     1      -2.491  11.075  18.252  0.00  0.00    +0.000 A 
ENDROOT
BRANCH   7  20
ATOM     20  N   UNL     1      -5.133  16.096  24.420  0.00  0.00    +0.000 N 
ATOM     21  O   UNL     1      -6.322  15.922  24.200  0.00  0.00    +0.000 OA
ATOM     22  O   UNL     1      -4.905  17.098  25.262  0.00  0.00    +0.000 OA
ENDBRANCH   7  20
BRANCH   1  23
ATOM     23  C   UNL     1       0.072  10.790  20.066  0.00  0.00    +0.000 C 
BRANCH  23  24
ATOM     24  C   UNL     1      -0.074   9.342  20.529  0.00  0.00    +0.000 C 
BRANCH  24  25
ATOM     25  C   UNL     1       1.136   8.900  21.459  0.00  0.00    +0.000 C 
BRANCH  25  26
ATOM     26  N   UNL     1       1.276   9.661  22.746  0.00  0.00    +0.000 NA
ATOM     27  H   UNL     1       0.433   9.698  23.387  0.00  0.00    +0.000 HD
ATOM     28  H   UNL     1       2.252   9.726  23.156  0.00  0.00    +0.000 HD
ENDBRANCH  25  26
ENDBRANCH  24  25
ENDBRANCH  23  24
ENDBRANCH   1  23
TORSDOF 5
ENDMDL
MODEL 9
REMARK VINA RESULT:      -6.4      7.462      9.629
REMARK  Name = 
REMARK  5 active torsions:
REMARK  status: ('A' for Active; 'I' for Inactive)
REMARK    1  A    between atoms: N_1  and  C_2
REMARK    2  A    between atoms: C_2  and  C_3
REMARK    3  A    between atoms: C_3  and  C_4
REMARK    4  A    between atoms: C_4  and  N_5
REMARK    5  A    between atoms: C_11  and  N_12
REMARK                            x       y       z     vdW  Elec       q    Type
REMARK                         _______ _______ _______ _____ _____    ______ ____
ROOT
ATOM      1  N   UNL     1      -1.714  11.682  20.842  0.00  0.00    +0.000 N 
ATOM      2  C   UNL     1      -2.941  12.324  20.750  0.00  0.00    +0.000 A 
ATOM      3  C   UNL     1      -3.667  12.253  19.575  0.00  0.00    +0.000 A 
ATOM      4  C   UNL     1      -3.222  11.559  18.424  0.00  0.00    +0.000 A 
ATOM      5  C   UNL     1      -4.128  11.536  17.075  0.00  0.00    +0.000 A 
ATOM      6  C   UNL     1      -3.346  10.766  16.317  0.00  0.00    +0.000 A 
ATOM      7  C   UNL     1      -2.679  10.077  15.538  0.00  0.00    +0.000 A 
ATOM      8  C   UNL     1      -1.294   9.802  16.777  0.00  0.00    +0.000 A 
ATOM      9  C   UNL     1      -1.789  10.707  18.340  0.00  0.00    +0.000 A 
ATOM     10  C   UNL     1      -1.156  10.899  19.742  0.00  0.00    +0.000 A 
ATOM     11  O   UNL     1      -0.086  10.368  19.976  0.00  0.00    +0.000 OA
ATOM     12  C   UNL     1      -4.922  13.027  19.770  0.00  0.00    +0.000 C 
ATOM     13  O   UNL     1      -5.801  13.209  18.939  0.00  0.00    +0.000 OA
ATOM     14  C   UNL     1      -4.921  13.558  21.142  0.00  0.00    +0.000 A 
ATOM     15  C   UNL     1      -5.860  14.349  21.826  0.00  0.00    +0.000 A 
ATOM     16  C   UNL     1      -5.619  14.717  23.155  0.00  0.00    +0.000 A 
ATOM     17  C   UNL     1      -4.456  14.341  23.781  0.00  0.00    +0.000 A 
ATOM     18  C   UNL     1      -3.516  13.642  23.082  0.00  0.00    +0.000 A 
ATOM     19  C   UNL     1      -3.740  13.179  21.752  0.00  0.00    +0.000 A 
ENDROOT
BRANCH   7  20
ATOM     20  N   UNL     1      -3.288   9.882  14.060  0.00  0.00    +0.000 N 
ATOM     21  O   UNL     1      -2.583   9.731  13.073  0.00  0.00    +0.000 OA
ATOM     22  O   UNL     1      -4.585   9.858  13.775  0.00  0.00    +0.000 OA
ENDBRANCH   7  20
BRANCH   1  23
ATOM     23  C   UNL     1      -0.897  11.860  22.096  0.00  0.00    +0.000 C 
BRANCH  23  24
ATOM     24  C   UNL     1      -1.228  10.903  23.240  0.00  0.00    +0.000 C 
BRANCH  24  25
ATOM     25  C   UNL     1      -0.247   9.653  23.260  0.00  0.00    +0.000 C 
BRANCH  25  26
ATOM     26  N   UNL     1       1.098   9.874  22.630  0.00  0.00    +0.000 NA
ATOM     27  H   UNL     1       1.810   9.093  22.708  0.00  0.00    +0.000 HD
ATOM     28  H   UNL     1       1.133  10.535  21.801  0.00  0.00    +0.000 HD
ENDBRANCH  25  26
ENDBRANCH  24  25
ENDBRANCH  23  24
ENDBRANCH   1  23
TORSDOF 5
ENDMDL
