MODEL 1
REMARK VINA RESULT:      -8.5      0.000      0.000
REMARK  Name = 
REMARK  7 active torsions:
REMARK  status: ('A' for Active; 'I' for Inactive)
REMARK    1  A    between atoms: C_1  and  C_2
REMARK    2  A    between atoms: C_5  and  C_6
REMARK    3  A    between atoms: C_7  and  C_8
REMARK    4  A    between atoms: C_13  and  S_14
REMARK    5  A    between atoms: S_14  and  N_17
REMARK    6  A    between atoms: C_20  and  C_21
REMARK    7  A    between atoms: C_31  and  C_32
REMARK                            x       y       z     vdW  Elec       q    Type
REMARK                         _______ _______ _______ _____ _____    ______ ____
ROOT
ATOM      1  N   UNL     1       2.207   6.202  19.168  0.00  0.00    +0.000 NA
ATOM      2  C   UNL     1       2.476   6.861  17.873  0.00  0.00    +0.000 C 
ATOM      3  C   UNL     1       2.911   8.315  18.028  0.00  0.00    +0.000 C 
ATOM      4  C   UNL     1       2.001   9.165  18.930  0.00  0.00    +0.000 C 
ATOM      5  C   UNL     1       1.893   8.452  20.280  0.00  0.00    +0.000 C 
ATOM      6  C   UNL     1       1.483   6.980  20.197  0.00  0.00    +0.000 C 
ENDROOT
BRANCH   4   7
ATOM      7  C   UNL     1       0.623   9.422  18.303  0.00  0.00    +0.000 C 
ATOM      8  O   UNL     1       0.303   8.744  17.323  0.00  0.00    +0.000 OA
ATOM      9  N   UNL     1      -0.231  10.359  18.884  0.00  0.00    +0.000 N 
ATOM     10  C   UNL     1      -1.583  10.527  18.468  0.00  0.00    +0.000 A 
ATOM     11  C   UNL     1      -2.345   9.735  17.616  0.00  0.00    +0.000 A 
ATOM     12  C   UNL     1      -3.678  10.081  17.374  0.00  0.00    +0.000 A 
ATOM     13  C   UNL     1      -4.243  11.207  17.987  0.00  0.00    +0.000 A 
ATOM     14  C   UNL     1      -3.475  12.011  18.822  0.00  0.00    +0.000 A 
ATOM     15  C   UNL     1      -2.152  11.661  19.032  0.00  0.00    +0.000 A 
ATOM     16  C   UNL     1      -1.150  12.433  19.830  0.00  0.00    +0.000 C 
ATOM     17  C   UNL     1       0.093  11.504  19.803  0.00  0.00    +0.000 C 
ATOM     18  C   UNL     1       0.438  11.114  21.240  0.00  0.00    +0.000 C 
ENDBRANCH   4   7
BRANCH   1  19
ATOM     19  S   UNL     1       1.773   4.540  19.049  0.00  0.00    +0.000 S 
ATOM     20  O   UNL     1       1.703   4.224  17.635  0.00  0.00    +0.000 OA
ATOM     21  O   UNL     1       0.631   4.302  19.904  0.00  0.00    +0.000 OA
BRANCH  19  27
ATOM     22  C   UNL     1       2.105   2.929  22.079  0.00  0.00    +0.000 C 
ATOM     23  C   UNL     1       3.042   2.875  20.932  0.00  0.00    +0.000 A 
ATOM     24  N   UNL     1       4.128   2.106  21.047  0.00  0.00    +0.000 NA
ATOM     25  O   UNL     1       4.795   2.208  19.857  0.00  0.00    +0.000 OA
ATOM     26  C   UNL     1       4.137   3.046  18.982  0.00  0.00    +0.000 A 
ATOM     27  C   UNL     1       3.007   3.502  19.659  0.00  0.00    +0.000 A 
BRANCH  26  28
ATOM     28  C   UNL     1       4.633   3.289  17.663  0.00  0.00    +0.000 C 
ATOM     29  C   UNL     1       5.592   4.200  17.438  0.00  0.00    +0.000 C 
BRANCH  29  30
ATOM     30  C   UNL     1       6.076   4.418  16.118  0.00  0.00    +0.000 A 
ATOM     31  C   UNL     1       5.503   4.039  14.907  0.00  0.00    +0.000 A 
ATOM     32  C   UNL     1       6.351   4.483  13.866  0.00  0.00    +0.000 A 
ATOM     33  C   UNL     1       7.402   5.112  14.481  0.00  0.00    +0.000 A 
ATOM     34  O   UNL     1       7.252   5.076  15.825  0.00  0.00    +0.000 OA
ENDBRANCH  29  30
ENDBRANCH  26  28
ENDBRANCH  19  27
ENDBRANCH   1  19
TORSDOF 5
ENDMDL
MODEL 2
REMARK VINA RESULT:      -8.1      1.711      1.929
REMARK  Name = 
REMARK  7 active torsions:
REMARK  status: ('A' for Active; 'I' for Inactive)
REMARK    1  A    between atoms: C_1  and  C_2
REMARK    2  A    between atoms: C_5  and  C_6
REMARK    3  A    between atoms: C_7  and  C_8
REMARK    4  A    between atoms: C_13  and  S_14
REMARK    5  A    between atoms: S_14  and  N_17
REMARK    6  A    between atoms: C_20  and  C_21
REMARK    7  A    between atoms: C_31  and  C_32
REMARK                            x       y       z     vdW  Elec       q    Type
REMARK                         _______ _______ _______ _____ _____    ______ ____
ROOT
ATOM      1  N   UNL     1       2.244   6.411  19.126  0.00  0.00    +0.000 NA
ATOM      2  C   UNL     1       2.474   7.101  17.840  0.00  0.00    +0.000 C 
ATOM      3  C   UNL     1       2.868   8.565  18.016  0.00  0.00    +0.000 C 
ATOM      4  C   UNL     1       1.947   9.370  18.947  0.00  0.00    +0.000 C 
ATOM      5  C   UNL     1       1.880   8.629  20.285  0.00  0.00    +0.000 C 
ATOM      6  C   UNL     1       1.512   7.147  20.180  0.00  0.00    +0.000 C 
ENDROOT
BRANCH   4   7
ATOM      7  C   UNL     1       0.552   9.598  18.346  0.00  0.00    +0.000 C 
ATOM      8  O   UNL     1       0.227   8.909  17.375  0.00  0.00    +0.000 OA
ATOM      9  N   UNL     1      -0.308  10.521  18.938  0.00  0.00    +0.000 N 
ATOM     10  C   UNL     1      -1.670  10.663  18.547  0.00  0.00    +0.000 A 
ATOM     11  C   UNL     1      -2.433   9.852  17.713  0.00  0.00    +0.000 A 
ATOM     12  C   UNL     1      -3.776  10.171  17.496  0.00  0.00    +0.000 A 
ATOM     13  C   UNL     1      -4.351  11.290  18.114  0.00  0.00    +0.000 A 
ATOM     14  C   UNL     1      -3.583  12.113  18.930  0.00  0.00    +0.000 A 
ATOM     15  C   UNL     1      -2.249  11.789  19.116  0.00  0.00    +0.000 A 
ATOM     16  C   UNL     1      -1.247  12.584  19.890  0.00  0.00    +0.000 C 
ATOM     17  C   UNL     1       0.013  11.678  19.845  0.00  0.00    +0.000 C 
ATOM     18  C   UNL     1       0.392  11.302  21.277  0.00  0.00    +0.000 C 
ENDBRANCH   4   7
BRANCH   1  19
ATOM     19  S   UNL     1       1.856   4.739  18.982  0.00  0.00    +0.000 S 
ATOM     20  O   UNL     1       1.602   4.487  17.576  0.00  0.00    +0.000 OA
ATOM     21  O   UNL     1       0.853   4.414  19.972  0.00  0.00    +0.000 OA
BRANCH  19  27
ATOM     22  C   UNL     1       2.029   1.396  19.806  0.00  0.00    +0.000 C 
ATOM     23  C   UNL     1       3.161   2.344  19.680  0.00  0.00    +0.000 A 
ATOM     24  N   UNL     1       4.396   1.873  19.876  0.00  0.00    +0.000 NA
ATOM     25  O   UNL     1       5.243   2.928  19.672  0.00  0.00    +0.000 OA
ATOM     26  C   UNL     1       4.549   4.075  19.349  0.00  0.00    +0.000 A 
ATOM     27  C   UNL     1       3.199   3.727  19.361  0.00  0.00    +0.000 A 
BRANCH  26  28
ATOM     28  C   UNL     1       5.224   5.304  19.068  0.00  0.00    +0.000 C 
ATOM     29  C   UNL     1       6.473   5.315  18.577  0.00  0.00    +0.000 C 
BRANCH  29  30
ATOM     30  C   UNL     1       7.119   6.551  18.297  0.00  0.00    +0.000 A 
ATOM     31  C   UNL     1       6.786   7.512  17.347  0.00  0.00    +0.000 A 
ATOM     32  C   UNL     1       7.722   8.568  17.450  0.00  0.00    +0.000 A 
ATOM     33  C   UNL     1       8.583   8.211  18.453  0.00  0.00    +0.000 A 
ATOM     34  O   UNL     1       8.237   7.006  18.964  0.00  0.00    +0.000 OA
ENDBRANCH  29  30
ENDBRANCH  26  28
ENDBRANCH  19  27
ENDBRANCH   1  19
TORSDOF 5
ENDMDL
MODEL 3
REMARK VINA RESULT:      -8.0      7.069      9.270
REMARK  Name = 
REMARK  7 active torsions:
REMARK  status: ('A' for Active; 'I' for Inactive)
REMARK    1  A    between atoms: C_1  and  C_2
REMARK    2  A    between atoms: C_5  and  C_6
REMARK    3  A    between atoms: C_7  and  C_8
REMARK    4  A    between atoms: C_13  and  S_14
REMARK    5  A    between atoms: S_14  and  N_17
REMARK    6  A    between atoms: C_20  and  C_21
REMARK    7  A    between atoms: C_31  and  C_32
REMARK                            x       y       z     vdW  Elec       q    Type
REMARK                         _______ _______ _______ _____ _____    ______ ____
ROOT
ATOM      1  N   UNL     1       0.606  12.858  21.852  0.00  0.00    +0.000 NA
ATOM      2  C   UNL     1      -0.260  13.943  22.357  0.00  0.00    +0.000 C 
ATOM      3  C   UNL     1      -1.200  13.481  23.467  0.00  0.00    +0.000 C 
ATOM      4  C   UNL     1      -1.999  12.208  23.142  0.00  0.00    +0.000 C 
ATOM      5  C   UNL     1      -0.995  11.120  22.751  0.00  0.00    +0.000 C 
ATOM      6  C   UNL     1      -0.004  11.525  21.658  0.00  0.00    +0.000 C 
ENDROOT
BRANCH   4   7
ATOM      7  C   UNL     1      -3.055  12.435  22.051  0.00  0.00    +0.000 C 
ATOM      8  O   UNL     1      -2.707  12.286  20.876  0.00  0.00    +0.000 OA
ATOM      9  N   UNL     1      -4.365  12.744  22.417  0.00  0.00    +0.000 N 
ATOM     10  C   UNL     1      -5.432  12.798  21.475  0.00  0.00    +0.000 A 
ATOM     11  C   UNL     1      -5.452  12.392  20.145  0.00  0.00    +0.000 A 
ATOM     12  C   UNL     1      -6.637  12.512  19.414  0.00  0.00    +0.000 A 
ATOM     13  C   UNL     1      -7.794  13.027  20.013  0.00  0.00    +0.000 A 
ATOM     14  C   UNL     1      -7.769  13.452  21.337  0.00  0.00    +0.000 A 
ATOM     15  C   UNL     1      -6.579  13.343  22.037  0.00  0.00    +0.000 A 
ATOM     16  C   UNL     1      -6.331  13.812  23.435  0.00  0.00    +0.000 C 
ATOM     17  C   UNL     1      -4.884  13.317  23.706  0.00  0.00    +0.000 C 
ATOM     18  C   UNL     1      -4.916  12.349  24.888  0.00  0.00    +0.000 C 
ENDBRANCH   4   7
BRANCH   1  19
ATOM     19  S   UNL     1       1.730  13.345  20.641  0.00  0.00    +0.000 S 
ATOM     20  O   UNL     1       1.895  12.218  19.743  0.00  0.00    +0.000 OA
ATOM     21  O   UNL     1       2.881  13.931  21.292  0.00  0.00    +0.000 OA
BRANCH  19  27
ATOM     22  C   UNL     1       2.966  16.464  19.845  0.00  0.00    +0.000 C 
ATOM     23  C   UNL     1       1.702  15.857  19.367  0.00  0.00    +0.000 A 
ATOM     24  N   UNL     1       0.954  16.560  18.514  0.00  0.00    +0.000 NA
ATOM     25  O   UNL     1      -0.123  15.772  18.210  0.00  0.00    +0.000 OA
ATOM     26  C   UNL     1      -0.064  14.564  18.873  0.00  0.00    +0.000 A 
ATOM     27  C   UNL     1       1.100  14.600  19.639  0.00  0.00    +0.000 A 
BRANCH  26  28
ATOM     28  C   UNL     1      -1.068  13.563  18.694  0.00  0.00    +0.000 C 
ATOM     29  C   UNL     1      -0.889  12.540  17.845  0.00  0.00    +0.000 C 
BRANCH  29  30
ATOM     30  C   UNL     1      -1.900  11.551  17.692  0.00  0.00    +0.000 A 
ATOM     31  C   UNL     1      -1.791  10.169  17.810  0.00  0.00    +0.000 A 
ATOM     32  C   UNL     1      -3.069   9.610  17.574  0.00  0.00    +0.000 A 
ATOM     33  C   UNL     1      -3.902  10.669  17.324  0.00  0.00    +0.000 A 
ATOM     34  O   UNL     1      -3.215  11.833  17.386  0.00  0.00    +0.000 OA
ENDBRANCH  29  30
ENDBRANCH  26  28
ENDBRANCH  19  27
ENDBRANCH   1  19
TORSDOF 5
ENDMDL
MODEL 4
REMARK VINA RESULT:      -7.9      3.107      9.110
REMARK  Name = 
REMARK  7 active torsions:
REMARK  status: ('A' for Active; 'I' for Inactive)
REMARK    1  A    between atoms: C_1  and  C_2
REMARK    2  A    between atoms: C_5  and  C_6
REMARK    3  A    between atoms: C_7  and  C_8
REMARK    4  A    between atoms: C_13  and  S_14
REMARK    5  A    between atoms: S_14  and  N_17
REMARK    6  A    between atoms: C_20  and  C_21
REMARK    7  A    between atoms: C_31  and  C_32
REMARK                            x       y       z     vdW  Elec       q    Type
REMARK                         _______ _______ _______ _____ _____    ______ ____
ROOT
ATOM      1  N   UNL     1      -0.131  10.500  21.199  0.00  0.00    +0.000 NA
ATOM      2  C   UNL     1      -0.766   9.375  20.481  0.00  0.00    +0.000 C 
ATOM      3  C   UNL     1      -0.406   8.016  21.075  0.00  0.00    +0.000 C 
ATOM      4  C   UNL     1       1.099   7.788  21.290  0.00  0.00    +0.000 C 
ATOM      5  C   UNL     1       1.624   8.944  22.146  0.00  0.00    +0.000 C 
ATOM      6  C   UNL     1       1.277  10.339  21.620  0.00  0.00    +0.000 C 
ENDROOT
BRANCH   4   7
ATOM      7  C   UNL     1       1.871   7.653  19.970  0.00  0.00    +0.000 C 
ATOM      8  O   UNL     1       2.120   8.687  19.343  0.00  0.00    +0.000 OA
ATOM      9  N   UNL     1       2.307   6.395  19.555  0.00  0.00    +0.000 N 
ATOM     10  C   UNL     1       3.172   6.213  18.438  0.00  0.00    +0.000 A 
ATOM     11  C   UNL     1       3.877   7.164  17.708  0.00  0.00    +0.000 A 
ATOM     12  C   UNL     1       4.702   6.744  16.660  0.00  0.00    +0.000 A 
ATOM     13  C   UNL     1       4.824   5.383  16.352  0.00  0.00    +0.000 A 
ATOM     14  C   UNL     1       4.103   4.434  17.068  0.00  0.00    +0.000 A 
ATOM     15  C   UNL     1       3.277   4.873  18.090  0.00  0.00    +0.000 A 
ATOM     16  C   UNL     1       2.370   4.022  18.919  0.00  0.00    +0.000 C 
ATOM     17  C   UNL     1       1.807   5.034  19.953  0.00  0.00    +0.000 C 
ATOM     18  C   UNL     1       2.209   4.572  21.353  0.00  0.00    +0.000 C 
ENDBRANCH   4   7
BRANCH   1  19
ATOM     19  S   UNL     1      -0.557  12.059  20.605  0.00  0.00    +0.000 S 
ATOM     20  O   UNL     1      -0.409  12.014  19.163  0.00  0.00    +0.000 OA
ATOM     21  O   UNL     1       0.154  13.054  21.378  0.00  0.00    +0.000 OA
BRANCH  19  27
ATOM     22  C   UNL     1      -2.273  13.109  23.405  0.00  0.00    +0.000 C 
ATOM     23  C   UNL     1      -2.834  12.855  22.057  0.00  0.00    +0.000 A 
ATOM     24  N   UNL     1      -4.139  13.074  21.871  0.00  0.00    +0.000 NA
ATOM     25  O   UNL     1      -4.388  12.798  20.555  0.00  0.00    +0.000 OA
ATOM     26  C   UNL     1      -3.242  12.399  19.899  0.00  0.00    +0.000 A 
ATOM     27  C   UNL     1      -2.226  12.415  20.852  0.00  0.00    +0.000 A 
BRANCH  26  28
ATOM     28  C   UNL     1      -3.250  12.080  18.505  0.00  0.00    +0.000 C 
ATOM     29  C   UNL     1      -3.273  10.807  18.083  0.00  0.00    +0.000 C 
BRANCH  29  30
ATOM     30  C   UNL     1      -3.289  10.515  16.691  0.00  0.00    +0.000 A 
ATOM     31  C   UNL     1      -2.362   9.797  15.941  0.00  0.00    +0.000 A 
ATOM     32  C   UNL     1      -2.813   9.771  14.601  0.00  0.00    +0.000 A 
ATOM     33  C   UNL     1      -3.992  10.469  14.588  0.00  0.00    +0.000 A 
ATOM     34  O   UNL     1      -4.285  10.922  15.828  0.00  0.00    +0.000 OA
ENDBRANCH  29  30
ENDBRANCH  26  28
ENDBRANCH  19  27
ENDBRANCH   1  19
TORSDOF 5
ENDMDL
MODEL 5
REMARK VINA RESULT:      -7.9      4.702      7.791
REMARK  Name = 
REMARK  7 active torsions:
REMARK  status: ('A' for Active; 'I' for Inactive)
REMARK    1  A    between atoms: C_1  and  C_2
REMARK    2  A    between atoms: C_5  and  C_6
REMARK    3  A    between atoms: C_7  and  C_8
REMARK    4  A    between atoms: C_13  and  S_14
REMARK    5  A    between atoms: S_14  and  N_17
REMARK    6  A    between atoms: C_20  and  C_21
REMARK    7  A    between atoms: C_31  and  C_32
REMARK                            x       y       z     vdW  Elec       q    Type
REMARK                         _______ _______ _______ _____ _____    ______ ____
ROOT
ATOM      1  N   UNL     1       0.352  12.346  19.074  0.00  0.00    +0.000 NA
ATOM      2  C   UNL     1       0.185  13.647  19.754  0.00  0.00    +0.000 C 
ATOM      3  C   UNL     1       1.062  14.743  19.157  0.00  0.00    +0.000 C 
ATOM      4  C   UNL     1       2.543  14.363  18.994  0.00  0.00    +0.000 C 
ATOM      5  C   UNL     1       2.601  13.072  18.173  0.00  0.00    +0.000 C 
ATOM      6  C   UNL     1       1.724  11.935  18.704  0.00  0.00    +0.000 C 
ENDROOT
BRANCH   4   7
ATOM      7  C   UNL     1       3.269  14.222  20.341  0.00  0.00    +0.000 C 
ATOM      8  O   UNL     1       2.650  13.702  21.273  0.00  0.00    +0.000 OA
ATOM      9  N   UNL     1       4.598  14.629  20.450  0.00  0.00    +0.000 N 
ATOM     10  C   UNL     1       5.385  14.372  21.608  0.00  0.00    +0.000 A 
ATOM     11  C   UNL     1       5.104  13.558  22.700  0.00  0.00    +0.000 A 
ATOM     12  C   UNL     1       6.054  13.431  23.718  0.00  0.00    +0.000 A 
ATOM     13  C   UNL     1       7.277  14.109  23.638  0.00  0.00    +0.000 A 
ATOM     14  C   UNL     1       7.550  14.940  22.558  0.00  0.00    +0.000 A 
ATOM     15  C   UNL     1       6.588  15.066  21.570  0.00  0.00    +0.000 A 
ATOM     16  C   UNL     1       6.661  15.963  20.376  0.00  0.00    +0.000 C 
ATOM     17  C   UNL     1       5.375  15.587  19.591  0.00  0.00    +0.000 C 
ATOM     18  C   UNL     1       5.783  15.053  18.218  0.00  0.00    +0.000 C 
ENDBRANCH   4   7
BRANCH   1  19
ATOM     19  S   UNL     1      -0.663  11.090  19.672  0.00  0.00    +0.000 S 
ATOM     20  O   UNL     1      -0.581   9.996  18.724  0.00  0.00    +0.000 OA
ATOM     21  O   UNL     1      -1.947  11.662  20.014  0.00  0.00    +0.000 OA
BRANCH  19  27
ATOM     22  C   UNL     1      -1.339  11.868  22.962  0.00  0.00    +0.000 C 
ATOM     23  C   UNL     1      -0.424  10.814  22.465  0.00  0.00    +0.000 A 
ATOM     24  N   UNL     1       0.199  10.049  23.365  0.00  0.00    +0.000 NA
ATOM     25  O   UNL     1       0.945   9.151  22.653  0.00  0.00    +0.000 OA
ATOM     26  C   UNL     1       0.801   9.343  21.295  0.00  0.00    +0.000 A 
ATOM     27  C   UNL     1      -0.069  10.422  21.147  0.00  0.00    +0.000 A 
BRANCH  26  28
ATOM     28  C   UNL     1       1.467   8.507  20.346  0.00  0.00    +0.000 C 
ATOM     29  C   UNL     1       1.830   7.253  20.657  0.00  0.00    +0.000 C 
BRANCH  29  30
ATOM     30  C   UNL     1       2.484   6.437  19.693  0.00  0.00    +0.000 A 
ATOM     31  C   UNL     1       2.707   6.693  18.343  0.00  0.00    +0.000 A 
ATOM     32  C   UNL     1       3.401   5.588  17.799  0.00  0.00    +0.000 A 
ATOM     33  C   UNL     1       3.574   4.706  18.834  0.00  0.00    +0.000 A 
ATOM     34  O   UNL     1       3.027   5.200  19.969  0.00  0.00    +0.000 OA
ENDBRANCH  29  30
ENDBRANCH  26  28
ENDBRANCH  19  27
ENDBRANCH   1  19
TORSDOF 5
ENDMDL
MODEL 6
REMARK VINA RESULT:      -7.8      3.494      5.233
REMARK  Name = 
REMARK  7 active torsions:
REMARK  status: ('A' for Active; 'I' for Inactive)
REMARK    1  A    between atoms: C_1  and  C_2
REMARK    2  A    between atoms: C_5  and  C_6
REMARK    3  A    between atoms: C_7  and  C_8
REMARK    4  A    between atoms: C_13  and  S_14
REMARK    5  A    between atoms: S_14  and  N_17
REMARK    6  A    between atoms: C_20  and  C_21
REMARK    7  A    between atoms: C_31  and  C_32
REMARK                            x       y       z     vdW  Elec       q    Type
REMARK                         _______ _______ _______ _____ _____    ______ ____
ROOT
ATOM      1  N   UNL     1       4.187   5.140  18.901  0.00  0.00    +0.000 NA
ATOM      2  C   UNL     1       3.702   5.815  20.122  0.00  0.00    +0.000 C 
ATOM      3  C   UNL     1       2.185   5.982  20.142  0.00  0.00    +0.000 C 
ATOM      4  C   UNL     1       1.590   6.599  18.866  0.00  0.00    +0.000 C 
ATOM      5  C   UNL     1       2.057   5.750  17.681  0.00  0.00    +0.000 C 
ATOM      6  C   UNL     1       3.569   5.522  17.612  0.00  0.00    +0.000 C 
ENDROOT
BRANCH   4   7
ATOM      7  C   UNL     1       1.963   8.079  18.696  0.00  0.00    +0.000 C 
ATOM      8  O   UNL     1       2.677   8.384  17.736  0.00  0.00    +0.000 OA
ATOM      9  N   UNL     1       1.448   9.023  19.584  0.00  0.00    +0.000 N 
ATOM     10  C   UNL     1       1.607  10.425  19.390  0.00  0.00    +0.000 A 
ATOM     11  C   UNL     1       2.082  11.110  18.277  0.00  0.00    +0.000 A 
ATOM     12  C   UNL     1       2.118  12.507  18.301  0.00  0.00    +0.000 A 
ATOM     13  C   UNL     1       1.675  13.211  19.429  0.00  0.00    +0.000 A 
ATOM     14  C   UNL     1       1.220  12.526  20.550  0.00  0.00    +0.000 A 
ATOM     15  C   UNL     1       1.211  11.142  20.512  0.00  0.00    +0.000 A 
ATOM     16  C   UNL     1       0.833  10.230  21.635  0.00  0.00    +0.000 C 
ATOM     17  C   UNL     1       0.900   8.828  20.971  0.00  0.00    +0.000 C 
ATOM     18  C   UNL     1      -0.486   8.189  21.044  0.00  0.00    +0.000 C 
ENDBRANCH   4   7
BRANCH   1  19
ATOM     19  S   UNL     1       5.888   4.873  18.860  0.00  0.00    +0.000 S 
ATOM     20  O   UNL     1       6.089   3.437  18.902  0.00  0.00    +0.000 OA
ATOM     21  O   UNL     1       6.510   5.724  19.850  0.00  0.00    +0.000 OA
BRANCH  19  27
ATOM     22  C   UNL     1       5.660   3.516  15.698  0.00  0.00    +0.000 C 
ATOM     23  C   UNL     1       6.416   4.727  16.098  0.00  0.00    +0.000 A 
ATOM     24  N   UNL     1       7.067   5.400  15.145  0.00  0.00    +0.000 NA
ATOM     25  O   UNL     1       7.646   6.474  15.765  0.00  0.00    +0.000 OA
ATOM     26  C   UNL     1       7.367   6.485  17.116  0.00  0.00    +0.000 A 
ATOM     27  C   UNL     1       6.585   5.358  17.358  0.00  0.00    +0.000 A 
BRANCH  26  28
ATOM     28  C   UNL     1       7.845   7.527  17.969  0.00  0.00    +0.000 C 
ATOM     29  C   UNL     1       8.205   8.722  17.476  0.00  0.00    +0.000 C 
BRANCH  29  30
ATOM     30  C   UNL     1       8.670   9.745  18.348  0.00  0.00    +0.000 A 
ATOM     31  C   UNL     1       8.912  11.086  18.064  0.00  0.00    +0.000 A 
ATOM     32  C   UNL     1       9.359  11.709  19.253  0.00  0.00    +0.000 A 
ATOM     33  C   UNL     1       9.369  10.727  20.210  0.00  0.00    +0.000 A 
ATOM     34  O   UNL     1       8.965   9.550  19.680  0.00  0.00    +0.000 OA
ENDBRANCH  29  30
ENDBRANCH  26  28
ENDBRANCH  19  27
ENDBRANCH   1  19
TORSDOF 5
ENDMDL
MODEL 7
REMARK VINA RESULT:      -7.7      3.104      6.121
REMARK  Name = 
REMARK  7 active torsions:
REMARK  status: ('A' for Active; 'I' for Inactive)
REMARK    1  A    between atoms: C_1  and  C_2
REMARK    2  A    between atoms: C_5  and  C_6
REMARK    3  A    between atoms: C_7  and  C_8
REMARK    4  A    between atoms: C_13  and  S_14
REMARK    5  A    between atoms: S_14  and  N_17
REMARK    6  A    between atoms: C_20  and  C_21
REMARK    7  A    between atoms: C_31  and  C_32
REMARK                            x       y       z     vdW  Elec       q    Type
REMARK                         _______ _______ _______ _____ _____    ______ ____
ROOT
ATOM      1  N   UNL     1      -0.516  10.637  18.107  0.00  0.00    +0.000 NA
ATOM      2  C   UNL     1      -1.537   9.711  18.639  0.00  0.00    +0.000 C 
ATOM      3  C   UNL     1      -2.906   9.904  17.992  0.00  0.00    +0.000 C 
ATOM      4  C   UNL     1      -3.404  11.358  17.964  0.00  0.00    +0.000 C 
ATOM      5  C   UNL     1      -2.324  12.204  17.284  0.00  0.00    +0.000 C 
ATOM      6  C   UNL     1      -0.919  12.040  17.869  0.00  0.00    +0.000 C 
ENDROOT
BRANCH   4   7
ATOM      7  C   UNL     1      -3.754  11.890  19.362  0.00  0.00    +0.000 C 
ATOM      8  O   UNL     1      -2.834  12.336  20.053  0.00  0.00    +0.000 OA
ATOM      9  N   UNL     1      -5.085  11.901  19.778  0.00  0.00    +0.000 N 
ATOM     10  C   UNL     1      -5.506  12.533  20.983  0.00  0.00    +0.000 A 
ATOM     11  C   UNL     1      -4.795  13.378  21.828  0.00  0.00    +0.000 A 
ATOM     12  C   UNL     1      -5.432  13.914  22.951  0.00  0.00    +0.000 A 
ATOM     13  C   UNL     1      -6.774  13.611  23.219  0.00  0.00    +0.000 A 
ATOM     14  C   UNL     1      -7.479  12.750  22.387  0.00  0.00    +0.000 A 
ATOM     15  C   UNL     1      -6.822  12.215  21.291  0.00  0.00    +0.000 A 
ATOM     16  C   UNL     1      -7.381  11.218  20.327  0.00  0.00    +0.000 C 
ATOM     17  C   UNL     1      -6.249  11.095  19.272  0.00  0.00    +0.000 C 
ATOM     18  C   UNL     1      -6.802  11.525  17.913  0.00  0.00    +0.000 C 
ENDBRANCH   4   7
BRANCH   1  19
ATOM     19  S   UNL     1       1.061  10.416  18.762  0.00  0.00    +0.000 S 
ATOM     20  O   UNL     1       1.582  11.738  19.056  0.00  0.00    +0.000 OA
ATOM     21  O   UNL     1       1.796   9.521  17.896  0.00  0.00    +0.000 OA
BRANCH  19  27
ATOM     22  C   UNL     1      -0.232  11.393  21.805  0.00  0.00    +0.000 C 
ATOM     23  C   UNL     1       0.449  10.115  21.494  0.00  0.00    +0.000 A 
ATOM     24  N   UNL     1       0.565   9.213  22.473  0.00  0.00    +0.000 NA
ATOM     25  O   UNL     1       1.192   8.130  21.922  0.00  0.00    +0.000 OA
ATOM     26  C   UNL     1       1.481   8.340  20.589  0.00  0.00    +0.000 A 
ATOM     27  C   UNL     1       1.022   9.622  20.292  0.00  0.00    +0.000 A 
BRANCH  26  28
ATOM     28  C   UNL     1       2.116   7.336  19.794  0.00  0.00    +0.000 C 
ATOM     29  C   UNL     1       1.940   6.031  20.050  0.00  0.00    +0.000 C 
BRANCH  29  30
ATOM     30  C   UNL     1       2.576   5.051  19.238  0.00  0.00    +0.000 A 
ATOM     31  C   UNL     1       2.169   4.540  18.009  0.00  0.00    +0.000 A 
ATOM     32  C   UNL     1       3.131   3.591  17.591  0.00  0.00    +0.000 A 
ATOM     33  C   UNL     1       4.082   3.562  18.577  0.00  0.00    +0.000 A 
ATOM     34  O   UNL     1       3.760   4.426  19.568  0.00  0.00    +0.000 OA
ENDBRANCH  29  30
ENDBRANCH  26  28
ENDBRANCH  19  27
ENDBRANCH   1  19
TORSDOF 5
ENDMDL
MODEL 8
REMARK VINA RESULT:      -7.6      5.830      9.261
REMARK  Name = 
REMARK  7 active torsions:
REMARK  status: ('A' for Active; 'I' for Inactive)
REMARK    1  A    between atoms: C_1  and  C_2
REMARK    2  A    between atoms: C_5  and  C_6
REMARK    3  A    between atoms: C_7  and  C_8
REMARK    4  A    between atoms: C_13  and  S_14
REMARK    5  A    between atoms: S_14  and  N_17
REMARK    6  A    between atoms: C_20  and  C_21
REMARK    7  A    between atoms: C_31  and  C_32
REMARK                            x       y       z     vdW  Elec       q    Type
REMARK                         _______ _______ _______ _____ _____    ______ ____
ROOT
ATOM      1  N   UNL     1       2.129  14.113  19.406  0.00  0.00    +0.000 NA
ATOM      2  C   UNL     1       3.092  14.003  20.521  0.00  0.00    +0.000 C 
ATOM      3  C   UNL     1       3.910  15.275  20.724  0.00  0.00    +0.000 C 
ATOM      4  C   UNL     1       4.566  15.827  19.448  0.00  0.00    +0.000 C 
ATOM      5  C   UNL     1       3.461  16.017  18.406  0.00  0.00    +0.000 C 
ATOM      6  C   UNL     1       2.584  14.785  18.169  0.00  0.00    +0.000 C 
ENDROOT
BRANCH   4   7
ATOM      7  C   UNL     1       5.698  14.928  18.929  0.00  0.00    +0.000 C 
ATOM      8  O   UNL     1       5.509  14.322  17.871  0.00  0.00    +0.000 OA
ATOM      9  N   UNL     1       6.903  14.869  19.628  0.00  0.00    +0.000 N 
ATOM     10  C   UNL     1       8.052  14.199  19.121  0.00  0.00    +0.000 A 
ATOM     11  C   UNL     1       8.278  13.681  17.850  0.00  0.00    +0.000 A 
ATOM     12  C   UNL     1       9.511  13.087  17.565  0.00  0.00    +0.000 A 
ATOM     13  C   UNL     1      10.511  13.019  18.544  0.00  0.00    +0.000 A 
ATOM     14  C   UNL     1      10.278  13.517  19.822  0.00  0.00    +0.000 A 
ATOM     15  C   UNL     1       9.043  14.084  20.088  0.00  0.00    +0.000 A 
ATOM     16  C   UNL     1       8.576  14.603  21.410  0.00  0.00    +0.000 C 
ATOM     17  C   UNL     1       7.189  15.211  21.065  0.00  0.00    +0.000 C 
ATOM     18  C   UNL     1       7.220  16.704  21.389  0.00  0.00    +0.000 C 
ENDBRANCH   4   7
BRANCH   1  19
ATOM     19  S   UNL     1       1.138  12.724  19.176  0.00  0.00    +0.000 S 
ATOM     20  O   UNL     1       1.987  11.690  18.616  0.00  0.00    +0.000 OA
ATOM     21  O   UNL     1      -0.066  13.129  18.485  0.00  0.00    +0.000 OA
BRANCH  19  27
ATOM     22  C   UNL     1      -0.347  14.203  21.913  0.00  0.00    +0.000 C 
ATOM     23  C   UNL     1      -0.024  12.767  21.741  0.00  0.00    +0.000 A 
ATOM     24  N   UNL     1      -0.358  11.928  22.725  0.00  0.00    +0.000 NA
ATOM     25  O   UNL     1       0.016  10.681  22.306  0.00  0.00    +0.000 OA
ATOM     26  C   UNL     1       0.592  10.722  21.054  0.00  0.00    +0.000 A 
ATOM     27  C   UNL     1       0.590  12.063  20.672  0.00  0.00    +0.000 A 
BRANCH  26  28
ATOM     28  C   UNL     1       1.041   9.535  20.396  0.00  0.00    +0.000 C 
ATOM     29  C   UNL     1       1.352   8.430  21.091  0.00  0.00    +0.000 C 
BRANCH  29  30
ATOM     30  C   UNL     1       1.788   7.258  20.413  0.00  0.00    +0.000 A 
ATOM     31  C   UNL     1       1.620   5.926  20.781  0.00  0.00    +0.000 A 
ATOM     32  C   UNL     1       2.222   5.121  19.787  0.00  0.00    +0.000 A 
ATOM     33  C   UNL     1       2.730   5.989  18.856  0.00  0.00    +0.000 A 
ATOM     34  O   UNL     1       2.481   7.268  19.221  0.00  0.00    +0.000 OA
ENDBRANCH  29  30
ENDBRANCH  26  28
ENDBRANCH  19  27
ENDBRANCH   1  19
TORSDOF 5
ENDMDL
MODEL 9
REMARK VINA RESULT:      -7.5      3.981      9.002
REMARK  Name = 
REMARK  7 active torsions:
REMARK  status: ('A' for Active; 'I' for Inactive)
REMARK    1  A    between atoms: C_1  and  C_2
REMARK    2  A    between atoms: C_5  and  C_6
REMARK    3  A    between atoms: C_7  and  C_8
REMARK    4  A    between atoms: C_13  and  S_14
REMARK    5  A    between atoms: S_14  and  N_17
REMARK    6  A    between atoms: C_20  and  C_21
REMARK    7  A    between atoms: C_31  and  C_32
REMARK                            x       y       z     vdW  Elec       q    Type
REMARK                         _______ _______ _______ _____ _____    ______ ____
ROOT
ATOM      1  N   UNL     1      -0.123  10.425  20.982  0.00  0.00    +0.000 NA
ATOM      2  C   UNL     1      -0.739   9.289  20.266  0.00  0.00    +0.000 C 
ATOM      3  C   UNL     1      -0.391   7.939  20.888  0.00  0.00    +0.000 C 
ATOM      4  C   UNL     1       1.108   7.717  21.142  0.00  0.00    +0.000 C 
ATOM      5  C   UNL     1       1.612   8.886  21.993  0.00  0.00    +0.000 C 
ATOM      6  C   UNL     1       1.276  10.273  21.438  0.00  0.00    +0.000 C 
ENDROOT
BRANCH   4   7
ATOM      7  C   UNL     1       1.912   7.564  19.842  0.00  0.00    +0.000 C 
ATOM      8  O   UNL     1       2.193   8.591  19.218  0.00  0.00    +0.000 OA
ATOM      9  N   UNL     1       2.338   6.297  19.444  0.00  0.00    +0.000 N 
ATOM     10  C   UNL     1       3.228   6.096  18.350  0.00  0.00    +0.000 A 
ATOM     11  C   UNL     1       3.966   7.032  17.634  0.00  0.00    +0.000 A 
ATOM     12  C   UNL     1       4.811   6.595  16.610  0.00  0.00    +0.000 A 
ATOM     13  C   UNL     1       4.919   5.230  16.310  0.00  0.00    +0.000 A 
ATOM     14  C   UNL     1       4.164   4.296  17.011  0.00  0.00    +0.000 A 
ATOM     15  C   UNL     1       3.320   4.753  18.010  0.00  0.00    +0.000 A 
ATOM     16  C   UNL     1       2.378   3.920  18.819  0.00  0.00    +0.000 C 
ATOM     17  C   UNL     1       1.806   4.946  19.834  0.00  0.00    +0.000 C 
ATOM     18  C   UNL     1       2.164   4.484  21.246  0.00  0.00    +0.000 C 
ENDBRANCH   4   7
BRANCH   1  19
ATOM     19  S   UNL     1      -0.536  11.975  20.355  0.00  0.00    +0.000 S 
ATOM     20  O   UNL     1      -1.973  11.978  20.155  0.00  0.00    +0.000 OA
ATOM     21  O   UNL     1       0.352  12.276  19.253  0.00  0.00    +0.000 OA
BRANCH  19  27
ATOM     22  C   UNL     1      -2.043  12.672  23.376  0.00  0.00    +0.000 C 
ATOM     23  C   UNL     1      -0.939  13.425  22.735  0.00  0.00    +0.000 A 
ATOM     24  N   UNL     1      -0.437  14.476  23.388  0.00  0.00    +0.000 NA
ATOM     25  O   UNL     1       0.574  14.964  22.605  0.00  0.00    +0.000 OA
ATOM     26  C   UNL     1       0.715  14.226  21.448  0.00  0.00    +0.000 A 
ATOM     27  C   UNL     1      -0.262  13.233  21.502  0.00  0.00    +0.000 A 
BRANCH  26  28
ATOM     28  C   UNL     1       1.724  14.533  20.483  0.00  0.00    +0.000 C 
ATOM     29  C   UNL     1       3.022  14.308  20.738  0.00  0.00    +0.000 C 
BRANCH  29  30
ATOM     30  C   UNL     1       4.006  14.614  19.758  0.00  0.00    +0.000 A 
ATOM     31  C   UNL     1       3.862  14.700  18.376  0.00  0.00    +0.000 A 
ATOM     32  C   UNL     1       5.122  15.035  17.827  0.00  0.00    +0.000 A 
ATOM     33  C   UNL     1       5.979  15.140  18.891  0.00  0.00    +0.000 A 
ATOM     34  O   UNL     1       5.327  14.886  20.049  0.00  0.00    +0.000 OA
ENDBRANCH  29  30
ENDBRANCH  26  28
ENDBRANCH  19  27
ENDBRANCH   1  19
TORSDOF 5
ENDMDL
