MODEL 1
REMARK VINA RESULT:      -8.5      0.000      0.000
REMARK  Name = 
REMARK  8 active torsions:
REMARK  status: ('A' for Active; 'I' for Inactive)
REMARK    1  A    between atoms: C_2  and  O_3
REMARK    2  A    between atoms: C_2  and  C_4
REMARK    3  A    between atoms: C_4  and  C_5
REMARK    4  A    between atoms: C_13  and  O_14
REMARK    5  A    between atoms: O_14  and  C_15
REMARK    6  A    between atoms: C_15  and  C_16
REMARK    7  A    between atoms: C_19  and  C_20
REMARK    8  A    between atoms: C_25  and  C_26
REMARK                            x       y       z     vdW  Elec       q    Type
REMARK                         _______ _______ _______ _____ _____    ______ ____
ROOT
ATOM      1  C   UNL     1       5.979   5.527  16.501  0.00  0.00    +0.000 C 
ATOM      2  C   UNL     1       6.341   4.191  17.223  0.00  0.00    +0.000 C 
ATOM      3  C   UNL     1       5.181   3.843  18.168  0.00  0.00    +0.000 C 
ATOM      4  N   UNL     1       4.441   5.084  18.235  0.00  0.00    +0.000 N 
ATOM      5  C   UNL     1       4.847   6.015  17.328  0.00  0.00    +0.000 A 
ATOM      6  C   UNL     1       4.074   7.132  17.497  0.00  0.00    +0.000 A 
ATOM      7  C   UNL     1       3.193   6.842  18.587  0.00  0.00    +0.000 A 
ATOM      8  C   UNL     1       2.211   7.599  19.243  0.00  0.00    +0.000 A 
ATOM      9  C   UNL     1       1.568   7.071  20.368  0.00  0.00    +0.000 A 
ATOM     10  C   UNL     1       1.823   5.760  20.780  0.00  0.00    +0.000 A 
ATOM     11  C   UNL     1       2.771   4.968  20.120  0.00  0.00    +0.000 A 
ATOM     12  C   UNL     1       3.455   5.544  19.041  0.00  0.00    +0.000 A 
ENDROOT
BRANCH   1  13
ATOM     13  C   UNL     1       5.575   5.360  15.036  0.00  0.00    +0.000 C 
BRANCH  13  15
ATOM     14  O   UNL     1       7.744   5.382  13.939  0.00  0.00    +0.000 OA
ATOM     15  C   UNL     1       6.701   4.803  14.198  0.00  0.00    +0.000 C 
BRANCH  15  16
ATOM     16  O   UNL     1       6.442   3.553  13.750  0.00  0.00    +0.000 OA
ATOM     17  H   UNL     1       5.989   3.525  12.887  0.00  0.00    +0.000 HD
ENDBRANCH  15  16
ENDBRANCH  13  15
ENDBRANCH   1  13
BRANCH   9  18
ATOM     18  O   UNL     1       0.683   7.781  21.139  0.00  0.00    +0.000 OA
BRANCH  18  19
ATOM     19  C   UNL     1       1.253   8.942  21.746  0.00  0.00    +0.000 C 
BRANCH  19  20
ATOM     20  C   UNL     1       0.195   9.995  21.911  0.00  0.00    +0.000 A 
ATOM     21  C   UNL     1      -0.452  10.175  23.126  0.00  0.00    +0.000 A 
ATOM     22  C   UNL     1      -1.459  11.130  23.239  0.00  0.00    +0.000 A 
ATOM     23  C   UNL     1      -1.870  11.929  22.144  0.00  0.00    +0.000 A 
ATOM     24  C   UNL     1      -1.239  11.724  20.896  0.00  0.00    +0.000 A 
ATOM     25  C   UNL     1      -0.205  10.765  20.812  0.00  0.00    +0.000 A 
BRANCH  23  26
ATOM     26  C   UNL     1      -2.958  12.954  22.391  0.00  0.00    +0.000 C 
ATOM     27  C   UNL     1      -3.854  12.642  23.592  0.00  0.00    +0.000 C 
ATOM     28  C   UNL     1      -4.522  13.973  23.911  0.00  0.00    +0.000 C 
ATOM     29  C   UNL     1      -3.556  15.061  23.446  0.00  0.00    +0.000 C 
ATOM     30  C   UNL     1      -2.428  14.361  22.695  0.00  0.00    +0.000 C 
ENDBRANCH  23  26
BRANCH  24  31
ATOM     31  C   UNL     1      -1.555  12.418  19.583  0.00  0.00    +0.000 C 
ATOM     32  F   UNL     1      -0.926  11.953  18.474  0.00  0.00    +0.000 F 
ATOM     33  F   UNL     1      -2.888  12.371  19.288  0.00  0.00    +0.000 F 
ATOM     34  F   UNL     1      -1.245  13.747  19.633  0.00  0.00    +0.000 F 
ENDBRANCH  24  31
ENDBRANCH  19  20
ENDBRANCH  18  19
ENDBRANCH   9  18
TORSDOF 8
ENDMDL
MODEL 2
REMARK VINA RESULT:      -8.4      1.000      1.309
REMARK  Name = 
REMARK  8 active torsions:
REMARK  status: ('A' for Active; 'I' for Inactive)
REMARK    1  A    between atoms: C_2  and  O_3
REMARK    2  A    between atoms: C_2  and  C_4
REMARK    3  A    between atoms: C_4  and  C_5
REMARK    4  A    between atoms: C_13  and  O_14
REMARK    5  A    between atoms: O_14  and  C_15
REMARK    6  A    between atoms: C_15  and  C_16
REMARK    7  A    between atoms: C_19  and  C_20
REMARK    8  A    between atoms: C_25  and  C_26
REMARK                            x       y       z     vdW  Elec       q    Type
REMARK                         _______ _______ _______ _____ _____    ______ ____
ROOT
ATOM      1  C   UNL     1       6.688   5.544  15.766  0.00  0.00    +0.000 C 
ATOM      2  C   UNL     1       7.298   4.541  16.796  0.00  0.00    +0.000 C 
ATOM      3  C   UNL     1       6.236   4.281  17.877  0.00  0.00    +0.000 C 
ATOM      4  N   UNL     1       5.288   5.351  17.655  0.00  0.00    +0.000 N 
ATOM      5  C   UNL     1       5.504   6.046  16.505  0.00  0.00    +0.000 A 
ATOM      6  C   UNL     1       4.547   7.022  16.417  0.00  0.00    +0.000 A 
ATOM      7  C   UNL     1       3.752   6.904  17.602  0.00  0.00    +0.000 A 
ATOM      8  C   UNL     1       2.663   7.639  18.094  0.00  0.00    +0.000 A 
ATOM      9  C   UNL     1       2.146   7.345  19.361  0.00  0.00    +0.000 A 
ATOM     10  C   UNL     1       2.640   6.262  20.093  0.00  0.00    +0.000 A 
ATOM     11  C   UNL     1       3.701   5.488  19.610  0.00  0.00    +0.000 A 
ATOM     12  C   UNL     1       4.251   5.846  18.372  0.00  0.00    +0.000 A 
ENDROOT
BRANCH   1  13
ATOM     13  C   UNL     1       6.294   4.911  14.431  0.00  0.00    +0.000 C 
BRANCH  13  15
ATOM     14  O   UNL     1       8.360   5.777  13.490  0.00  0.00    +0.000 OA
ATOM     15  C   UNL     1       7.379   5.058  13.392  0.00  0.00    +0.000 C 
BRANCH  15  16
ATOM     16  O   UNL     1       7.161   4.283  12.304  0.00  0.00    +0.000 OA
ATOM     17  H   UNL     1       7.578   4.617  11.488  0.00  0.00    +0.000 HD
ENDBRANCH  15  16
ENDBRANCH  13  15
ENDBRANCH   1  13
BRANCH   9  18
ATOM     18  O   UNL     1       1.163   8.084  19.968  0.00  0.00    +0.000 OA
BRANCH  18  19
ATOM     19  C   UNL     1       1.520   8.556  21.269  0.00  0.00    +0.000 C 
BRANCH  19  20
ATOM     20  C   UNL     1       0.597   9.669  21.671  0.00  0.00    +0.000 A 
ATOM     21  C   UNL     1      -0.171   9.582  22.825  0.00  0.00    +0.000 A 
ATOM     22  C   UNL     1      -1.049  10.611  23.150  0.00  0.00    +0.000 A 
ATOM     23  C   UNL     1      -1.209  11.757  22.333  0.00  0.00    +0.000 A 
ATOM     24  C   UNL     1      -0.457  11.834  21.139  0.00  0.00    +0.000 A 
ATOM     25  C   UNL     1       0.445  10.788  20.841  0.00  0.00    +0.000 A 
BRANCH  23  26
ATOM     26  C   UNL     1      -2.176  12.826  22.801  0.00  0.00    +0.000 C 
ATOM     27  C   UNL     1      -3.323  12.299  23.667  0.00  0.00    +0.000 C 
ATOM     28  C   UNL     1      -3.856  13.540  24.371  0.00  0.00    +0.000 C 
ATOM     29  C   UNL     1      -2.680  14.507  24.483  0.00  0.00    +0.000 C 
ATOM     30  C   UNL     1      -1.531  13.904  23.680  0.00  0.00    +0.000 C 
ENDBRANCH  23  26
BRANCH  24  31
ATOM     31  C   UNL     1      -0.510  12.930  20.090  0.00  0.00    +0.000 C 
ATOM     32  F   UNL     1      -1.732  13.440  19.793  0.00  0.00    +0.000 F 
ATOM     33  F   UNL     1       0.256  14.006  20.437  0.00  0.00    +0.000 F 
ATOM     34  F   UNL     1      -0.006  12.502  18.894  0.00  0.00    +0.000 F 
ENDBRANCH  24  31
ENDBRANCH  19  20
ENDBRANCH  18  19
ENDBRANCH   9  18
TORSDOF 8
ENDMDL
MODEL 3
REMARK VINA RESULT:      -8.4      7.424      9.164
REMARK  Name = 
REMARK  8 active torsions:
REMARK  status: ('A' for Active; 'I' for Inactive)
REMARK    1  A    between atoms: C_2  and  O_3
REMARK    2  A    between atoms: C_2  and  C_4
REMARK    3  A    between atoms: C_4  and  C_5
REMARK    4  A    between atoms: C_13  and  O_14
REMARK    5  A    between atoms: O_14  and  C_15
REMARK    6  A    between atoms: C_15  and  C_16
REMARK    7  A    between atoms: C_19  and  C_20
REMARK    8  A    between atoms: C_25  and  C_26
REMARK                            x       y       z     vdW  Elec       q    Type
REMARK                         _______ _______ _______ _____ _____    ______ ____
ROOT
ATOM      1  C   UNL     1       2.967   3.222  17.624  0.00  0.00    +0.000 C 
ATOM      2  C   UNL     1       3.559   2.194  18.640  0.00  0.00    +0.000 C 
ATOM      3  C   UNL     1       4.659   2.911  19.439  0.00  0.00    +0.000 C 
ATOM      4  N   UNL     1       4.901   4.101  18.652  0.00  0.00    +0.000 N 
ATOM      5  C   UNL     1       3.985   4.301  17.665  0.00  0.00    +0.000 A 
ATOM      6  C   UNL     1       4.326   5.449  17.002  0.00  0.00    +0.000 A 
ATOM      7  C   UNL     1       5.527   5.921  17.621  0.00  0.00    +0.000 A 
ATOM      8  C   UNL     1       6.365   7.016  17.359  0.00  0.00    +0.000 A 
ATOM      9  C   UNL     1       7.552   7.167  18.085  0.00  0.00    +0.000 A 
ATOM     10  C   UNL     1       7.856   6.296  19.134  0.00  0.00    +0.000 A 
ATOM     11  C   UNL     1       7.019   5.217  19.443  0.00  0.00    +0.000 A 
ATOM     12  C   UNL     1       5.873   5.043  18.655  0.00  0.00    +0.000 A 
ENDROOT
BRANCH   1  13
ATOM     13  C   UNL     1       1.578   3.742  17.995  0.00  0.00    +0.000 C 
BRANCH  13  15
ATOM     14  O   UNL     1       0.766   2.971  20.151  0.00  0.00    +0.000 OA
ATOM     15  C   UNL     1       0.860   2.814  18.945  0.00  0.00    +0.000 C 
BRANCH  15  16
ATOM     16  O   UNL     1       0.301   1.757  18.312  0.00  0.00    +0.000 OA
ATOM     17  H   UNL     1      -0.628   1.591  18.559  0.00  0.00    +0.000 HD
ENDBRANCH  15  16
ENDBRANCH  13  15
ENDBRANCH   1  13
BRANCH   9  18
ATOM     18  O   UNL     1       8.484   8.136  17.818  0.00  0.00    +0.000 OA
BRANCH  18  19
ATOM     19  C   UNL     1       7.917   9.414  17.521  0.00  0.00    +0.000 C 
BRANCH  19  20
ATOM     20  C   UNL     1       8.644  10.479  18.288  0.00  0.00    +0.000 A 
ATOM     21  C   UNL     1       9.426  10.160  19.391  0.00  0.00    +0.000 A 
ATOM     22  C   UNL     1      10.055  11.173  20.109  0.00  0.00    +0.000 A 
ATOM     23  C   UNL     1       9.917  12.541  19.769  0.00  0.00    +0.000 A 
ATOM     24  C   UNL     1       9.092  12.873  18.670  0.00  0.00    +0.000 A 
ATOM     25  C   UNL     1       8.483  11.827  17.942  0.00  0.00    +0.000 A 
BRANCH  23  26
ATOM     26  C   UNL     1      10.669  13.554  20.607  0.00  0.00    +0.000 C 
ATOM     27  C   UNL     1      11.476  14.567  19.791  0.00  0.00    +0.000 C 
ATOM     28  C   UNL     1      11.739  15.705  20.769  0.00  0.00    +0.000 C 
ATOM     29  C   UNL     1      10.582  15.689  21.766  0.00  0.00    +0.000 C 
ATOM     30  C   UNL     1       9.763  14.435  21.476  0.00  0.00    +0.000 C 
ENDBRANCH  23  26
BRANCH  24  31
ATOM     31  C   UNL     1       8.754  14.265  18.164  0.00  0.00    +0.000 C 
ATOM     32  F   UNL     1       8.403  15.189  19.094  0.00  0.00    +0.000 F 
ATOM     33  F   UNL     1       9.791  14.823  17.473  0.00  0.00    +0.000 F 
ATOM     34  F   UNL     1       7.710  14.236  17.284  0.00  0.00    +0.000 F 
ENDBRANCH  24  31
ENDBRANCH  19  20
ENDBRANCH  18  19
ENDBRANCH   9  18
TORSDOF 8
ENDMDL
MODEL 4
REMARK VINA RESULT:      -8.3      6.970      9.288
REMARK  Name = 
REMARK  8 active torsions:
REMARK  status: ('A' for Active; 'I' for Inactive)
REMARK    1  A    between atoms: C_2  and  O_3
REMARK    2  A    between atoms: C_2  and  C_4
REMARK    3  A    between atoms: C_4  and  C_5
REMARK    4  A    between atoms: C_13  and  O_14
REMARK    5  A    between atoms: O_14  and  C_15
REMARK    6  A    between atoms: C_15  and  C_16
REMARK    7  A    between atoms: C_19  and  C_20
REMARK    8  A    between atoms: C_25  and  C_26
REMARK                            x       y       z     vdW  Elec       q    Type
REMARK                         _______ _______ _______ _____ _____    ______ ____
ROOT
ATOM      1  C   UNL     1       2.184   3.201  18.458  0.00  0.00    +0.000 C 
ATOM      2  C   UNL     1       3.084   2.082  19.071  0.00  0.00    +0.000 C 
ATOM      3  C   UNL     1       4.405   2.735  19.510  0.00  0.00    +0.000 C 
ATOM      4  N   UNL     1       4.367   4.014  18.834  0.00  0.00    +0.000 N 
ATOM      5  C   UNL     1       3.164   4.298  18.264  0.00  0.00    +0.000 A 
ATOM      6  C   UNL     1       3.263   5.524  17.663  0.00  0.00    +0.000 A 
ATOM      7  C   UNL     1       4.611   5.958  17.869  0.00  0.00    +0.000 A 
ATOM      8  C   UNL     1       5.316   7.100  17.460  0.00  0.00    +0.000 A 
ATOM      9  C   UNL     1       6.684   7.203  17.733  0.00  0.00    +0.000 A 
ATOM     10  C   UNL     1       7.329   6.227  18.497  0.00  0.00    +0.000 A 
ATOM     11  C   UNL     1       6.642   5.096  18.952  0.00  0.00    +0.000 A 
ATOM     12  C   UNL     1       5.289   4.978  18.604  0.00  0.00    +0.000 A 
ENDROOT
BRANCH   1  13
ATOM     13  C   UNL     1       1.023   3.633  19.353  0.00  0.00    +0.000 C 
BRANCH  13  15
ATOM     14  O   UNL     1       1.588   5.638  20.605  0.00  0.00    +0.000 OA
ATOM     15  C   UNL     1       1.493   4.422  20.551  0.00  0.00    +0.000 C 
BRANCH  15  16
ATOM     16  O   UNL     1       1.803   3.630  21.603  0.00  0.00    +0.000 OA
ATOM     17  H   UNL     1       2.364   2.866  21.374  0.00  0.00    +0.000 HD
ENDBRANCH  15  16
ENDBRANCH  13  15
ENDBRANCH   1  13
BRANCH   9  18
ATOM     18  O   UNL     1       7.475   8.224  17.270  0.00  0.00    +0.000 OA
BRANCH  18  19
ATOM     19  C   UNL     1       8.574   8.533  18.129  0.00  0.00    +0.000 C 
BRANCH  19  20
ATOM     20  C   UNL     1       8.686  10.022  18.287  0.00  0.00    +0.000 A 
ATOM     21  C   UNL     1       7.898  10.883  17.536  0.00  0.00    +0.000 A 
ATOM     22  C   UNL     1       8.053  12.260  17.672  0.00  0.00    +0.000 A 
ATOM     23  C   UNL     1       9.008  12.831  18.548  0.00  0.00    +0.000 A 
ATOM     24  C   UNL     1       9.838  11.958  19.288  0.00  0.00    +0.000 A 
ATOM     25  C   UNL     1       9.647  10.565  19.150  0.00  0.00    +0.000 A 
BRANCH  23  26
ATOM     26  C   UNL     1       9.070  14.342  18.634  0.00  0.00    +0.000 C 
ATOM     27  C   UNL     1      10.035  14.988  17.637  0.00  0.00    +0.000 C 
ATOM     28  C   UNL     1       9.595  16.445  17.586  0.00  0.00    +0.000 C 
ATOM     29  C   UNL     1       8.104  16.454  17.917  0.00  0.00    +0.000 C 
ATOM     30  C   UNL     1       7.734  15.035  18.341  0.00  0.00    +0.000 C 
ENDBRANCH  23  26
BRANCH  24  31
ATOM     31  C   UNL     1      10.961  12.343  20.236  0.00  0.00    +0.000 C 
ATOM     32  F   UNL     1      11.864  13.249  19.783  0.00  0.00    +0.000 F 
ATOM     33  F   UNL     1      10.487  12.860  21.407  0.00  0.00    +0.000 F 
ATOM     34  F   UNL     1      11.704  11.255  20.598  0.00  0.00    +0.000 F 
ENDBRANCH  24  31
ENDBRANCH  19  20
ENDBRANCH  18  19
ENDBRANCH   9  18
TORSDOF 8
ENDMDL
MODEL 5
REMARK VINA RESULT:      -8.3      2.948      3.819
REMARK  Name = 
REMARK  8 active torsions:
REMARK  status: ('A' for Active; 'I' for Inactive)
REMARK    1  A    between atoms: C_2  and  O_3
REMARK    2  A    between atoms: C_2  and  C_4
REMARK    3  A    between atoms: C_4  and  C_5
REMARK    4  A    between atoms: C_13  and  O_14
REMARK    5  A    between atoms: O_14  and  C_15
REMARK    6  A    between atoms: C_15  and  C_16
REMARK    7  A    between atoms: C_19  and  C_20
REMARK    8  A    between atoms: C_25  and  C_26
REMARK                            x       y       z     vdW  Elec       q    Type
REMARK                         _______ _______ _______ _____ _____    ______ ____
ROOT
ATOM      1  C   UNL     1       4.193   4.892  18.122  0.00  0.00    +0.000 C 
ATOM      2  C   UNL     1       4.073   4.185  19.509  0.00  0.00    +0.000 C 
ATOM      3  C   UNL     1       2.933   4.867  20.282  0.00  0.00    +0.000 C 
ATOM      4  N   UNL     1       2.722   6.085  19.530  0.00  0.00    +0.000 N 
ATOM      5  C   UNL     1       3.386   6.118  18.342  0.00  0.00    +0.000 A 
ATOM      6  C   UNL     1       3.104   7.313  17.736  0.00  0.00    +0.000 A 
ATOM      7  C   UNL     1       2.255   8.025  18.642  0.00  0.00    +0.000 A 
ATOM      8  C   UNL     1       1.677   9.302  18.598  0.00  0.00    +0.000 A 
ATOM      9  C   UNL     1       0.959   9.775  19.703  0.00  0.00    +0.000 A 
ATOM     10  C   UNL     1       0.729   8.947  20.805  0.00  0.00    +0.000 A 
ATOM     11  C   UNL     1       1.262   7.653  20.859  0.00  0.00    +0.000 A 
ATOM     12  C   UNL     1       2.038   7.228  19.772  0.00  0.00    +0.000 A 
ENDROOT
BRANCH   1  13
ATOM     13  C   UNL     1       3.659   4.069  16.949  0.00  0.00    +0.000 C 
BRANCH  13  15
ATOM     14  O   UNL     1       2.655   1.989  17.704  0.00  0.00    +0.000 OA
ATOM     15  C   UNL     1       2.532   3.155  17.365  0.00  0.00    +0.000 C 
BRANCH  15  16
ATOM     16  O   UNL     1       1.328   3.771  17.335  0.00  0.00    +0.000 OA
ATOM     17  H   UNL     1       1.377   4.733  17.185  0.00  0.00    +0.000 HD
ENDBRANCH  15  16
ENDBRANCH  13  15
ENDBRANCH   1  13
BRANCH   9  18
ATOM     18  O   UNL     1       0.461  11.049  19.795  0.00  0.00    +0.000 OA
BRANCH  18  19
ATOM     19  C   UNL     1      -0.232  11.481  18.622  0.00  0.00    +0.000 C 
BRANCH  19  20
ATOM     20  C   UNL     1      -1.641  11.857  18.979  0.00  0.00    +0.000 A 
ATOM     21  C   UNL     1      -1.950  12.367  20.233  0.00  0.00    +0.000 A 
ATOM     22  C   UNL     1      -3.271  12.667  20.552  0.00  0.00    +0.000 A 
ATOM     23  C   UNL     1      -4.336  12.455  19.642  0.00  0.00    +0.000 A 
ATOM     24  C   UNL     1      -4.032  11.901  18.378  0.00  0.00    +0.000 A 
ATOM     25  C   UNL     1      -2.681  11.626  18.069  0.00  0.00    +0.000 A 
BRANCH  23  26
ATOM     26  C   UNL     1      -5.731  12.843  20.089  0.00  0.00    +0.000 C 
ATOM     27  C   UNL     1      -6.516  11.707  20.750  0.00  0.00    +0.000 C 
ATOM     28  C   UNL     1      -7.634  12.418  21.501  0.00  0.00    +0.000 C 
ATOM     29  C   UNL     1      -7.101  13.805  21.851  0.00  0.00    +0.000 C 
ATOM     30  C   UNL     1      -5.758  13.957  21.142  0.00  0.00    +0.000 C 
ENDBRANCH  23  26
BRANCH  24  31
ATOM     31  C   UNL     1      -5.011  11.536  17.276  0.00  0.00    +0.000 C 
ATOM     32  F   UNL     1      -4.503  10.909  16.185  0.00  0.00    +0.000 F 
ATOM     33  F   UNL     1      -6.009  10.722  17.729  0.00  0.00    +0.000 F 
ATOM     34  F   UNL     1      -5.645  12.642  16.785  0.00  0.00    +0.000 F 
ENDBRANCH  24  31
ENDBRANCH  19  20
ENDBRANCH  18  19
ENDBRANCH   9  18
TORSDOF 8
ENDMDL
MODEL 6
REMARK VINA RESULT:      -8.3      2.882      5.020
REMARK  Name = 
REMARK  8 active torsions:
REMARK  status: ('A' for Active; 'I' for Inactive)
REMARK    1  A    between atoms: C_2  and  O_3
REMARK    2  A    between atoms: C_2  and  C_4
REMARK    3  A    between atoms: C_4  and  C_5
REMARK    4  A    between atoms: C_13  and  O_14
REMARK    5  A    between atoms: O_14  and  C_15
REMARK    6  A    between atoms: C_15  and  C_16
REMARK    7  A    between atoms: C_19  and  C_20
REMARK    8  A    between atoms: C_25  and  C_26
REMARK                            x       y       z     vdW  Elec       q    Type
REMARK                         _______ _______ _______ _____ _____    ______ ____
ROOT
ATOM      1  C   UNL     1       6.598   4.067  12.212  0.00  0.00    +0.000 C 
ATOM      2  C   UNL     1       7.675   5.188  12.069  0.00  0.00    +0.000 C 
ATOM      3  C   UNL     1       8.121   5.588  13.485  0.00  0.00    +0.000 C 
ATOM      4  N   UNL     1       7.090   5.008  14.319  0.00  0.00    +0.000 N 
ATOM      5  C   UNL     1       6.255   4.164  13.652  0.00  0.00    +0.000 A 
ATOM      6  C   UNL     1       5.335   3.690  14.548  0.00  0.00    +0.000 A 
ATOM      7  C   UNL     1       5.636   4.321  15.797  0.00  0.00    +0.000 A 
ATOM      8  C   UNL     1       5.029   4.267  17.060  0.00  0.00    +0.000 A 
ATOM      9  C   UNL     1       5.498   5.094  18.088  0.00  0.00    +0.000 A 
ATOM     10  C   UNL     1       6.627   5.894  17.894  0.00  0.00    +0.000 A 
ATOM     11  C   UNL     1       7.276   5.938  16.655  0.00  0.00    +0.000 A 
ATOM     12  C   UNL     1       6.745   5.158  15.619  0.00  0.00    +0.000 A 
ENDROOT
BRANCH   1  13
ATOM     13  C   UNL     1       7.094   2.669  11.844  0.00  0.00    +0.000 C 
BRANCH  13  15
ATOM     14  O   UNL     1       4.811   2.105  11.230  0.00  0.00    +0.000 OA
ATOM     15  C   UNL     1       5.965   1.758  11.425  0.00  0.00    +0.000 C 
BRANCH  15  16
ATOM     16  O   UNL     1       6.365   0.475  11.272  0.00  0.00    +0.000 OA
ATOM     17  H   UNL     1       7.024   0.182  11.929  0.00  0.00    +0.000 HD
ENDBRANCH  15  16
ENDBRANCH  13  15
ENDBRANCH   1  13
BRANCH   9  18
ATOM     18  O   UNL     1       4.894   5.193  19.315  0.00  0.00    +0.000 OA
BRANCH  18  19
ATOM     19  C   UNL     1       3.512   4.830  19.307  0.00  0.00    +0.000 C 
BRANCH  19  20
ATOM     20  C   UNL     1       2.679   6.013  19.706  0.00  0.00    +0.000 A 
ATOM     21  C   UNL     1       1.971   6.021  20.901  0.00  0.00    +0.000 A 
ATOM     22  C   UNL     1       1.173   7.114  21.225  0.00  0.00    +0.000 A 
ATOM     23  C   UNL     1       1.035   8.232  20.367  0.00  0.00    +0.000 A 
ATOM     24  C   UNL     1       1.724   8.213  19.133  0.00  0.00    +0.000 A 
ATOM     25  C   UNL     1       2.546   7.103  18.836  0.00  0.00    +0.000 A 
BRANCH  23  26
ATOM     26  C   UNL     1       0.160   9.376  20.836  0.00  0.00    +0.000 C 
ATOM     27  C   UNL     1      -0.493   9.147  22.202  0.00  0.00    +0.000 C 
ATOM     28  C   UNL     1      -0.910  10.542  22.651  0.00  0.00    +0.000 C 
ATOM     29  C   UNL     1       0.063  11.514  21.988  0.00  0.00    +0.000 C 
ATOM     30  C   UNL     1       0.912  10.700  21.016  0.00  0.00    +0.000 C 
ENDBRANCH  23  26
BRANCH  24  31
ATOM     31  C   UNL     1       1.678   9.266  18.040  0.00  0.00    +0.000 C 
ATOM     32  F   UNL     1       2.166  10.495  18.347  0.00  0.00    +0.000 F 
ATOM     33  F   UNL     1       2.363   8.875  16.925  0.00  0.00    +0.000 F 
ATOM     34  F   UNL     1       0.400   9.491  17.615  0.00  0.00    +0.000 F 
ENDBRANCH  24  31
ENDBRANCH  19  20
ENDBRANCH  18  19
ENDBRANCH   9  18
TORSDOF 8
ENDMDL
MODEL 7
REMARK VINA RESULT:      -8.3      3.391      4.575
REMARK  Name = 
REMARK  8 active torsions:
REMARK  status: ('A' for Active; 'I' for Inactive)
REMARK    1  A    between atoms: C_2  and  O_3
REMARK    2  A    between atoms: C_2  and  C_4
REMARK    3  A    between atoms: C_4  and  C_5
REMARK    4  A    between atoms: C_13  and  O_14
REMARK    5  A    between atoms: O_14  and  C_15
REMARK    6  A    between atoms: C_15  and  C_16
REMARK    7  A    between atoms: C_19  and  C_20
REMARK    8  A    between atoms: C_25  and  C_26
REMARK                            x       y       z     vdW  Elec       q    Type
REMARK                         _______ _______ _______ _____ _____    ______ ____
ROOT
ATOM      1  C   UNL     1       2.912   4.981  18.674  0.00  0.00    +0.000 C 
ATOM      2  C   UNL     1       2.931   4.426  20.133  0.00  0.00    +0.000 C 
ATOM      3  C   UNL     1       2.125   5.398  21.011  0.00  0.00    +0.000 C 
ATOM      4  N   UNL     1       2.017   6.570  20.170  0.00  0.00    +0.000 N 
ATOM      5  C   UNL     1       2.426   6.366  18.888  0.00  0.00    +0.000 A 
ATOM      6  C   UNL     1       2.274   7.544  18.206  0.00  0.00    +0.000 A 
ATOM      7  C   UNL     1       1.779   8.491  19.158  0.00  0.00    +0.000 A 
ATOM      8  C   UNL     1       1.470   9.857  19.068  0.00  0.00    +0.000 A 
ATOM      9  C   UNL     1       1.094  10.558  20.219  0.00  0.00    +0.000 A 
ATOM     10  C   UNL     1       0.926   9.887  21.433  0.00  0.00    +0.000 A 
ATOM     11  C   UNL     1       1.190   8.517  21.544  0.00  0.00    +0.000 A 
ATOM     12  C   UNL     1       1.635   7.850  20.394  0.00  0.00    +0.000 A 
ENDROOT
BRANCH   1  13
ATOM     13  C   UNL     1       2.004   4.206  17.719  0.00  0.00    +0.000 C 
BRANCH  13  15
ATOM     14  O   UNL     1       2.523   1.855  18.049  0.00  0.00    +0.000 OA
ATOM     15  C   UNL     1       1.756   2.794  18.192  0.00  0.00    +0.000 C 
BRANCH  15  16
ATOM     16  O   UNL     1       0.566   2.661  18.822  0.00  0.00    +0.000 OA
ATOM     17  H   UNL     1       0.579   2.033  19.567  0.00  0.00    +0.000 HD
ENDBRANCH  15  16
ENDBRANCH  13  15
ENDBRANCH   1  13
BRANCH   9  18
ATOM     18  O   UNL     1       0.888  11.913  20.248  0.00  0.00    +0.000 OA
BRANCH  18  19
ATOM     19  C   UNL     1       0.401  12.447  19.014  0.00  0.00    +0.000 C 
BRANCH  19  20
ATOM     20  C   UNL     1      -1.092  12.309  18.960  0.00  0.00    +0.000 A 
ATOM     21  C   UNL     1      -1.898  12.848  19.955  0.00  0.00    +0.000 A 
ATOM     22  C   UNL     1      -3.277  12.669  19.901  0.00  0.00    +0.000 A 
ATOM     23  C   UNL     1      -3.905  11.933  18.867  0.00  0.00    +0.000 A 
ATOM     24  C   UNL     1      -3.087  11.351  17.872  0.00  0.00    +0.000 A 
ATOM     25  C   UNL     1      -1.692  11.566  17.935  0.00  0.00    +0.000 A 
BRANCH  23  26
ATOM     26  C   UNL     1      -5.416  11.825  18.897  0.00  0.00    +0.000 C 
ATOM     27  C   UNL     1      -6.033  12.047  20.280  0.00  0.00    +0.000 C 
ATOM     28  C   UNL     1      -7.497  12.349  19.988  0.00  0.00    +0.000 C 
ATOM     29  C   UNL     1      -7.536  12.975  18.596  0.00  0.00    +0.000 C 
ATOM     30  C   UNL     1      -6.129  12.858  18.016  0.00  0.00    +0.000 C 
ENDBRANCH  23  26
BRANCH  24  31
ATOM     31  C   UNL     1      -3.532  10.479  16.711  0.00  0.00    +0.000 C 
ATOM     32  F   UNL     1      -4.724  10.780  16.137  0.00  0.00    +0.000 F 
ATOM     33  F   UNL     1      -2.627  10.488  15.689  0.00  0.00    +0.000 F 
ATOM     34  F   UNL     1      -3.640   9.169  17.083  0.00  0.00    +0.000 F 
ENDBRANCH  24  31
ENDBRANCH  19  20
ENDBRANCH  18  19
ENDBRANCH   9  18
TORSDOF 8
ENDMDL
MODEL 8
REMARK VINA RESULT:      -8.2      3.331      4.509
REMARK  Name = 
REMARK  8 active torsions:
REMARK  status: ('A' for Active; 'I' for Inactive)
REMARK    1  A    between atoms: C_2  and  O_3
REMARK    2  A    between atoms: C_2  and  C_4
REMARK    3  A    between atoms: C_4  and  C_5
REMARK    4  A    between atoms: C_13  and  O_14
REMARK    5  A    between atoms: O_14  and  C_15
REMARK    6  A    between atoms: C_15  and  C_16
REMARK    7  A    between atoms: C_19  and  C_20
REMARK    8  A    between atoms: C_25  and  C_26
REMARK                            x       y       z     vdW  Elec       q    Type
REMARK                         _______ _______ _______ _____ _____    ______ ____
ROOT
ATOM      1  C   UNL     1       3.043   4.550  18.859  0.00  0.00    +0.000 C 
ATOM      2  C   UNL     1       2.821   4.306  20.385  0.00  0.00    +0.000 C 
ATOM      3  C   UNL     1       1.967   5.465  20.923  0.00  0.00    +0.000 C 
ATOM      4  N   UNL     1       2.055   6.444  19.861  0.00  0.00    +0.000 N 
ATOM      5  C   UNL     1       2.624   5.966  18.720  0.00  0.00    +0.000 A 
ATOM      6  C   UNL     1       2.647   6.984  17.804  0.00  0.00    +0.000 A 
ATOM      7  C   UNL     1       2.088   8.124  18.465  0.00  0.00    +0.000 A 
ATOM      8  C   UNL     1       1.886   9.452  18.062  0.00  0.00    +0.000 A 
ATOM      9  C   UNL     1       1.400  10.388  18.983  0.00  0.00    +0.000 A 
ATOM     10  C   UNL     1       1.021   9.987  20.267  0.00  0.00    +0.000 A 
ATOM     11  C   UNL     1       1.176   8.659  20.683  0.00  0.00    +0.000 A 
ATOM     12  C   UNL     1       1.732   7.755  19.768  0.00  0.00    +0.000 A 
ENDROOT
BRANCH   1  13
ATOM     13  C   UNL     1       2.227   3.629  17.950  0.00  0.00    +0.000 C 
BRANCH  13  15
ATOM     14  O   UNL     1       3.630   1.646  17.912  0.00  0.00    +0.000 OA
ATOM     15  C   UNL     1       2.561   2.174  18.171  0.00  0.00    +0.000 C 
BRANCH  15  16
ATOM     16  O   UNL     1       1.530   1.483  18.710  0.00  0.00    +0.000 OA
ATOM     17  H   UNL     1       1.312   0.659  18.236  0.00  0.00    +0.000 HD
ENDBRANCH  15  16
ENDBRANCH  13  15
ENDBRANCH   1  13
BRANCH   9  18
ATOM     18  O   UNL     1       1.282  11.727  18.712  0.00  0.00    +0.000 OA
BRANCH  18  19
ATOM     19  C   UNL     1       0.469  12.434  19.651  0.00  0.00    +0.000 C 
BRANCH  19  20
ATOM     20  C   UNL     1      -0.980  12.240  19.308  0.00  0.00    +0.000 A 
ATOM     21  C   UNL     1      -1.983  12.651  20.176  0.00  0.00    +0.000 A 
ATOM     22  C   UNL     1      -3.316  12.420  19.851  0.00  0.00    +0.000 A 
ATOM     23  C   UNL     1      -3.702  11.759  18.659  0.00  0.00    +0.000 A 
ATOM     24  C   UNL     1      -2.684  11.306  17.789  0.00  0.00    +0.000 A 
ATOM     25  C   UNL     1      -1.338  11.572  18.129  0.00  0.00    +0.000 A 
BRANCH  23  26
ATOM     26  C   UNL     1      -5.184  11.587  18.397  0.00  0.00    +0.000 C 
ATOM     27  C   UNL     1      -6.067  11.792  19.631  0.00  0.00    +0.000 C 
ATOM     28  C   UNL     1      -7.457  12.028  19.056  0.00  0.00    +0.000 C 
ATOM     29  C   UNL     1      -7.251  12.642  17.673  0.00  0.00    +0.000 C 
ATOM     30  C   UNL     1      -5.754  12.581  17.379  0.00  0.00    +0.000 C 
ENDBRANCH  23  26
BRANCH  24  31
ATOM     31  C   UNL     1      -2.859  10.529  16.497  0.00  0.00    +0.000 C 
ATOM     32  F   UNL     1      -1.745   9.971  15.958  0.00  0.00    +0.000 F 
ATOM     33  F   UNL     1      -3.746   9.500  16.636  0.00  0.00    +0.000 F 
ATOM     34  F   UNL     1      -3.373  11.316  15.506  0.00  0.00    +0.000 F 
ENDBRANCH  24  31
ENDBRANCH  19  20
ENDBRANCH  18  19
ENDBRANCH   9  18
TORSDOF 8
ENDMDL
MODEL 9
REMARK VINA RESULT:      -8.1      2.706      3.564
REMARK  Name = 
REMARK  8 active torsions:
REMARK  status: ('A' for Active; 'I' for Inactive)
REMARK    1  A    between atoms: C_2  and  O_3
REMARK    2  A    between atoms: C_2  and  C_4
REMARK    3  A    between atoms: C_4  and  C_5
REMARK    4  A    between atoms: C_13  and  O_14
REMARK    5  A    between atoms: O_14  and  C_15
REMARK    6  A    between atoms: C_15  and  C_16
REMARK    7  A    between atoms: C_19  and  C_20
REMARK    8  A    between atoms: C_25  and  C_26
REMARK                            x       y       z     vdW  Elec       q    Type
REMARK                         _______ _______ _______ _____ _____    ______ ____
ROOT
ATOM      1  C   UNL     1       4.603   4.955  17.982  0.00  0.00    +0.000 C 
ATOM      2  C   UNL     1       4.475   4.410  19.439  0.00  0.00    +0.000 C 
ATOM      3  C   UNL     1       3.300   5.141  20.108  0.00  0.00    +0.000 C 
ATOM      4  N   UNL     1       3.070   6.256  19.216  0.00  0.00    +0.000 N 
ATOM      5  C   UNL     1       3.757   6.173  18.044  0.00  0.00    +0.000 A 
ATOM      6  C   UNL     1       3.453   7.280  17.298  0.00  0.00    +0.000 A 
ATOM      7  C   UNL     1       2.565   8.065  18.100  0.00  0.00    +0.000 A 
ATOM      8  C   UNL     1       1.951   9.310  17.898  0.00  0.00    +0.000 A 
ATOM      9  C   UNL     1       1.198   9.885  18.928  0.00  0.00    +0.000 A 
ATOM     10  C   UNL     1       0.969   9.183  20.114  0.00  0.00    +0.000 A 
ATOM     11  C   UNL     1       1.538   7.922  20.328  0.00  0.00    +0.000 A 
ATOM     12  C   UNL     1       2.348   7.398  19.312  0.00  0.00    +0.000 A 
ENDROOT
BRANCH   1  13
ATOM     13  C   UNL     1       4.117   3.986  16.904  0.00  0.00    +0.000 C 
BRANCH  13  15
ATOM     14  O   UNL     1       3.247   1.971  17.949  0.00  0.00    +0.000 OA
ATOM     15  C   UNL     1       3.048   3.053  17.420  0.00  0.00    +0.000 C 
BRANCH  15  16
ATOM     16  O   UNL     1       1.801   3.549  17.244  0.00  0.00    +0.000 OA
ATOM     17  H   UNL     1       1.094   2.883  17.325  0.00  0.00    +0.000 HD
ENDBRANCH  15  16
ENDBRANCH  13  15
ENDBRANCH   1  13
BRANCH   9  18
ATOM     18  O   UNL     1       0.661  11.145  18.862  0.00  0.00    +0.000 OA
BRANCH  18  19
ATOM     19  C   UNL     1       0.265  11.668  20.132  0.00  0.00    +0.000 C 
BRANCH  19  20
ATOM     20  C   UNL     1      -1.193  12.023  20.097  0.00  0.00    +0.000 A 
ATOM     21  C   UNL     1      -1.799  12.669  21.167  0.00  0.00    +0.000 A 
ATOM     22  C   UNL     1      -3.162  12.948  21.126  0.00  0.00    +0.000 A 
ATOM     23  C   UNL     1      -3.976  12.581  20.027  0.00  0.00    +0.000 A 
ATOM     24  C   UNL     1      -3.372  11.890  18.951  0.00  0.00    +0.000 A 
ATOM     25  C   UNL     1      -1.983  11.638  19.006  0.00  0.00    +0.000 A 
BRANCH  23  26
ATOM     26  C   UNL     1      -5.442  12.959  20.080  0.00  0.00    +0.000 C 
ATOM     27  C   UNL     1      -6.365  11.831  20.551  0.00  0.00    +0.000 C 
ATOM     28  C   UNL     1      -7.646  12.546  20.959  0.00  0.00    +0.000 C 
ATOM     29  C   UNL     1      -7.233  13.952  21.390  0.00  0.00    +0.000 C 
ATOM     30  C   UNL     1      -5.753  14.104  21.051  0.00  0.00    +0.000 C 
ENDBRANCH  23  26
BRANCH  24  31
ATOM     31  C   UNL     1      -4.056  11.351  17.707  0.00  0.00    +0.000 C 
ATOM     32  F   UNL     1      -4.871  12.203  17.035  0.00  0.00    +0.000 F 
ATOM     33  F   UNL     1      -3.155  10.908  16.781  0.00  0.00    +0.000 F 
ATOM     34  F   UNL     1      -4.837  10.268  17.995  0.00  0.00    +0.000 F 
ENDBRANCH  24  31
ENDBRANCH  19  20
ENDBRANCH  18  19
ENDBRANCH   9  18
TORSDOF 8
ENDMDL
