MODEL 1
REMARK VINA RESULT:      -6.9      0.000      0.000
REMARK  Name = 
REMARK  10 active torsions:
REMARK  status: ('A' for Active; 'I' for Inactive)
REMARK    1  A    between atoms: C_1  and  O_2
REMARK    2  A    between atoms: O_2  and  C_3
REMARK    3  A    between atoms: C_3  and  C_4
REMARK    4  A    between atoms: C_4  and  N_5
REMARK    5  A    between atoms: N_5  and  C_6
REMARK    6  A    between atoms: N_5  and  S_10
REMARK    7  A    between atoms: C_6  and  C_7
REMARK    8  A    between atoms: S_10  and  C_13
REMARK    9  A    between atoms: C_16  and  C_17
REMARK   10  A    between atoms: C_19  and  C_20
REMARK                            x       y       z     vdW  Elec       q    Type
REMARK                         _______ _______ _______ _____ _____    ______ ____
ROOT
ATOM      1  N   UNL     1       6.966   6.048  16.870  0.00  0.00    +0.000 NA
ENDROOT
BRANCH   1   2
ATOM      2  S   UNL     1       5.675   5.638  15.810  0.00  0.00    +0.000 S 
ATOM      3  O   UNL     1       5.158   6.864  15.231  0.00  0.00    +0.000 OA
ATOM      4  O   UNL     1       6.140   4.577  14.946  0.00  0.00    +0.000 OA
BRANCH   2   5
ATOM      5  C   UNL     1       4.394   4.975  16.881  0.00  0.00    +0.000 A 
ATOM      6  C   UNL     1       4.213   3.581  16.888  0.00  0.00    +0.000 A 
ATOM      7  C   UNL     1       3.176   3.003  17.625  0.00  0.00    +0.000 A 
ATOM      8  C   UNL     1       2.305   3.804  18.366  0.00  0.00    +0.000 A 
ATOM      9  C   UNL     1       1.195   3.201  19.178  0.00  0.00    +0.000 C 
ATOM     10  C   UNL     1       2.478   5.196  18.342  0.00  0.00    +0.000 A 
ATOM     11  C   UNL     1       3.511   5.802  17.600  0.00  0.00    +0.000 A 
ATOM     12  C   UNL     1       3.584   7.303  17.592  0.00  0.00    +0.000 C 
ENDBRANCH   2   5
ENDBRANCH   1   2
BRANCH   1  13
ATOM     13  C   UNL     1       6.770   7.376  17.556  0.00  0.00    +0.000 C 
BRANCH  13  14
ATOM     14  C   UNL     1       7.941   8.362  17.468  0.00  0.00    +0.000 C 
BRANCH  14  16
ATOM     15  C   UNL     1       9.028   9.909  18.859  0.00  0.00    +0.000 C 
ATOM     16  O   UNL     1       8.581   8.559  18.731  0.00  0.00    +0.000 OA
ENDBRANCH  14  16
ENDBRANCH  13  14
ENDBRANCH   1  13
BRANCH   1  17
ATOM     17  C   UNL     1       7.346   4.929  17.781  0.00  0.00    +0.000 C 
BRANCH  17  18
ATOM     18  C   UNL     1       7.164   5.222  19.261  0.00  0.00    +0.000 C 
ATOM     19  N   UNL     1       8.279   5.636  19.931  0.00  0.00    +0.000 N 
ATOM     20  O   UNL     1       6.087   5.100  19.837  0.00  0.00    +0.000 OA
ATOM     21  H   UNL     1       9.209   5.508  19.538  0.00  0.00    +0.000 HD
ATOM     22  H   UNL     1       8.209   5.744  20.936  0.00  0.00    +0.000 HD
ENDBRANCH  17  18
ENDBRANCH   1  17
TORSDOF 7
ENDMDL
MODEL 2
REMARK VINA RESULT:      -6.7      2.297      3.559
REMARK  Name = 
REMARK  10 active torsions:
REMARK  status: ('A' for Active; 'I' for Inactive)
REMARK    1  A    between atoms: C_1  and  O_2
REMARK    2  A    between atoms: O_2  and  C_3
REMARK    3  A    between atoms: C_3  and  C_4
REMARK    4  A    between atoms: C_4  and  N_5
REMARK    5  A    between atoms: N_5  and  C_6
REMARK    6  A    between atoms: N_5  and  S_10
REMARK    7  A    between atoms: C_6  and  C_7
REMARK    8  A    between atoms: S_10  and  C_13
REMARK    9  A    between atoms: C_16  and  C_17
REMARK   10  A    between atoms: C_19  and  C_20
REMARK                            x       y       z     vdW  Elec       q    Type
REMARK                         _______ _______ _______ _____ _____    ______ ____
ROOT
ATOM      1  N   UNL     1       5.668   4.950  17.745  0.00  0.00    +0.000 NA
ENDROOT
BRANCH   1   2
ATOM      2  S   UNL     1       4.173   4.188  18.125  0.00  0.00    +0.000 S 
ATOM      3  O   UNL     1       3.461   3.942  16.885  0.00  0.00    +0.000 OA
ATOM      4  O   UNL     1       4.458   3.089  19.019  0.00  0.00    +0.000 OA
BRANCH   2   5
ATOM      5  C   UNL     1       3.243   5.429  19.033  0.00  0.00    +0.000 A 
ATOM      6  C   UNL     1       2.578   5.014  20.200  0.00  0.00    +0.000 A 
ATOM      7  C   UNL     1       1.761   5.901  20.906  0.00  0.00    +0.000 A 
ATOM      8  C   UNL     1       1.595   7.214  20.461  0.00  0.00    +0.000 A 
ATOM      9  C   UNL     1       0.736   8.188  21.214  0.00  0.00    +0.000 C 
ATOM     10  C   UNL     1       2.246   7.619  19.286  0.00  0.00    +0.000 A 
ATOM     11  C   UNL     1       3.068   6.740  18.553  0.00  0.00    +0.000 A 
ATOM     12  C   UNL     1       3.681   7.248  17.277  0.00  0.00    +0.000 C 
ENDBRANCH   2   5
ENDBRANCH   1   2
BRANCH   1  13
ATOM     13  C   UNL     1       6.418   5.423  18.964  0.00  0.00    +0.000 C 
BRANCH  13  14
ATOM     14  C   UNL     1       7.921   5.666  18.780  0.00  0.00    +0.000 C 
BRANCH  14  16
ATOM     15  C   UNL     1       7.676   7.696  17.627  0.00  0.00    +0.000 C 
ATOM     16  O   UNL     1       8.248   7.058  18.769  0.00  0.00    +0.000 OA
ENDBRANCH  14  16
ENDBRANCH  13  14
ENDBRANCH   1  13
BRANCH   1  17
ATOM     17  C   UNL     1       6.488   4.165  16.776  0.00  0.00    +0.000 C 
BRANCH  17  18
ATOM     18  C   UNL     1       6.593   4.776  15.389  0.00  0.00    +0.000 C 
ATOM     19  N   UNL     1       5.487   4.657  14.597  0.00  0.00    +0.000 N 
ATOM     20  O   UNL     1       7.603   5.347  14.987  0.00  0.00    +0.000 OA
ATOM     21  H   UNL     1       4.751   3.990  14.816  0.00  0.00    +0.000 HD
ATOM     22  H   UNL     1       5.564   4.967  13.636  0.00  0.00    +0.000 HD
ENDBRANCH  17  18
ENDBRANCH   1  17
TORSDOF 7
ENDMDL
MODEL 3
REMARK VINA RESULT:      -6.6      2.335      3.942
REMARK  Name = 
REMARK  10 active torsions:
REMARK  status: ('A' for Active; 'I' for Inactive)
REMARK    1  A    between atoms: C_1  and  O_2
REMARK    2  A    between atoms: O_2  and  C_3
REMARK    3  A    between atoms: C_3  and  C_4
REMARK    4  A    between atoms: C_4  and  N_5
REMARK    5  A    between atoms: N_5  and  C_6
REMARK    6  A    between atoms: N_5  and  S_10
REMARK    7  A    between atoms: C_6  and  C_7
REMARK    8  A    between atoms: S_10  and  C_13
REMARK    9  A    between atoms: C_16  and  C_17
REMARK   10  A    between atoms: C_19  and  C_20
REMARK                            x       y       z     vdW  Elec       q    Type
REMARK                         _______ _______ _______ _____ _____    ______ ____
ROOT
ATOM      1  N   UNL     1       5.405   4.604  17.567  0.00  0.00    +0.000 NA
ENDROOT
BRANCH   1   2
ATOM      2  S   UNL     1       4.029   3.837  18.258  0.00  0.00    +0.000 S 
ATOM      3  O   UNL     1       3.230   3.284  17.181  0.00  0.00    +0.000 OA
ATOM      4  O   UNL     1       4.497   2.976  19.320  0.00  0.00    +0.000 OA
BRANCH   2   5
ATOM      5  C   UNL     1       3.079   5.174  18.992  0.00  0.00    +0.000 A 
ATOM      6  C   UNL     1       3.210   6.451  18.420  0.00  0.00    +0.000 A 
ATOM      7  C   UNL     1       2.574   7.555  18.994  0.00  0.00    +0.000 A 
ATOM      8  C   UNL     1       1.798   7.404  20.144  0.00  0.00    +0.000 A 
ATOM      9  C   UNL     1       1.093   8.574  20.766  0.00  0.00    +0.000 C 
ATOM     10  C   UNL     1       1.685   6.131  20.722  0.00  0.00    +0.000 A 
ATOM     11  C   UNL     1       2.323   5.004  20.166  0.00  0.00    +0.000 A 
ATOM     12  C   UNL     1       2.188   3.692  20.887  0.00  0.00    +0.000 C 
ENDBRANCH   2   5
ENDBRANCH   1   2
BRANCH   1  13
ATOM     13  C   UNL     1       6.508   4.854  18.565  0.00  0.00    +0.000 C 
BRANCH  13  14
ATOM     14  C   UNL     1       7.503   5.964  18.208  0.00  0.00    +0.000 C 
BRANCH  14  16
ATOM     15  C   UNL     1       7.747   8.215  17.593  0.00  0.00    +0.000 C 
ATOM     16  O   UNL     1       6.866   7.092  17.605  0.00  0.00    +0.000 OA
ENDBRANCH  14  16
ENDBRANCH  13  14
ENDBRANCH   1  13
BRANCH   1  17
ATOM     17  C   UNL     1       5.851   3.959  16.298  0.00  0.00    +0.000 C 
BRANCH  17  18
ATOM     18  C   UNL     1       5.587   4.772  15.042  0.00  0.00    +0.000 C 
ATOM     19  N   UNL     1       5.405   6.114  15.225  0.00  0.00    +0.000 N 
ATOM     20  O   UNL     1       5.537   4.272  13.922  0.00  0.00    +0.000 OA
ATOM     21  H   UNL     1       5.202   6.497  16.144  0.00  0.00    +0.000 HD
ATOM     22  H   UNL     1       5.131   6.663  14.420  0.00  0.00    +0.000 HD
ENDBRANCH  17  18
ENDBRANCH   1  17
TORSDOF 7
ENDMDL
MODEL 4
REMARK VINA RESULT:      -6.4      0.807      1.717
REMARK  Name = 
REMARK  10 active torsions:
REMARK  status: ('A' for Active; 'I' for Inactive)
REMARK    1  A    between atoms: C_1  and  O_2
REMARK    2  A    between atoms: O_2  and  C_3
REMARK    3  A    between atoms: C_3  and  C_4
REMARK    4  A    between atoms: C_4  and  N_5
REMARK    5  A    between atoms: N_5  and  C_6
REMARK    6  A    between atoms: N_5  and  S_10
REMARK    7  A    between atoms: C_6  and  C_7
REMARK    8  A    between atoms: S_10  and  C_13
REMARK    9  A    between atoms: C_16  and  C_17
REMARK   10  A    between atoms: C_19  and  C_20
REMARK                            x       y       z     vdW  Elec       q    Type
REMARK                         _______ _______ _______ _____ _____    ______ ____
ROOT
ATOM      1  N   UNL     1       6.835   6.198  16.861  0.00  0.00    +0.000 NA
ENDROOT
BRANCH   1   2
ATOM      2  S   UNL     1       5.404   5.834  15.979  0.00  0.00    +0.000 S 
ATOM      3  O   UNL     1       5.028   7.013  15.220  0.00  0.00    +0.000 OA
ATOM      4  O   UNL     1       5.619   4.580  15.295  0.00  0.00    +0.000 OA
BRANCH   2   5
ATOM      5  C   UNL     1       4.141   5.586  17.232  0.00  0.00    +0.000 A 
ATOM      6  C   UNL     1       3.627   6.729  17.869  0.00  0.00    +0.000 A 
ATOM      7  C   UNL     1       2.712   6.607  18.917  0.00  0.00    +0.000 A 
ATOM      8  C   UNL     1       2.294   5.345  19.347  0.00  0.00    +0.000 A 
ATOM      9  C   UNL     1       1.298   5.193  20.460  0.00  0.00    +0.000 C 
ATOM     10  C   UNL     1       2.823   4.207  18.721  0.00  0.00    +0.000 A 
ATOM     11  C   UNL     1       3.753   4.305  17.667  0.00  0.00    +0.000 A 
ATOM     12  C   UNL     1       4.306   3.029  17.095  0.00  0.00    +0.000 C 
ENDBRANCH   2   5
ENDBRANCH   1   2
BRANCH   1  13
ATOM     13  C   UNL     1       6.757   7.509  17.602  0.00  0.00    +0.000 C 
BRANCH  13  14
ATOM     14  C   UNL     1       7.983   8.422  17.491  0.00  0.00    +0.000 C 
BRANCH  14  16
ATOM     15  C   UNL     1       9.046   9.928  18.944  0.00  0.00    +0.000 C 
ATOM     16  O   UNL     1       8.667   8.567  18.738  0.00  0.00    +0.000 OA
ENDBRANCH  14  16
ENDBRANCH  13  14
ENDBRANCH   1  13
BRANCH   1  17
ATOM     17  C   UNL     1       7.318   5.049  17.681  0.00  0.00    +0.000 C 
BRANCH  17  18
ATOM     18  C   UNL     1       7.242   5.262  19.184  0.00  0.00    +0.000 C 
ATOM     19  N   UNL     1       8.410   5.615  19.798  0.00  0.00    +0.000 N 
ATOM     20  O   UNL     1       6.203   5.130  19.825  0.00  0.00    +0.000 OA
ATOM     21  H   UNL     1       9.307   5.489  19.336  0.00  0.00    +0.000 HD
ATOM     22  H   UNL     1       8.410   5.667  20.810  0.00  0.00    +0.000 HD
ENDBRANCH  17  18
ENDBRANCH   1  17
TORSDOF 7
ENDMDL
MODEL 5
REMARK VINA RESULT:      -6.4      3.049      5.781
REMARK  Name = 
REMARK  10 active torsions:
REMARK  status: ('A' for Active; 'I' for Inactive)
REMARK    1  A    between atoms: C_1  and  O_2
REMARK    2  A    between atoms: O_2  and  C_3
REMARK    3  A    between atoms: C_3  and  C_4
REMARK    4  A    between atoms: C_4  and  N_5
REMARK    5  A    between atoms: N_5  and  C_6
REMARK    6  A    between atoms: N_5  and  S_10
REMARK    7  A    between atoms: C_6  and  C_7
REMARK    8  A    between atoms: S_10  and  C_13
REMARK    9  A    between atoms: C_16  and  C_17
REMARK   10  A    between atoms: C_19  and  C_20
REMARK                            x       y       z     vdW  Elec       q    Type
REMARK                         _______ _______ _______ _____ _____    ______ ____
ROOT
ATOM      1  N   UNL     1       3.011   5.052  18.636  0.00  0.00    +0.000 NA
ENDROOT
BRANCH   1   2
ATOM      2  S   UNL     1       4.610   4.466  18.878  0.00  0.00    +0.000 S 
ATOM      3  O   UNL     1       5.311   5.401  19.737  0.00  0.00    +0.000 OA
ATOM      4  O   UNL     1       4.512   3.076  19.260  0.00  0.00    +0.000 OA
BRANCH   2   5
ATOM      5  C   UNL     1       5.381   4.554  17.258  0.00  0.00    +0.000 A 
ATOM      6  C   UNL     1       4.559   4.343  16.137  0.00  0.00    +0.000 A 
ATOM      7  C   UNL     1       5.106   4.304  14.852  0.00  0.00    +0.000 A 
ATOM      8  C   UNL     1       6.479   4.476  14.664  0.00  0.00    +0.000 A 
ATOM      9  C   UNL     1       7.084   4.455  13.290  0.00  0.00    +0.000 C 
ATOM     10  C   UNL     1       7.298   4.668  15.786  0.00  0.00    +0.000 A 
ATOM     11  C   UNL     1       6.771   4.703  17.092  0.00  0.00    +0.000 A 
ATOM     12  C   UNL     1       7.733   4.860  18.236  0.00  0.00    +0.000 C 
ENDBRANCH   2   5
ENDBRANCH   1   2
BRANCH   1  13
ATOM     13  C   UNL     1       1.949   4.062  19.043  0.00  0.00    +0.000 C 
BRANCH  13  14
ATOM     14  C   UNL     1       1.238   4.340  20.372  0.00  0.00    +0.000 C 
BRANCH  14  16
ATOM     15  C   UNL     1       1.800   2.534  21.761  0.00  0.00    +0.000 C 
ATOM     16  O   UNL     1       2.011   3.921  21.500  0.00  0.00    +0.000 OA
ENDBRANCH  14  16
ENDBRANCH  13  14
ENDBRANCH   1  13
BRANCH   1  17
ATOM     17  C   UNL     1       2.812   6.430  19.172  0.00  0.00    +0.000 C 
BRANCH  17  18
ATOM     18  C   UNL     1       2.745   7.521  18.116  0.00  0.00    +0.000 C 
ATOM     19  N   UNL     1       3.861   7.676  17.344  0.00  0.00    +0.000 N 
ATOM     20  O   UNL     1       1.757   8.230  17.951  0.00  0.00    +0.000 OA
ATOM     21  H   UNL     1       4.754   7.276  17.622  0.00  0.00    +0.000 HD
ATOM     22  H   UNL     1       3.881   8.457  16.700  0.00  0.00    +0.000 HD
ENDBRANCH  17  18
ENDBRANCH   1  17
TORSDOF 7
ENDMDL
MODEL 6
REMARK VINA RESULT:      -6.3      2.389      3.902
REMARK  Name = 
REMARK  10 active torsions:
REMARK  status: ('A' for Active; 'I' for Inactive)
REMARK    1  A    between atoms: C_1  and  O_2
REMARK    2  A    between atoms: O_2  and  C_3
REMARK    3  A    between atoms: C_3  and  C_4
REMARK    4  A    between atoms: C_4  and  N_5
REMARK    5  A    between atoms: N_5  and  C_6
REMARK    6  A    between atoms: N_5  and  S_10
REMARK    7  A    between atoms: C_6  and  C_7
REMARK    8  A    between atoms: S_10  and  C_13
REMARK    9  A    between atoms: C_16  and  C_17
REMARK   10  A    between atoms: C_19  and  C_20
REMARK                            x       y       z     vdW  Elec       q    Type
REMARK                         _______ _______ _______ _____ _____    ______ ____
ROOT
ATOM      1  N   UNL     1       5.386   5.441  17.628  0.00  0.00    +0.000 NA
ENDROOT
BRANCH   1   2
ATOM      2  S   UNL     1       4.031   4.629  18.309  0.00  0.00    +0.000 S 
ATOM      3  O   UNL     1       3.310   3.972  17.234  0.00  0.00    +0.000 OA
ATOM      4  O   UNL     1       4.505   3.854  19.432  0.00  0.00    +0.000 OA
BRANCH   2   5
ATOM      5  C   UNL     1       2.974   5.941  18.932  0.00  0.00    +0.000 A 
ATOM      6  C   UNL     1       2.960   7.153  18.220  0.00  0.00    +0.000 A 
ATOM      7  C   UNL     1       2.234   8.248  18.697  0.00  0.00    +0.000 A 
ATOM      8  C   UNL     1       1.512   8.152  19.888  0.00  0.00    +0.000 A 
ATOM      9  C   UNL     1       0.712   9.311  20.408  0.00  0.00    +0.000 C 
ATOM     10  C   UNL     1       1.543   6.946  20.604  0.00  0.00    +0.000 A 
ATOM     11  C   UNL     1       2.274   5.831  20.147  0.00  0.00    +0.000 A 
ATOM     12  C   UNL     1       2.292   4.600  21.010  0.00  0.00    +0.000 C 
ENDBRANCH   2   5
ENDBRANCH   1   2
BRANCH   1  13
ATOM     13  C   UNL     1       6.696   5.036  18.257  0.00  0.00    +0.000 C 
BRANCH  13  14
ATOM     14  C   UNL     1       7.626   6.179  18.676  0.00  0.00    +0.000 C 
BRANCH  14  16
ATOM     15  C   UNL     1       7.674   8.288  17.648  0.00  0.00    +0.000 C 
ATOM     16  O   UNL     1       8.104   6.930  17.557  0.00  0.00    +0.000 OA
ENDBRANCH  14  16
ENDBRANCH  13  14
ENDBRANCH   1  13
BRANCH   1  17
ATOM     17  C   UNL     1       5.383   5.425  16.137  0.00  0.00    +0.000 C 
BRANCH  17  18
ATOM     18  C   UNL     1       6.384   4.472  15.507  0.00  0.00    +0.000 C 
ATOM     19  N   UNL     1       6.032   3.153  15.498  0.00  0.00    +0.000 N 
ATOM     20  O   UNL     1       7.452   4.846  15.029  0.00  0.00    +0.000 OA
ATOM     21  H   UNL     1       5.286   2.803  16.094  0.00  0.00    +0.000 HD
ATOM     22  H   UNL     1       6.721   2.486  15.174  0.00  0.00    +0.000 HD
ENDBRANCH  17  18
ENDBRANCH   1  17
TORSDOF 7
ENDMDL
MODEL 7
REMARK VINA RESULT:      -6.3      2.658      5.930
REMARK  Name = 
REMARK  10 active torsions:
REMARK  status: ('A' for Active; 'I' for Inactive)
REMARK    1  A    between atoms: C_1  and  O_2
REMARK    2  A    between atoms: O_2  and  C_3
REMARK    3  A    between atoms: C_3  and  C_4
REMARK    4  A    between atoms: C_4  and  N_5
REMARK    5  A    between atoms: N_5  and  C_6
REMARK    6  A    between atoms: N_5  and  S_10
REMARK    7  A    between atoms: C_6  and  C_7
REMARK    8  A    between atoms: S_10  and  C_13
REMARK    9  A    between atoms: C_16  and  C_17
REMARK   10  A    between atoms: C_19  and  C_20
REMARK                            x       y       z     vdW  Elec       q    Type
REMARK                         _______ _______ _______ _____ _____    ______ ____
ROOT
ATOM      1  N   UNL     1       3.606   4.701  18.197  0.00  0.00    +0.000 NA
ENDROOT
BRANCH   1   2
ATOM      2  S   UNL     1       5.192   4.100  17.910  0.00  0.00    +0.000 S 
ATOM      3  O   UNL     1       5.592   3.310  19.059  0.00  0.00    +0.000 OA
ATOM      4  O   UNL     1       5.201   3.505  16.593  0.00  0.00    +0.000 OA
BRANCH   2   5
ATOM      5  C   UNL     1       6.238   5.560  17.879  0.00  0.00    +0.000 A 
ATOM      6  C   UNL     1       7.281   5.628  18.818  0.00  0.00    +0.000 A 
ATOM      7  C   UNL     1       8.077   6.773  18.915  0.00  0.00    +0.000 A 
ATOM      8  C   UNL     1       7.846   7.865  18.076  0.00  0.00    +0.000 A 
ATOM      9  C   UNL     1       8.699   9.098  18.152  0.00  0.00    +0.000 C 
ATOM     10  C   UNL     1       6.792   7.800  17.153  0.00  0.00    +0.000 A 
ATOM     11  C   UNL     1       5.972   6.660  17.043  0.00  0.00    +0.000 A 
ATOM     12  C   UNL     1       4.834   6.703  16.061  0.00  0.00    +0.000 C 
ENDBRANCH   2   5
ENDBRANCH   1   2
BRANCH   1  13
ATOM     13  C   UNL     1       2.523   3.729  17.799  0.00  0.00    +0.000 C 
BRANCH  13  14
ATOM     14  C   UNL     1       2.692   2.289  18.298  0.00  0.00    +0.000 C 
BRANCH  14  16
ATOM     15  C   UNL     1       0.689   2.936  19.336  0.00  0.00    +0.000 C 
ATOM     16  O   UNL     1       1.694   1.925  19.254  0.00  0.00    +0.000 OA
ENDBRANCH  14  16
ENDBRANCH  13  14
ENDBRANCH   1  13
BRANCH   1  17
ATOM     17  C   UNL     1       3.445   5.285  19.560  0.00  0.00    +0.000 C 
BRANCH  17  18
ATOM     18  C   UNL     1       2.610   6.553  19.615  0.00  0.00    +0.000 C 
ATOM     19  N   UNL     1       1.840   6.715  20.733  0.00  0.00    +0.000 N 
ATOM     20  O   UNL     1       2.613   7.394  18.721  0.00  0.00    +0.000 OA
ATOM     21  H   UNL     1       1.641   5.933  21.352  0.00  0.00    +0.000 HD
ATOM     22  H   UNL     1       1.201   7.500  20.752  0.00  0.00    +0.000 HD
ENDBRANCH  17  18
ENDBRANCH   1  17
TORSDOF 7
ENDMDL
MODEL 8
REMARK VINA RESULT:      -6.3      3.083      5.144
REMARK  Name = 
REMARK  10 active torsions:
REMARK  status: ('A' for Active; 'I' for Inactive)
REMARK    1  A    between atoms: C_1  and  O_2
REMARK    2  A    between atoms: O_2  and  C_3
REMARK    3  A    between atoms: C_3  and  C_4
REMARK    4  A    between atoms: C_4  and  N_5
REMARK    5  A    between atoms: N_5  and  C_6
REMARK    6  A    between atoms: N_5  and  S_10
REMARK    7  A    between atoms: C_6  and  C_7
REMARK    8  A    between atoms: S_10  and  C_13
REMARK    9  A    between atoms: C_16  and  C_17
REMARK   10  A    between atoms: C_19  and  C_20
REMARK                            x       y       z     vdW  Elec       q    Type
REMARK                         _______ _______ _______ _____ _____    ______ ____
ROOT
ATOM      1  N   UNL     1       3.697   5.295  19.158  0.00  0.00    +0.000 NA
ENDROOT
BRANCH   1   2
ATOM      2  S   UNL     1       5.209   4.477  19.084  0.00  0.00    +0.000 S 
ATOM      3  O   UNL     1       6.162   5.213  19.893  0.00  0.00    +0.000 OA
ATOM      4  O   UNL     1       4.963   3.080  19.359  0.00  0.00    +0.000 OA
BRANCH   2   5
ATOM      5  C   UNL     1       5.732   4.634  17.373  0.00  0.00    +0.000 A 
ATOM      6  C   UNL     1       5.131   3.781  16.431  0.00  0.00    +0.000 A 
ATOM      7  C   UNL     1       5.554   3.781  15.100  0.00  0.00    +0.000 A 
ATOM      8  C   UNL     1       6.581   4.632  14.686  0.00  0.00    +0.000 A 
ATOM      9  C   UNL     1       7.039   4.661  13.256  0.00  0.00    +0.000 C 
ATOM     10  C   UNL     1       7.190   5.469  15.632  0.00  0.00    +0.000 A 
ATOM     11  C   UNL     1       6.786   5.480  16.982  0.00  0.00    +0.000 A 
ATOM     12  C   UNL     1       7.535   6.371  17.934  0.00  0.00    +0.000 C 
ENDBRANCH   2   5
ENDBRANCH   1   2
BRANCH   1  13
ATOM     13  C   UNL     1       3.626   6.493  18.246  0.00  0.00    +0.000 C 
BRANCH  13  14
ATOM     14  C   UNL     1       2.470   7.467  18.496  0.00  0.00    +0.000 C 
BRANCH  14  16
ATOM     15  C   UNL     1       1.478   9.510  17.902  0.00  0.00    +0.000 C 
ATOM     16  O   UNL     1       2.671   8.727  17.852  0.00  0.00    +0.000 OA
ENDBRANCH  14  16
ENDBRANCH  13  14
ENDBRANCH   1  13
BRANCH   1  17
ATOM     17  C   UNL     1       2.531   4.370  19.059  0.00  0.00    +0.000 C 
BRANCH  17  18
ATOM     18  C   UNL     1       1.772   4.159  20.358  0.00  0.00    +0.000 C 
ATOM     19  N   UNL     1       0.724   3.285  20.304  0.00  0.00    +0.000 N 
ATOM     20  O   UNL     1       2.068   4.730  21.404  0.00  0.00    +0.000 OA
ATOM     21  H   UNL     1       0.321   3.000  19.414  0.00  0.00    +0.000 HD
ATOM     22  H   UNL     1       0.141   3.201  21.128  0.00  0.00    +0.000 HD
ENDBRANCH  17  18
ENDBRANCH   1  17
TORSDOF 7
ENDMDL
MODEL 9
REMARK VINA RESULT:      -6.3      2.537      4.111
REMARK  Name = 
REMARK  10 active torsions:
REMARK  status: ('A' for Active; 'I' for Inactive)
REMARK    1  A    between atoms: C_1  and  O_2
REMARK    2  A    between atoms: O_2  and  C_3
REMARK    3  A    between atoms: C_3  and  C_4
REMARK    4  A    between atoms: C_4  and  N_5
REMARK    5  A    between atoms: N_5  and  C_6
REMARK    6  A    between atoms: N_5  and  S_10
REMARK    7  A    between atoms: C_6  and  C_7
REMARK    8  A    between atoms: S_10  and  C_13
REMARK    9  A    between atoms: C_16  and  C_17
REMARK   10  A    between atoms: C_19  and  C_20
REMARK                            x       y       z     vdW  Elec       q    Type
REMARK                         _______ _______ _______ _____ _____    ______ ____
ROOT
ATOM      1  N   UNL     1       5.367   4.110  17.842  0.00  0.00    +0.000 NA
ENDROOT
BRANCH   1   2
ATOM      2  S   UNL     1       4.160   3.312  18.773  0.00  0.00    +0.000 S 
ATOM      3  O   UNL     1       3.333   2.534  17.870  0.00  0.00    +0.000 OA
ATOM      4  O   UNL     1       4.822   2.661  19.880  0.00  0.00    +0.000 OA
BRANCH   2   5
ATOM      5  C   UNL     1       3.134   4.634  19.426  0.00  0.00    +0.000 A 
ATOM      6  C   UNL     1       3.281   5.910  18.855  0.00  0.00    +0.000 A 
ATOM      7  C   UNL     1       2.585   7.005  19.373  0.00  0.00    +0.000 A 
ATOM      8  C   UNL     1       1.731   6.846  20.466  0.00  0.00    +0.000 A 
ATOM      9  C   UNL     1       0.961   8.006  21.027  0.00  0.00    +0.000 C 
ATOM     10  C   UNL     1       1.601   5.575  21.045  0.00  0.00    +0.000 A 
ATOM     11  C   UNL     1       2.299   4.458  20.545  0.00  0.00    +0.000 A 
ATOM     12  C   UNL     1       2.138   3.147  21.264  0.00  0.00    +0.000 C 
ENDBRANCH   2   5
ENDBRANCH   1   2
BRANCH   1  13
ATOM     13  C   UNL     1       4.917   4.430  16.439  0.00  0.00    +0.000 C 
BRANCH  13  14
ATOM     14  C   UNL     1       5.293   5.818  15.908  0.00  0.00    +0.000 C 
BRANCH  14  16
ATOM     15  C   UNL     1       6.614   4.436  14.547  0.00  0.00    +0.000 C 
ATOM     16  O   UNL     1       6.396   5.772  15.000  0.00  0.00    +0.000 OA
ENDBRANCH  14  16
ENDBRANCH  13  14
ENDBRANCH   1  13
BRANCH   1  17
ATOM     17  C   UNL     1       5.998   5.252  18.567  0.00  0.00    +0.000 C 
BRANCH  17  18
ATOM     18  C   UNL     1       7.505   5.353  18.407  0.00  0.00    +0.000 C 
ATOM     19  N   UNL     1       8.058   6.567  18.701  0.00  0.00    +0.000 N 
ATOM     20  O   UNL     1       8.202   4.412  18.039  0.00  0.00    +0.000 OA
ATOM     21  H   UNL     1       7.485   7.405  18.767  0.00  0.00    +0.000 HD
ATOM     22  H   UNL     1       9.045   6.691  18.510  0.00  0.00    +0.000 HD
ENDBRANCH  17  18
ENDBRANCH   1  17
TORSDOF 7
ENDMDL
