MODEL 1
REMARK VINA RESULT:      -8.1      0.000      0.000
REMARK  Name = 
REMARK  12 active torsions:
REMARK  status: ('A' for Active; 'I' for Inactive)
REMARK    1  A    between atoms: C_1  and  C_2
REMARK    2  A    between atoms: C_2  and  C_3
REMARK    3  A    between atoms: C_2  and  C_4
REMARK    4  A    between atoms: C_4  and  N_5
REMARK    5  A    between atoms: C_4  and  C_29
REMARK    6  A    between atoms: N_5  and  S_6
REMARK    7  A    between atoms: S_6  and  C_9
REMARK    8  A    between atoms: C_18  and  N_19
REMARK    9  A    between atoms: C_20  and  O_22
REMARK   10  A    between atoms: O_22  and  C_23
REMARK   11  A    between atoms: C_23  and  C_24
REMARK   12  A    between atoms: C_29  and  O_31
REMARK                            x       y       z     vdW  Elec       q    Type
REMARK                         _______ _______ _______ _____ _____    ______ ____
ROOT
ATOM      1  C   UNL     1       3.027   6.782  18.643  0.00  0.00    +0.000 A 
ATOM      2  C   UNL     1       2.788   7.726  17.637  0.00  0.00    +0.000 A 
ATOM      3  C   UNL     1       1.966   8.836  17.889  0.00  0.00    +0.000 A 
ATOM      4  C   UNL     1       1.390   8.983  19.165  0.00  0.00    +0.000 A 
ATOM      5  C   UNL     1       1.657   8.016  20.128  0.00  0.00    +0.000 A 
ATOM      6  C   UNL     1       2.467   6.903  19.923  0.00  0.00    +0.000 A 
ATOM      7  O   UNL     1       1.021   8.314  21.292  0.00  0.00    +0.000 OA
ATOM      8  C   UNL     1       0.348   9.479  21.089  0.00  0.00    +0.000 A 
ATOM      9  C   UNL     1      -0.436  10.126  22.041  0.00  0.00    +0.000 A 
ATOM     10  C   UNL     1      -1.061  11.322  21.661  0.00  0.00    +0.000 A 
ATOM     11  C   UNL     1      -0.860  11.833  20.370  0.00  0.00    +0.000 A 
ATOM     12  C   UNL     1      -0.067  11.153  19.425  0.00  0.00    +0.000 A 
ATOM     13  C   UNL     1       0.547   9.945  19.797  0.00  0.00    +0.000 A 
ENDROOT
BRANCH  10  14
ATOM     14  N   UNL     1      -1.907  12.042  22.532  0.00  0.00    +0.000 N 
ATOM     15  C   UNL     1      -1.585  13.190  23.206  0.00  0.00    +0.000 C 
ATOM     16  O   UNL     1      -0.530  13.803  23.159  0.00  0.00    +0.000 OA
ATOM     17  H   UNL     1      -2.797  11.635  22.794  0.00  0.00    +0.000 HD
BRANCH  15  18
ATOM     18  O   UNL     1      -2.601  13.536  24.042  0.00  0.00    +0.000 OA
BRANCH  18  19
ATOM     19  C   UNL     1      -3.673  12.571  24.085  0.00  0.00    +0.000 C 
BRANCH  19  20
ATOM     20  C   UNL     1      -5.058  13.165  23.855  0.00  0.00    +0.000 C 
ATOM     21  F   UNL     1      -5.994  12.332  24.388  0.00  0.00    +0.000 F 
ENDBRANCH  19  20
ENDBRANCH  18  19
ENDBRANCH  15  18
ENDBRANCH  10  14
BRANCH   1  22
ATOM     22  S   UNL     1       4.135   5.432  18.317  0.00  0.00    +0.000 S 
ATOM     23  O   UNL     1       5.132   5.431  19.358  0.00  0.00    +0.000 OA
ATOM     24  O   UNL     1       4.471   5.493  16.914  0.00  0.00    +0.000 OA
BRANCH  22  25
ATOM     25  N   UNL     1       3.157   4.067  18.519  0.00  0.00    +0.000 NA
ATOM     26  H   UNL     1       3.223   3.490  17.676  0.00  0.00    +0.000 HD
BRANCH  25  27
ATOM     27  C   UNL     1       3.283   3.318  19.795  0.00  0.00    +0.000 C 
BRANCH  27  29
ATOM     28  C   UNL     1       0.695   3.641  19.824  0.00  0.00    +0.000 C 
ATOM     29  C   UNL     1       1.901   2.818  20.302  0.00  0.00    +0.000 C 
ATOM     30  C   UNL     1       1.861   2.713  21.831  0.00  0.00    +0.000 C 
ENDBRANCH  27  29
BRANCH  27  31
ATOM     31  C   UNL     1       4.243   2.128  19.646  0.00  0.00    +0.000 C 
ATOM     32  O   UNL     1       5.088   1.828  20.481  0.00  0.00    +0.000 OA
BRANCH  31  33
ATOM     33  O   UNL     1       4.095   1.429  18.498  0.00  0.00    +0.000 OA
ATOM     34  H   UNL     1       3.505   1.850  17.846  0.00  0.00    +0.000 HD
ENDBRANCH  31  33
ENDBRANCH  27  31
ENDBRANCH  25  27
ENDBRANCH  22  25
ENDBRANCH   1  22
TORSDOF 10
ENDMDL
MODEL 2
REMARK VINA RESULT:      -8.0      1.186      1.440
REMARK  Name = 
REMARK  12 active torsions:
REMARK  status: ('A' for Active; 'I' for Inactive)
REMARK    1  A    between atoms: C_1  and  C_2
REMARK    2  A    between atoms: C_2  and  C_3
REMARK    3  A    between atoms: C_2  and  C_4
REMARK    4  A    between atoms: C_4  and  N_5
REMARK    5  A    between atoms: C_4  and  C_29
REMARK    6  A    between atoms: N_5  and  S_6
REMARK    7  A    between atoms: S_6  and  C_9
REMARK    8  A    between atoms: C_18  and  N_19
REMARK    9  A    between atoms: C_20  and  O_22
REMARK   10  A    between atoms: O_22  and  C_23
REMARK   11  A    between atoms: C_23  and  C_24
REMARK   12  A    between atoms: C_29  and  O_31
REMARK                            x       y       z     vdW  Elec       q    Type
REMARK                         _______ _______ _______ _____ _____    ______ ____
ROOT
ATOM      1  C   UNL     1       2.805   6.886  18.909  0.00  0.00    +0.000 A 
ATOM      2  C   UNL     1       2.566   7.916  17.991  0.00  0.00    +0.000 A 
ATOM      3  C   UNL     1       1.784   9.022  18.357  0.00  0.00    +0.000 A 
ATOM      4  C   UNL     1       1.245   9.079  19.656  0.00  0.00    +0.000 A 
ATOM      5  C   UNL     1       1.510   8.028  20.528  0.00  0.00    +0.000 A 
ATOM      6  C   UNL     1       2.282   6.915  20.210  0.00  0.00    +0.000 A 
ATOM      7  O   UNL     1       0.914   8.246  21.730  0.00  0.00    +0.000 OA
ATOM      8  C   UNL     1       0.269   9.441  21.643  0.00  0.00    +0.000 A 
ATOM      9  C   UNL     1      -0.471  10.027  22.666  0.00  0.00    +0.000 A 
ATOM     10  C   UNL     1      -1.071  11.267  22.404  0.00  0.00    +0.000 A 
ATOM     11  C   UNL     1      -0.890  11.877  21.154  0.00  0.00    +0.000 A 
ATOM     12  C   UNL     1      -0.141  11.257  20.135  0.00  0.00    +0.000 A 
ATOM     13  C   UNL     1       0.447  10.006  20.388  0.00  0.00    +0.000 A 
ENDROOT
BRANCH  10  14
ATOM     14  N   UNL     1      -1.873  11.934  23.355  0.00  0.00    +0.000 N 
ATOM     15  C   UNL     1      -3.164  12.353  23.173  0.00  0.00    +0.000 C 
ATOM     16  O   UNL     1      -3.854  12.207  22.176  0.00  0.00    +0.000 OA
ATOM     17  H   UNL     1      -1.446  12.249  24.218  0.00  0.00    +0.000 HD
BRANCH  15  18
ATOM     18  O   UNL     1      -3.578  13.060  24.259  0.00  0.00    +0.000 OA
BRANCH  18  19
ATOM     19  C   UNL     1      -4.533  14.096  23.950  0.00  0.00    +0.000 C 
BRANCH  19  20
ATOM     20  C   UNL     1      -3.939  15.498  23.897  0.00  0.00    +0.000 C 
ATOM     21  F   UNL     1      -4.234  16.150  25.056  0.00  0.00    +0.000 F 
ENDBRANCH  19  20
ENDBRANCH  18  19
ENDBRANCH  15  18
ENDBRANCH  10  14
BRANCH   1  22
ATOM     22  S   UNL     1       3.864   5.539  18.442  0.00  0.00    +0.000 S 
ATOM     23  O   UNL     1       4.864   5.399  19.472  0.00  0.00    +0.000 OA
ATOM     24  O   UNL     1       4.200   5.730  17.050  0.00  0.00    +0.000 OA
BRANCH  22  25
ATOM     25  N   UNL     1       2.841   4.194  18.511  0.00  0.00    +0.000 NA
ATOM     26  H   UNL     1       2.759   3.796  17.571  0.00  0.00    +0.000 HD
BRANCH  25  27
ATOM     27  C   UNL     1       3.089   3.200  19.586  0.00  0.00    +0.000 C 
BRANCH  27  29
ATOM     28  C   UNL     1       0.503   2.971  19.334  0.00  0.00    +0.000 C 
ATOM     29  C   UNL     1       1.759   2.622  20.145  0.00  0.00    +0.000 C 
ATOM     30  C   UNL     1       1.537   3.022  21.609  0.00  0.00    +0.000 C 
ENDBRANCH  27  29
BRANCH  27  31
ATOM     31  C   UNL     1       3.985   2.056  19.086  0.00  0.00    +0.000 C 
ATOM     32  O   UNL     1       3.679   1.308  18.166  0.00  0.00    +0.000 OA
BRANCH  31  33
ATOM     33  O   UNL     1       5.151   1.924  19.756  0.00  0.00    +0.000 OA
ATOM     34  H   UNL     1       5.287   2.587  20.459  0.00  0.00    +0.000 HD
ENDBRANCH  31  33
ENDBRANCH  27  31
ENDBRANCH  25  27
ENDBRANCH  22  25
ENDBRANCH   1  22
TORSDOF 10
ENDMDL
MODEL 3
REMARK VINA RESULT:      -7.9      2.461      3.594
REMARK  Name = 
REMARK  12 active torsions:
REMARK  status: ('A' for Active; 'I' for Inactive)
REMARK    1  A    between atoms: C_1  and  C_2
REMARK    2  A    between atoms: C_2  and  C_3
REMARK    3  A    between atoms: C_2  and  C_4
REMARK    4  A    between atoms: C_4  and  N_5
REMARK    5  A    between atoms: C_4  and  C_29
REMARK    6  A    between atoms: N_5  and  S_6
REMARK    7  A    between atoms: S_6  and  C_9
REMARK    8  A    between atoms: C_18  and  N_19
REMARK    9  A    between atoms: C_20  and  O_22
REMARK   10  A    between atoms: O_22  and  C_23
REMARK   11  A    between atoms: C_23  and  C_24
REMARK   12  A    between atoms: C_29  and  O_31
REMARK                            x       y       z     vdW  Elec       q    Type
REMARK                         _______ _______ _______ _____ _____    ______ ____
ROOT
ATOM      1  C   UNL     1       3.666   5.091  18.580  0.00  0.00    +0.000 A 
ATOM      2  C   UNL     1       3.798   5.879  17.431  0.00  0.00    +0.000 A 
ATOM      3  C   UNL     1       3.209   7.152  17.374  0.00  0.00    +0.000 A 
ATOM      4  C   UNL     1       2.487   7.620  18.488  0.00  0.00    +0.000 A 
ATOM      5  C   UNL     1       2.383   6.797  19.603  0.00  0.00    +0.000 A 
ATOM      6  C   UNL     1       2.953   5.531  19.704  0.00  0.00    +0.000 A 
ATOM      7  O   UNL     1       1.655   7.403  20.577  0.00  0.00    +0.000 OA
ATOM      8  C   UNL     1       1.291   8.624  20.099  0.00  0.00    +0.000 A 
ATOM      9  C   UNL     1       0.528   9.560  20.791  0.00  0.00    +0.000 A 
ATOM     10  C   UNL     1       0.246  10.772  20.145  0.00  0.00    +0.000 A 
ATOM     11  C   UNL     1       0.752  11.009  18.858  0.00  0.00    +0.000 A 
ATOM     12  C   UNL     1       1.516  10.041  18.179  0.00  0.00    +0.000 A 
ATOM     13  C   UNL     1       1.786   8.818  18.816  0.00  0.00    +0.000 A 
ENDROOT
BRANCH  10  14
ATOM     14  N   UNL     1      -0.548  11.777  20.739  0.00  0.00    +0.000 N 
ATOM     15  C   UNL     1      -0.092  12.837  21.477  0.00  0.00    +0.000 C 
ATOM     16  O   UNL     1       1.069  13.113  21.733  0.00  0.00    +0.000 OA
ATOM     17  H   UNL     1      -1.555  11.668  20.736  0.00  0.00    +0.000 HD
BRANCH  15  18
ATOM     18  O   UNL     1      -1.145  13.532  21.987  0.00  0.00    +0.000 OA
BRANCH  18  19
ATOM     19  C   UNL     1      -2.377  12.781  22.018  0.00  0.00    +0.000 C 
BRANCH  19  20
ATOM     20  C   UNL     1      -2.666  12.111  23.356  0.00  0.00    +0.000 C 
ATOM     21  F   UNL     1      -3.565  12.867  24.047  0.00  0.00    +0.000 F 
ENDBRANCH  19  20
ENDBRANCH  18  19
ENDBRANCH  15  18
ENDBRANCH  10  14
BRANCH   1  22
ATOM     22  S   UNL     1       4.490   3.518  18.650  0.00  0.00    +0.000 S 
ATOM     23  O   UNL     1       4.036   2.742  17.523  0.00  0.00    +0.000 OA
ATOM     24  O   UNL     1       4.386   3.049  20.013  0.00  0.00    +0.000 OA
BRANCH  22  25
ATOM     25  N   UNL     1       6.114   3.916  18.400  0.00  0.00    +0.000 NA
ATOM     26  H   UNL     1       6.651   3.051  18.295  0.00  0.00    +0.000 HD
BRANCH  25  27
ATOM     27  C   UNL     1       6.415   4.960  17.387  0.00  0.00    +0.000 C 
BRANCH  27  29
ATOM     28  C   UNL     1       7.845   5.846  19.379  0.00  0.00    +0.000 C 
ATOM     29  C   UNL     1       7.523   5.931  17.880  0.00  0.00    +0.000 C 
ATOM     30  C   UNL     1       7.205   7.387  17.518  0.00  0.00    +0.000 C 
ENDBRANCH  27  29
BRANCH  27  31
ATOM     31  C   UNL     1       6.833   4.328  16.050  0.00  0.00    +0.000 C 
ATOM     32  O   UNL     1       7.677   4.812  15.306  0.00  0.00    +0.000 OA
BRANCH  31  33
ATOM     33  O   UNL     1       6.182   3.185  15.742  0.00  0.00    +0.000 OA
ATOM     34  H   UNL     1       5.215   3.285  15.655  0.00  0.00    +0.000 HD
ENDBRANCH  31  33
ENDBRANCH  27  31
ENDBRANCH  25  27
ENDBRANCH  22  25
ENDBRANCH   1  22
TORSDOF 10
ENDMDL
MODEL 4
REMARK VINA RESULT:      -7.9      0.839      1.071
REMARK  Name = 
REMARK  12 active torsions:
REMARK  status: ('A' for Active; 'I' for Inactive)
REMARK    1  A    between atoms: C_1  and  C_2
REMARK    2  A    between atoms: C_2  and  C_3
REMARK    3  A    between atoms: C_2  and  C_4
REMARK    4  A    between atoms: C_4  and  N_5
REMARK    5  A    between atoms: C_4  and  C_29
REMARK    6  A    between atoms: N_5  and  S_6
REMARK    7  A    between atoms: S_6  and  C_9
REMARK    8  A    between atoms: C_18  and  N_19
REMARK    9  A    between atoms: C_20  and  O_22
REMARK   10  A    between atoms: O_22  and  C_23
REMARK   11  A    between atoms: C_23  and  C_24
REMARK   12  A    between atoms: C_29  and  O_31
REMARK                            x       y       z     vdW  Elec       q    Type
REMARK                         _______ _______ _______ _____ _____    ______ ____
ROOT
ATOM      1  C   UNL     1       2.990   6.657  18.737  0.00  0.00    +0.000 A 
ATOM      2  C   UNL     1       2.824   7.713  17.833  0.00  0.00    +0.000 A 
ATOM      3  C   UNL     1       2.062   8.836  18.190  0.00  0.00    +0.000 A 
ATOM      4  C   UNL     1       1.470   8.883  19.467  0.00  0.00    +0.000 A 
ATOM      5  C   UNL     1       1.663   7.806  20.325  0.00  0.00    +0.000 A 
ATOM      6  C   UNL     1       2.413   6.675  20.015  0.00  0.00    +0.000 A 
ATOM      7  O   UNL     1       1.024   8.018  21.506  0.00  0.00    +0.000 OA
ATOM      8  C   UNL     1       0.422   9.235  21.418  0.00  0.00    +0.000 A 
ATOM      9  C   UNL     1      -0.343   9.823  22.422  0.00  0.00    +0.000 A 
ATOM     10  C   UNL     1      -0.892  11.087  22.163  0.00  0.00    +0.000 A 
ATOM     11  C   UNL     1      -0.637  11.717  20.935  0.00  0.00    +0.000 A 
ATOM     12  C   UNL     1       0.134  11.095  19.935  0.00  0.00    +0.000 A 
ATOM     13  C   UNL     1       0.671   9.820  20.185  0.00  0.00    +0.000 A 
ENDROOT
BRANCH  10  14
ATOM     14  N   UNL     1      -1.712  11.759  23.094  0.00  0.00    +0.000 N 
ATOM     15  C   UNL     1      -2.917  12.354  22.829  0.00  0.00    +0.000 C 
ATOM     16  O   UNL     1      -3.503  12.390  21.758  0.00  0.00    +0.000 OA
ATOM     17  H   UNL     1      -1.351  11.936  24.024  0.00  0.00    +0.000 HD
BRANCH  15  18
ATOM     18  O   UNL     1      -3.365  13.004  23.937  0.00  0.00    +0.000 OA
BRANCH  18  19
ATOM     19  C   UNL     1      -4.653  13.632  23.762  0.00  0.00    +0.000 C 
BRANCH  19  20
ATOM     20  C   UNL     1      -5.829  12.788  24.239  0.00  0.00    +0.000 C 
ATOM     21  F   UNL     1      -6.603  12.459  23.168  0.00  0.00    +0.000 F 
ENDBRANCH  19  20
ENDBRANCH  18  19
ENDBRANCH  15  18
ENDBRANCH  10  14
BRANCH   1  22
ATOM     22  S   UNL     1       4.025   5.286  18.285  0.00  0.00    +0.000 S 
ATOM     23  O   UNL     1       5.057   5.176  19.286  0.00  0.00    +0.000 OA
ATOM     24  O   UNL     1       4.316   5.424  16.877  0.00  0.00    +0.000 OA
BRANCH  22  25
ATOM     25  N   UNL     1       2.997   3.952  18.436  0.00  0.00    +0.000 NA
ATOM     26  H   UNL     1       2.955   3.467  17.535  0.00  0.00    +0.000 HD
BRANCH  25  27
ATOM     27  C   UNL     1       3.195   3.064  19.610  0.00  0.00    +0.000 C 
BRANCH  27  29
ATOM     28  C   UNL     1       0.602   2.948  19.356  0.00  0.00    +0.000 C 
ATOM     29  C   UNL     1       1.840   2.554  20.174  0.00  0.00    +0.000 C 
ATOM     30  C   UNL     1       1.634   2.983  21.632  0.00  0.00    +0.000 C 
ENDBRANCH  27  29
BRANCH  27  31
ATOM     31  C   UNL     1       4.094   1.870  19.255  0.00  0.00    +0.000 C 
ATOM     32  O   UNL     1       3.825   1.054  18.382  0.00  0.00    +0.000 OA
BRANCH  31  33
ATOM     33  O   UNL     1       5.220   1.775  19.998  0.00  0.00    +0.000 OA
ATOM     34  H   UNL     1       5.753   0.979  19.817  0.00  0.00    +0.000 HD
ENDBRANCH  31  33
ENDBRANCH  27  31
ENDBRANCH  25  27
ENDBRANCH  22  25
ENDBRANCH   1  22
TORSDOF 10
ENDMDL
MODEL 5
REMARK VINA RESULT:      -7.8      1.332      1.525
REMARK  Name = 
REMARK  12 active torsions:
REMARK  status: ('A' for Active; 'I' for Inactive)
REMARK    1  A    between atoms: C_1  and  C_2
REMARK    2  A    between atoms: C_2  and  C_3
REMARK    3  A    between atoms: C_2  and  C_4
REMARK    4  A    between atoms: C_4  and  N_5
REMARK    5  A    between atoms: C_4  and  C_29
REMARK    6  A    between atoms: N_5  and  S_6
REMARK    7  A    between atoms: S_6  and  C_9
REMARK    8  A    between atoms: C_18  and  N_19
REMARK    9  A    between atoms: C_20  and  O_22
REMARK   10  A    between atoms: O_22  and  C_23
REMARK   11  A    between atoms: C_23  and  C_24
REMARK   12  A    between atoms: C_29  and  O_31
REMARK                            x       y       z     vdW  Elec       q    Type
REMARK                         _______ _______ _______ _____ _____    ______ ____
ROOT
ATOM      1  C   UNL     1       2.756   6.918  18.759  0.00  0.00    +0.000 A 
ATOM      2  C   UNL     1       2.516   7.858  17.750  0.00  0.00    +0.000 A 
ATOM      3  C   UNL     1       1.744   8.999  18.015  0.00  0.00    +0.000 A 
ATOM      4  C   UNL     1       1.217   9.183  19.307  0.00  0.00    +0.000 A 
ATOM      5  C   UNL     1       1.482   8.217  20.273  0.00  0.00    +0.000 A 
ATOM      6  C   UNL     1       2.244   7.073  20.055  0.00  0.00    +0.000 A 
ATOM      7  O   UNL     1       0.897   8.552  21.454  0.00  0.00    +0.000 OA
ATOM      8  C   UNL     1       0.259   9.738  21.259  0.00  0.00    +0.000 A 
ATOM      9  C   UNL     1      -0.469  10.423  22.227  0.00  0.00    +0.000 A 
ATOM     10  C   UNL     1      -1.064  11.636  21.853  0.00  0.00    +0.000 A 
ATOM     11  C   UNL     1      -0.889  12.125  20.550  0.00  0.00    +0.000 A 
ATOM     12  C   UNL     1      -0.152  11.406  19.588  0.00  0.00    +0.000 A 
ATOM     13  C   UNL     1       0.430  10.181  19.955  0.00  0.00    +0.000 A 
ENDROOT
BRANCH  10  14
ATOM     14  N   UNL     1      -1.853  12.396  22.743  0.00  0.00    +0.000 N 
ATOM     15  C   UNL     1      -1.482  13.562  23.360  0.00  0.00    +0.000 C 
ATOM     16  O   UNL     1      -0.424  14.159  23.235  0.00  0.00    +0.000 OA
ATOM     17  H   UNL     1      -2.733  12.010  23.066  0.00  0.00    +0.000 HD
BRANCH  15  18
ATOM     18  O   UNL     1      -2.449  13.949  24.236  0.00  0.00    +0.000 OA
BRANCH  18  19
ATOM     19  C   UNL     1      -2.737  15.362  24.197  0.00  0.00    +0.000 C 
BRANCH  19  20
ATOM     20  C   UNL     1      -2.183  16.145  25.382  0.00  0.00    +0.000 C 
ATOM     21  F   UNL     1      -1.937  15.284  26.408  0.00  0.00    +0.000 F 
ENDBRANCH  19  20
ENDBRANCH  18  19
ENDBRANCH  15  18
ENDBRANCH  10  14
BRANCH   1  22
ATOM     22  S   UNL     1       3.803   5.525  18.413  0.00  0.00    +0.000 S 
ATOM     23  O   UNL     1       4.796   5.462  19.458  0.00  0.00    +0.000 OA
ATOM     24  O   UNL     1       4.148   5.596  17.012  0.00  0.00    +0.000 OA
BRANCH  22  25
ATOM     25  N   UNL     1       2.765   4.202  18.588  0.00  0.00    +0.000 NA
ATOM     26  H   UNL     1       2.593   3.796  17.664  0.00  0.00    +0.000 HD
BRANCH  25  27
ATOM     27  C   UNL     1       3.088   3.215  19.649  0.00  0.00    +0.000 C 
BRANCH  27  29
ATOM     28  C   UNL     1       0.503   2.896  19.516  0.00  0.00    +0.000 C 
ATOM     29  C   UNL     1       1.800   2.626  20.292  0.00  0.00    +0.000 C 
ATOM     30  C   UNL     1       1.624   3.095  21.741  0.00  0.00    +0.000 C 
ENDBRANCH  27  29
BRANCH  27  31
ATOM     31  C   UNL     1       3.961   2.077  19.099  0.00  0.00    +0.000 C 
ATOM     32  O   UNL     1       3.647   1.382  18.141  0.00  0.00    +0.000 OA
BRANCH  31  33
ATOM     33  O   UNL     1       5.119   1.885  19.770  0.00  0.00    +0.000 OA
ATOM     34  H   UNL     1       5.019   1.409  20.615  0.00  0.00    +0.000 HD
ENDBRANCH  31  33
ENDBRANCH  27  31
ENDBRANCH  25  27
ENDBRANCH  22  25
ENDBRANCH   1  22
TORSDOF 10
ENDMDL
MODEL 6
REMARK VINA RESULT:      -7.8      1.418      1.618
REMARK  Name = 
REMARK  12 active torsions:
REMARK  status: ('A' for Active; 'I' for Inactive)
REMARK    1  A    between atoms: C_1  and  C_2
REMARK    2  A    between atoms: C_2  and  C_3
REMARK    3  A    between atoms: C_2  and  C_4
REMARK    4  A    between atoms: C_4  and  N_5
REMARK    5  A    between atoms: C_4  and  C_29
REMARK    6  A    between atoms: N_5  and  S_6
REMARK    7  A    between atoms: S_6  and  C_9
REMARK    8  A    between atoms: C_18  and  N_19
REMARK    9  A    between atoms: C_20  and  O_22
REMARK   10  A    between atoms: O_22  and  C_23
REMARK   11  A    between atoms: C_23  and  C_24
REMARK   12  A    between atoms: C_29  and  O_31
REMARK                            x       y       z     vdW  Elec       q    Type
REMARK                         _______ _______ _______ _____ _____    ______ ____
ROOT
ATOM      1  C   UNL     1       4.105   5.891  18.286  0.00  0.00    +0.000 A 
ATOM      2  C   UNL     1       4.050   6.832  17.252  0.00  0.00    +0.000 A 
ATOM      3  C   UNL     1       3.206   7.949  17.356  0.00  0.00    +0.000 A 
ATOM      4  C   UNL     1       2.422   8.107  18.515  0.00  0.00    +0.000 A 
ATOM      5  C   UNL     1       2.512   7.141  19.511  0.00  0.00    +0.000 A 
ATOM      6  C   UNL     1       3.336   6.021  19.451  0.00  0.00    +0.000 A 
ATOM      7  O   UNL     1       1.690   7.450  20.549  0.00  0.00    +0.000 OA
ATOM      8  C   UNL     1       1.071   8.619  20.231  0.00  0.00    +0.000 A 
ATOM      9  C   UNL     1       0.141   9.276  21.032  0.00  0.00    +0.000 A 
ATOM     10  C   UNL     1      -0.400  10.475  20.548  0.00  0.00    +0.000 A 
ATOM     11  C   UNL     1       0.023  10.979  19.309  0.00  0.00    +0.000 A 
ATOM     12  C   UNL     1       0.961  10.289  18.516  0.00  0.00    +0.000 A 
ATOM     13  C   UNL     1       1.492   9.077  18.990  0.00  0.00    +0.000 A 
ENDROOT
BRANCH  10  14
ATOM     14  N   UNL     1      -1.376  11.205  21.260  0.00  0.00    +0.000 N 
ATOM     15  C   UNL     1      -1.364  11.473  22.603  0.00  0.00    +0.000 C 
ATOM     16  O   UNL     1      -0.508  11.154  23.413  0.00  0.00    +0.000 OA
ATOM     17  H   UNL     1      -2.232  11.467  20.786  0.00  0.00    +0.000 HD
BRANCH  15  18
ATOM     18  O   UNL     1      -2.520  12.097  22.960  0.00  0.00    +0.000 OA
BRANCH  18  19
ATOM     19  C   UNL     1      -2.789  13.298  22.207  0.00  0.00    +0.000 C 
BRANCH  19  20
ATOM     20  C   UNL     1      -4.258  13.495  21.849  0.00  0.00    +0.000 C 
ATOM     21  F   UNL     1      -4.822  12.280  21.603  0.00  0.00    +0.000 F 
ENDBRANCH  19  20
ENDBRANCH  18  19
ENDBRANCH  15  18
ENDBRANCH  10  14
BRANCH   1  22
ATOM     22  S   UNL     1       5.241   4.530  18.158  0.00  0.00    +0.000 S 
ATOM     23  O   UNL     1       6.044   4.524  19.356  0.00  0.00    +0.000 OA
ATOM     24  O   UNL     1       5.816   4.586  16.834  0.00  0.00    +0.000 OA
BRANCH  22  25
ATOM     25  N   UNL     1       4.232   3.174  18.189  0.00  0.00    +0.000 NA
ATOM     26  H   UNL     1       4.605   2.473  17.543  0.00  0.00    +0.000 HD
BRANCH  25  27
ATOM     27  C   UNL     1       3.837   2.645  19.519  0.00  0.00    +0.000 C 
BRANCH  27  29
ATOM     28  C   UNL     1       1.484   2.857  18.416  0.00  0.00    +0.000 C 
ATOM     29  C   UNL     1       2.327   2.282  19.564  0.00  0.00    +0.000 C 
ATOM     30  C   UNL     1       1.688   2.677  20.901  0.00  0.00    +0.000 C 
ENDBRANCH  27  29
BRANCH  27  31
ATOM     31  C   UNL     1       4.679   1.416  19.897  0.00  0.00    +0.000 C 
ATOM     32  O   UNL     1       5.351   1.341  20.918  0.00  0.00    +0.000 OA
BRANCH  31  33
ATOM     33  O   UNL     1       4.632   0.407  18.999  0.00  0.00    +0.000 OA
ATOM     34  H   UNL     1       3.949  -0.264  19.184  0.00  0.00    +0.000 HD
ENDBRANCH  31  33
ENDBRANCH  27  31
ENDBRANCH  25  27
ENDBRANCH  22  25
ENDBRANCH   1  22
TORSDOF 10
ENDMDL
MODEL 7
REMARK VINA RESULT:      -7.7      3.100      4.555
REMARK  Name = 
REMARK  12 active torsions:
REMARK  status: ('A' for Active; 'I' for Inactive)
REMARK    1  A    between atoms: C_1  and  C_2
REMARK    2  A    between atoms: C_2  and  C_3
REMARK    3  A    between atoms: C_2  and  C_4
REMARK    4  A    between atoms: C_4  and  N_5
REMARK    5  A    between atoms: C_4  and  C_29
REMARK    6  A    between atoms: N_5  and  S_6
REMARK    7  A    between atoms: S_6  and  C_9
REMARK    8  A    between atoms: C_18  and  N_19
REMARK    9  A    between atoms: C_20  and  O_22
REMARK   10  A    between atoms: O_22  and  C_23
REMARK   11  A    between atoms: C_23  and  C_24
REMARK   12  A    between atoms: C_29  and  O_31
REMARK                            x       y       z     vdW  Elec       q    Type
REMARK                         _______ _______ _______ _____ _____    ______ ____
ROOT
ATOM      1  C   UNL     1       3.419   4.991  18.696  0.00  0.00    +0.000 A 
ATOM      2  C   UNL     1       2.942   4.738  19.988  0.00  0.00    +0.000 A 
ATOM      3  C   UNL     1       2.240   5.730  20.689  0.00  0.00    +0.000 A 
ATOM      4  C   UNL     1       2.024   6.979  20.075  0.00  0.00    +0.000 A 
ATOM      5  C   UNL     1       2.522   7.179  18.792  0.00  0.00    +0.000 A 
ATOM      6  C   UNL     1       3.220   6.223  18.059  0.00  0.00    +0.000 A 
ATOM      7  O   UNL     1       2.226   8.433  18.357  0.00  0.00    +0.000 OA
ATOM      8  C   UNL     1       1.530   9.044  19.353  0.00  0.00    +0.000 A 
ATOM      9  C   UNL     1       1.043  10.348  19.305  0.00  0.00    +0.000 A 
ATOM     10  C   UNL     1       0.344  10.820  20.425  0.00  0.00    +0.000 A 
ATOM     11  C   UNL     1       0.139   9.974  21.525  0.00  0.00    +0.000 A 
ATOM     12  C   UNL     1       0.649   8.662  21.549  0.00  0.00    +0.000 A 
ATOM     13  C   UNL     1       1.365   8.191  20.435  0.00  0.00    +0.000 A 
ENDROOT
BRANCH  10  14
ATOM     14  N   UNL     1      -0.162  12.136  20.499  0.00  0.00    +0.000 N 
ATOM     15  C   UNL     1       0.512  13.236  20.958  0.00  0.00    +0.000 C 
ATOM     16  O   UNL     1       1.664  13.283  21.359  0.00  0.00    +0.000 OA
ATOM     17  H   UNL     1      -1.146  12.291  20.313  0.00  0.00    +0.000 HD
BRANCH  15  18
ATOM     18  O   UNL     1      -0.325  14.309  20.993  0.00  0.00    +0.000 OA
BRANCH  18  19
ATOM     19  C   UNL     1      -0.757  14.754  19.690  0.00  0.00    +0.000 C 
BRANCH  19  20
ATOM     20  C   UNL     1      -0.073  16.027  19.207  0.00  0.00    +0.000 C 
ATOM     21  F   UNL     1      -0.695  16.465  18.078  0.00  0.00    +0.000 F 
ENDBRANCH  19  20
ENDBRANCH  18  19
ENDBRANCH  15  18
ENDBRANCH  10  14
BRANCH   1  22
ATOM     22  S   UNL     1       4.234   3.688  17.805  0.00  0.00    +0.000 S 
ATOM     23  O   UNL     1       3.820   3.783  16.427  0.00  0.00    +0.000 OA
ATOM     24  O   UNL     1       4.078   2.482  18.585  0.00  0.00    +0.000 OA
BRANCH  22  25
ATOM     25  N   UNL     1       5.868   4.113  17.897  0.00  0.00    +0.000 NA
ATOM     26  H   UNL     1       6.432   3.315  17.594  0.00  0.00    +0.000 HD
BRANCH  25  27
ATOM     27  C   UNL     1       6.270   5.416  17.308  0.00  0.00    +0.000 C 
BRANCH  27  29
ATOM     28  C   UNL     1       7.623   5.721  19.517  0.00  0.00    +0.000 C 
ATOM     29  C   UNL     1       7.532   5.993  18.008  0.00  0.00    +0.000 C 
ATOM     30  C   UNL     1       7.679   7.499  17.761  0.00  0.00    +0.000 C 
ENDBRANCH  27  29
BRANCH  27  31
ATOM     31  C   UNL     1       6.527   5.285  15.799  0.00  0.00    +0.000 C 
ATOM     32  O   UNL     1       7.504   4.721  15.323  0.00  0.00    +0.000 OA
BRANCH  31  33
ATOM     33  O   UNL     1       5.584   5.859  15.018  0.00  0.00    +0.000 OA
ATOM     34  H   UNL     1       5.450   6.811  15.185  0.00  0.00    +0.000 HD
ENDBRANCH  31  33
ENDBRANCH  27  31
ENDBRANCH  25  27
ENDBRANCH  22  25
ENDBRANCH   1  22
TORSDOF 10
ENDMDL
MODEL 8
REMARK VINA RESULT:      -7.7      1.166      1.421
REMARK  Name = 
REMARK  12 active torsions:
REMARK  status: ('A' for Active; 'I' for Inactive)
REMARK    1  A    between atoms: C_1  and  C_2
REMARK    2  A    between atoms: C_2  and  C_3
REMARK    3  A    between atoms: C_2  and  C_4
REMARK    4  A    between atoms: C_4  and  N_5
REMARK    5  A    between atoms: C_4  and  C_29
REMARK    6  A    between atoms: N_5  and  S_6
REMARK    7  A    between atoms: S_6  and  C_9
REMARK    8  A    between atoms: C_18  and  N_19
REMARK    9  A    between atoms: C_20  and  O_22
REMARK   10  A    between atoms: O_22  and  C_23
REMARK   11  A    between atoms: C_23  and  C_24
REMARK   12  A    between atoms: C_29  and  O_31
REMARK                            x       y       z     vdW  Elec       q    Type
REMARK                         _______ _______ _______ _____ _____    ______ ____
ROOT
ATOM      1  C   UNL     1       2.690   7.318  18.737  0.00  0.00    +0.000 A 
ATOM      2  C   UNL     1       2.363   8.349  17.849  0.00  0.00    +0.000 A 
ATOM      3  C   UNL     1       1.541   9.407  18.266  0.00  0.00    +0.000 A 
ATOM      4  C   UNL     1       1.054   9.415  19.588  0.00  0.00    +0.000 A 
ATOM      5  C   UNL     1       1.407   8.365  20.428  0.00  0.00    +0.000 A 
ATOM      6  C   UNL     1       2.221   7.298  20.058  0.00  0.00    +0.000 A 
ATOM      7  O   UNL     1       0.851   8.532  21.657  0.00  0.00    +0.000 OA
ATOM      8  C   UNL     1       0.144   9.693  21.619  0.00  0.00    +0.000 A 
ATOM      9  C   UNL     1      -0.583  10.223  22.682  0.00  0.00    +0.000 A 
ATOM     10  C   UNL     1      -1.256  11.435  22.467  0.00  0.00    +0.000 A 
ATOM     11  C   UNL     1      -1.157  12.074  21.222  0.00  0.00    +0.000 A 
ATOM     12  C   UNL     1      -0.420  11.511  20.162  0.00  0.00    +0.000 A 
ATOM     13  C   UNL     1       0.241  10.288  20.368  0.00  0.00    +0.000 A 
ENDROOT
BRANCH  10  14
ATOM     14  N   UNL     1      -2.050  12.043  23.462  0.00  0.00    +0.000 N 
ATOM     15  C   UNL     1      -3.367  12.400  23.339  0.00  0.00    +0.000 C 
ATOM     16  O   UNL     1      -4.088  12.238  22.368  0.00  0.00    +0.000 OA
ATOM     17  H   UNL     1      -1.604  12.364  24.313  0.00  0.00    +0.000 HD
BRANCH  15  18
ATOM     18  O   UNL     1      -3.771  13.066  24.455  0.00  0.00    +0.000 OA
BRANCH  18  19
ATOM     19  C   UNL     1      -3.432  14.469  24.449  0.00  0.00    +0.000 C 
BRANCH  19  20
ATOM     20  C   UNL     1      -4.572  15.384  24.016  0.00  0.00    +0.000 C 
ATOM     21  F   UNL     1      -5.740  14.685  24.046  0.00  0.00    +0.000 F 
ENDBRANCH  19  20
ENDBRANCH  18  19
ENDBRANCH  15  18
ENDBRANCH  10  14
BRANCH   1  22
ATOM     22  S   UNL     1       3.797   6.035  18.203  0.00  0.00    +0.000 S 
ATOM     23  O   UNL     1       4.805   5.881  19.222  0.00  0.00    +0.000 OA
ATOM     24  O   UNL     1       4.120   6.306  16.821  0.00  0.00    +0.000 OA
BRANCH  22  25
ATOM     25  N   UNL     1       2.824   4.652  18.207  0.00  0.00    +0.000 NA
ATOM     26  H   UNL     1       2.941   4.166  17.314  0.00  0.00    +0.000 HD
BRANCH  25  27
ATOM     27  C   UNL     1       2.887   3.775  19.404  0.00  0.00    +0.000 C 
BRANCH  27  29
ATOM     28  C   UNL     1       1.374   2.749  21.264  0.00  0.00    +0.000 C 
ATOM     29  C   UNL     1       1.473   3.289  19.830  0.00  0.00    +0.000 C 
ATOM     30  C   UNL     1       0.918   2.239  18.860  0.00  0.00    +0.000 C 
ENDBRANCH  27  29
BRANCH  27  31
ATOM     31  C   UNL     1       3.800   2.565  19.155  0.00  0.00    +0.000 C 
ATOM     32  O   UNL     1       4.318   1.909  20.051  0.00  0.00    +0.000 OA
BRANCH  31  33
ATOM     33  O   UNL     1       4.006   2.276  17.851  0.00  0.00    +0.000 OA
ATOM     34  H   UNL     1       4.425   1.410  17.693  0.00  0.00    +0.000 HD
ENDBRANCH  31  33
ENDBRANCH  27  31
ENDBRANCH  25  27
ENDBRANCH  22  25
ENDBRANCH   1  22
TORSDOF 10
ENDMDL
MODEL 9
REMARK VINA RESULT:      -7.6      2.593      3.678
REMARK  Name = 
REMARK  12 active torsions:
REMARK  status: ('A' for Active; 'I' for Inactive)
REMARK    1  A    between atoms: C_1  and  C_2
REMARK    2  A    between atoms: C_2  and  C_3
REMARK    3  A    between atoms: C_2  and  C_4
REMARK    4  A    between atoms: C_4  and  N_5
REMARK    5  A    between atoms: C_4  and  C_29
REMARK    6  A    between atoms: N_5  and  S_6
REMARK    7  A    between atoms: S_6  and  C_9
REMARK    8  A    between atoms: C_18  and  N_19
REMARK    9  A    between atoms: C_20  and  O_22
REMARK   10  A    between atoms: O_22  and  C_23
REMARK   11  A    between atoms: C_23  and  C_24
REMARK   12  A    between atoms: C_29  and  O_31
REMARK                            x       y       z     vdW  Elec       q    Type
REMARK                         _______ _______ _______ _____ _____    ______ ____
ROOT
ATOM      1  C   UNL     1       3.599   5.105  18.629  0.00  0.00    +0.000 A 
ATOM      2  C   UNL     1       3.713   5.951  17.519  0.00  0.00    +0.000 A 
ATOM      3  C   UNL     1       3.125   7.225  17.538  0.00  0.00    +0.000 A 
ATOM      4  C   UNL     1       2.422   7.636  18.686  0.00  0.00    +0.000 A 
ATOM      5  C   UNL     1       2.335   6.757  19.759  0.00  0.00    +0.000 A 
ATOM      6  C   UNL     1       2.905   5.487  19.786  0.00  0.00    +0.000 A 
ATOM      7  O   UNL     1       1.624   7.313  20.775  0.00  0.00    +0.000 OA
ATOM      8  C   UNL     1       1.254   8.557  20.365  0.00  0.00    +0.000 A 
ATOM      9  C   UNL     1       0.503   9.457  21.117  0.00  0.00    +0.000 A 
ATOM     10  C   UNL     1       0.212  10.700  20.539  0.00  0.00    +0.000 A 
ATOM     11  C   UNL     1       0.698  11.003  19.258  0.00  0.00    +0.000 A 
ATOM     12  C   UNL     1       1.449  10.070  18.517  0.00  0.00    +0.000 A 
ATOM     13  C   UNL     1       1.728   8.816  19.087  0.00  0.00    +0.000 A 
ENDROOT
BRANCH  10  14
ATOM     14  N   UNL     1      -0.571  11.674  21.196  0.00  0.00    +0.000 N 
ATOM     15  C   UNL     1      -0.863  11.707  22.534  0.00  0.00    +0.000 C 
ATOM     16  O   UNL     1      -0.487  10.924  23.392  0.00  0.00    +0.000 OA
ATOM     17  H   UNL     1      -1.071  12.355  20.638  0.00  0.00    +0.000 HD
BRANCH  15  18
ATOM     18  O   UNL     1      -1.736  12.719  22.790  0.00  0.00    +0.000 OA
BRANCH  18  19
ATOM     19  C   UNL     1      -1.104  13.927  23.264  0.00  0.00    +0.000 C 
BRANCH  19  20
ATOM     20  C   UNL     1      -1.886  14.656  24.350  0.00  0.00    +0.000 C 
ATOM     21  F   UNL     1      -1.996  15.971  24.011  0.00  0.00    +0.000 F 
ENDBRANCH  19  20
ENDBRANCH  18  19
ENDBRANCH  15  18
ENDBRANCH  10  14
BRANCH   1  22
ATOM     22  S   UNL     1       4.422   3.530  18.605  0.00  0.00    +0.000 S 
ATOM     23  O   UNL     1       3.980   2.830  17.425  0.00  0.00    +0.000 OA
ATOM     24  O   UNL     1       4.304   2.974  19.933  0.00  0.00    +0.000 OA
BRANCH  22  25
ATOM     25  N   UNL     1       6.049   3.942  18.399  0.00  0.00    +0.000 NA
ATOM     26  H   UNL     1       6.593   3.083  18.284  0.00  0.00    +0.000 HD
BRANCH  25  27
ATOM     27  C   UNL     1       6.365   5.012  17.418  0.00  0.00    +0.000 C 
BRANCH  27  29
ATOM     28  C   UNL     1       7.784   5.853  19.438  0.00  0.00    +0.000 C 
ATOM     29  C   UNL     1       7.503   5.938  17.931  0.00  0.00    +0.000 C 
ATOM     30  C   UNL     1       7.259   7.403  17.549  0.00  0.00    +0.000 C 
ENDBRANCH  27  29
BRANCH  27  31
ATOM     31  C   UNL     1       6.752   4.417  16.056  0.00  0.00    +0.000 C 
ATOM     32  O   UNL     1       7.846   4.581  15.530  0.00  0.00    +0.000 OA
BRANCH  31  33
ATOM     33  O   UNL     1       5.775   3.695  15.462  0.00  0.00    +0.000 OA
ATOM     34  H   UNL     1       4.959   4.197  15.280  0.00  0.00    +0.000 HD
ENDBRANCH  31  33
ENDBRANCH  27  31
ENDBRANCH  25  27
ENDBRANCH  22  25
ENDBRANCH   1  22
TORSDOF 10
ENDMDL
