MODEL 1
REMARK VINA RESULT:      -8.0      0.000      0.000
REMARK  Name = 
REMARK  2 active torsions:
REMARK  status: ('A' for Active; 'I' for Inactive)
REMARK    1  A    between atoms: C_2  and  C_3
REMARK    2  A    between atoms: N_7  and  C_8
REMARK                            x       y       z     vdW  Elec       q    Type
REMARK                         _______ _______ _______ _____ _____    ______ ____
ROOT
ATOM      1  C   UNL     1       1.709   9.322  18.741  0.00  0.00    +0.000 C 
ATOM      2  C   UNL     1       1.850  10.750  19.243  0.00  0.00    +0.000 C 
ATOM      3  C   UNL     1       0.447  11.292  19.210  0.00  0.00    +0.000 C 
ATOM      4  O   UNL     1       0.133  12.321  19.792  0.00  0.00    +0.000 OA
ATOM      5  N   UNL     1      -0.316  10.485  18.361  0.00  0.00    +0.000 N 
ATOM      6  C   UNL     1       0.488   9.403  17.831  0.00  0.00    +0.000 C 
ENDROOT
BRANCH   1   8
ATOM      7  O   UNL     1       0.859   8.588  20.863  0.00  0.00    +0.000 OA
ATOM      8  C   UNL     1       1.529   8.303  19.869  0.00  0.00    +0.000 C 
ATOM      9  N   UNL     1       2.092   7.041  19.717  0.00  0.00    +0.000 N 
ATOM     10  C   UNL     1       2.943   6.594  18.615  0.00  0.00    +0.000 C 
ATOM     11  C   UNL     1       2.358   5.353  17.961  0.00  0.00    +0.000 C 
ATOM     12  C   UNL     1       2.147   4.243  18.990  0.00  0.00    +0.000 C 
ATOM     13  C   UNL     1       1.327   4.739  20.182  0.00  0.00    +0.000 C 
ATOM     14  C   UNL     1       1.888   6.033  20.765  0.00  0.00    +0.000 C 
ATOM     15  O   UNL     1       3.433   3.775  19.430  0.00  0.00    +0.000 OA
ATOM     16  C   UNL     1       3.365   2.354  19.326  0.00  0.00    +0.000 C 
ATOM     17  C   UNL     1       2.396   2.121  18.201  0.00  0.00    +0.000 C 
ATOM     18  O   UNL     1       1.434   3.160  18.369  0.00  0.00    +0.000 OA
ENDBRANCH   1   8
BRANCH   5  19
ATOM     19  C   UNL     1      -1.655  10.727  17.950  0.00  0.00    +0.000 A 
ATOM     20  C   UNL     1      -2.580  11.376  18.790  0.00  0.00    +0.000 A 
ATOM     21  C   UNL     1      -3.889  11.634  18.367  0.00  0.00    +0.000 A 
ATOM     22  C   UNL     1      -4.293  11.247  17.096  0.00  0.00    +0.000 A 
ATOM     23  F   UNL     1      -5.545  11.517  16.704  0.00  0.00    +0.000 F 
ATOM     24  C   UNL     1      -3.403  10.595  16.252  0.00  0.00    +0.000 A 
ATOM     25 CL   UNL     1      -3.890  10.114  14.671  0.00  0.00    +0.000 Cl
ATOM     26  C   UNL     1      -2.097  10.332  16.675  0.00  0.00    +0.000 A 
ENDBRANCH   5  19
TORSDOF 2
ENDMDL
MODEL 2
REMARK VINA RESULT:      -7.8      1.145      1.481
REMARK  Name = 
REMARK  2 active torsions:
REMARK  status: ('A' for Active; 'I' for Inactive)
REMARK    1  A    between atoms: C_2  and  C_3
REMARK    2  A    between atoms: N_7  and  C_8
REMARK                            x       y       z     vdW  Elec       q    Type
REMARK                         _______ _______ _______ _____ _____    ______ ____
ROOT
ATOM      1  C   UNL     1       1.665   9.268  18.415  0.00  0.00    +0.000 C 
ATOM      2  C   UNL     1       1.912  10.728  18.760  0.00  0.00    +0.000 C 
ATOM      3  C   UNL     1       0.534  11.327  18.835  0.00  0.00    +0.000 C 
ATOM      4  O   UNL     1       0.325  12.418  19.348  0.00  0.00    +0.000 OA
ATOM      5  N   UNL     1      -0.349  10.482  18.157  0.00  0.00    +0.000 N 
ATOM      6  C   UNL     1       0.349   9.321  17.645  0.00  0.00    +0.000 C 
ENDROOT
BRANCH   1   8
ATOM      7  O   UNL     1       0.991   8.746  20.660  0.00  0.00    +0.000 OA
ATOM      8  C   UNL     1       1.582   8.365  19.648  0.00  0.00    +0.000 C 
ATOM      9  N   UNL     1       2.141   7.094  19.575  0.00  0.00    +0.000 N 
ATOM     10  C   UNL     1       2.906   6.541  18.457  0.00  0.00    +0.000 C 
ATOM     11  C   UNL     1       2.280   5.242  17.976  0.00  0.00    +0.000 C 
ATOM     12  C   UNL     1       2.159   4.238  19.121  0.00  0.00    +0.000 C 
ATOM     13  C   UNL     1       1.433   4.848  20.321  0.00  0.00    +0.000 C 
ATOM     14  C   UNL     1       2.028   6.193  20.728  0.00  0.00    +0.000 C 
ATOM     15  O   UNL     1       3.480   3.815  19.501  0.00  0.00    +0.000 OA
ATOM     16  C   UNL     1       3.415   2.390  19.541  0.00  0.00    +0.000 C 
ATOM     17  C   UNL     1       2.361   2.049  18.525  0.00  0.00    +0.000 C 
ATOM     18  O   UNL     1       1.407   3.099  18.668  0.00  0.00    +0.000 OA
ENDBRANCH   1   8
BRANCH   5  19
ATOM     19  C   UNL     1      -1.718  10.745  17.879  0.00  0.00    +0.000 A 
ATOM     20  C   UNL     1      -2.333  10.291  16.696  0.00  0.00    +0.000 A 
ATOM     21  C   UNL     1      -3.688  10.531  16.443  0.00  0.00    +0.000 A 
ATOM     22  C   UNL     1      -4.451  11.229  17.371  0.00  0.00    +0.000 A 
ATOM     23  F   UNL     1      -5.750  11.435  17.117  0.00  0.00    +0.000 F 
ATOM     24  C   UNL     1      -3.866  11.698  18.540  0.00  0.00    +0.000 A 
ATOM     25 CL   UNL     1      -4.802  12.560  19.701  0.00  0.00    +0.000 Cl
ATOM     26  C   UNL     1      -2.511  11.463  18.792  0.00  0.00    +0.000 A 
ENDBRANCH   5  19
TORSDOF 2
ENDMDL
MODEL 3
REMARK VINA RESULT:      -7.6      1.164      1.351
REMARK  Name = 
REMARK  2 active torsions:
REMARK  status: ('A' for Active; 'I' for Inactive)
REMARK    1  A    between atoms: C_2  and  C_3
REMARK    2  A    between atoms: N_7  and  C_8
REMARK                            x       y       z     vdW  Elec       q    Type
REMARK                         _______ _______ _______ _____ _____    ______ ____
ROOT
ATOM      1  C   UNL     1       1.568   9.010  18.143  0.00  0.00    +0.000 C 
ATOM      2  C   UNL     1       2.205  10.390  18.188  0.00  0.00    +0.000 C 
ATOM      3  C   UNL     1       1.120  11.280  18.729  0.00  0.00    +0.000 C 
ATOM      4  O   UNL     1       1.350  12.405  19.150  0.00  0.00    +0.000 OA
ATOM      5  N   UNL     1      -0.106  10.630  18.559  0.00  0.00    +0.000 N 
ATOM      6  C   UNL     1       0.088   9.328  17.953  0.00  0.00    +0.000 C 
ENDROOT
BRANCH   1   8
ATOM      7  O   UNL     1       1.516   8.626  20.513  0.00  0.00    +0.000 OA
ATOM      8  C   UNL     1       1.830   8.186  19.405  0.00  0.00    +0.000 C 
ATOM      9  N   UNL     1       2.376   6.915  19.264  0.00  0.00    +0.000 N 
ATOM     10  C   UNL     1       2.833   6.297  18.020  0.00  0.00    +0.000 C 
ATOM     11  C   UNL     1       2.130   4.968  17.797  0.00  0.00    +0.000 C 
ATOM     12  C   UNL     1       2.334   4.037  18.991  0.00  0.00    +0.000 C 
ATOM     13  C   UNL     1       1.934   4.717  20.301  0.00  0.00    +0.000 C 
ATOM     14  C   UNL     1       2.588   6.088  20.458  0.00  0.00    +0.000 C 
ATOM     15  O   UNL     1       3.717   3.644  19.036  0.00  0.00    +0.000 OA
ATOM     16  C   UNL     1       3.694   2.225  19.176  0.00  0.00    +0.000 C 
ATOM     17  C   UNL     1       2.418   1.815  18.494  0.00  0.00    +0.000 C 
ATOM     18  O   UNL     1       1.514   2.868  18.820  0.00  0.00    +0.000 OA
ENDBRANCH   1   8
BRANCH   5  19
ATOM     19  C   UNL     1      -1.392  11.179  18.814  0.00  0.00    +0.000 A 
ATOM     20  C   UNL     1      -1.665  11.908  19.988  0.00  0.00    +0.000 A 
ATOM     21  C   UNL     1      -2.926  12.470  20.218  0.00  0.00    +0.000 A 
ATOM     22  C   UNL     1      -3.934  12.311  19.276  0.00  0.00    +0.000 A 
ATOM     23  F   UNL     1      -5.130  12.869  19.508  0.00  0.00    +0.000 F 
ATOM     24  C   UNL     1      -3.695  11.586  18.116  0.00  0.00    +0.000 A 
ATOM     25 CL   UNL     1      -4.936  11.387  16.938  0.00  0.00    +0.000 Cl
ATOM     26  C   UNL     1      -2.437  11.021  17.887  0.00  0.00    +0.000 A 
ENDBRANCH   5  19
TORSDOF 2
ENDMDL
MODEL 4
REMARK VINA RESULT:      -7.3      1.515      1.770
REMARK  Name = 
REMARK  2 active torsions:
REMARK  status: ('A' for Active; 'I' for Inactive)
REMARK    1  A    between atoms: C_2  and  C_3
REMARK    2  A    between atoms: N_7  and  C_8
REMARK                            x       y       z     vdW  Elec       q    Type
REMARK                         _______ _______ _______ _____ _____    ______ ____
ROOT
ATOM      1  C   UNL     1       0.874   9.804  18.492  0.00  0.00    +0.000 C 
ATOM      2  C   UNL     1       1.430  11.212  18.641  0.00  0.00    +0.000 C 
ATOM      3  C   UNL     1       0.281  12.004  19.203  0.00  0.00    +0.000 C 
ATOM      4  O   UNL     1       0.435  13.111  19.700  0.00  0.00    +0.000 OA
ATOM      5  N   UNL     1      -0.900  11.298  18.959  0.00  0.00    +0.000 N 
ATOM      6  C   UNL     1      -0.616  10.050  18.280  0.00  0.00    +0.000 C 
ENDROOT
BRANCH   1   8
ATOM      7  O   UNL     1       0.599   9.149  20.786  0.00  0.00    +0.000 OA
ATOM      8  C   UNL     1       1.151   8.918  19.708  0.00  0.00    +0.000 C 
ATOM      9  N   UNL     1       1.993   7.822  19.550  0.00  0.00    +0.000 N 
ATOM     10  C   UNL     1       2.741   7.465  18.346  0.00  0.00    +0.000 C 
ATOM     11  C   UNL     1       2.403   6.049  17.909  0.00  0.00    +0.000 C 
ATOM     12  C   UNL     1       2.658   5.055  19.040  0.00  0.00    +0.000 C 
ATOM     13  C   UNL     1       1.941   5.477  20.324  0.00  0.00    +0.000 C 
ATOM     14  C   UNL     1       2.231   6.929  20.691  0.00  0.00    +0.000 C 
ATOM     15  O   UNL     1       4.076   4.971  19.267  0.00  0.00    +0.000 OA
ATOM     16  C   UNL     1       4.366   3.574  19.286  0.00  0.00    +0.000 C 
ATOM     17  C   UNL     1       3.323   2.978  18.383  0.00  0.00    +0.000 C 
ATOM     18  O   UNL     1       2.163   3.763  18.649  0.00  0.00    +0.000 OA
ENDBRANCH   1   8
BRANCH   5  19
ATOM     19  C   UNL     1      -2.222  11.757  19.210  0.00  0.00    +0.000 A 
ATOM     20  C   UNL     1      -2.542  12.489  20.370  0.00  0.00    +0.000 A 
ATOM     21  C   UNL     1      -3.840  12.961  20.596  0.00  0.00    +0.000 A 
ATOM     22  C   UNL     1      -4.838  12.710  19.664  0.00  0.00    +0.000 A 
ATOM     23  F   UNL     1      -6.071  13.183  19.891  0.00  0.00    +0.000 F 
ATOM     24  C   UNL     1      -4.551  11.980  18.517  0.00  0.00    +0.000 A 
ATOM     25 CL   UNL     1      -5.779  11.666  17.351  0.00  0.00    +0.000 Cl
ATOM     26  C   UNL     1      -3.256  11.504  18.292  0.00  0.00    +0.000 A 
ENDBRANCH   5  19
TORSDOF 2
ENDMDL
MODEL 5
REMARK VINA RESULT:      -7.2      3.100      3.539
REMARK  Name = 
REMARK  2 active torsions:
REMARK  status: ('A' for Active; 'I' for Inactive)
REMARK    1  A    between atoms: C_2  and  C_3
REMARK    2  A    between atoms: N_7  and  C_8
REMARK                            x       y       z     vdW  Elec       q    Type
REMARK                         _______ _______ _______ _____ _____    ______ ____
ROOT
ATOM      1  C   UNL     1       0.593  10.102  19.575  0.00  0.00    +0.000 C 
ATOM      2  C   UNL     1       1.360  11.347  19.989  0.00  0.00    +0.000 C 
ATOM      3  C   UNL     1       0.389  12.108  20.850  0.00  0.00    +0.000 C 
ATOM      4  O   UNL     1       0.743  13.028  21.575  0.00  0.00    +0.000 OA
ATOM      5  N   UNL     1      -0.900  11.638  20.580  0.00  0.00    +0.000 N 
ATOM      6  C   UNL     1      -0.857  10.575  19.597  0.00  0.00    +0.000 C 
ENDROOT
BRANCH   1   8
ATOM      7  O   UNL     1       0.231   8.831  21.580  0.00  0.00    +0.000 OA
ATOM      8  C   UNL     1       0.832   8.911  20.506  0.00  0.00    +0.000 C 
ATOM      9  N   UNL     1       1.695   7.905  20.086  0.00  0.00    +0.000 N 
ATOM     10  C   UNL     1       2.499   7.901  18.865  0.00  0.00    +0.000 C 
ATOM     11  C   UNL     1       2.200   6.663  18.036  0.00  0.00    +0.000 C 
ATOM     12  C   UNL     1       2.423   5.392  18.855  0.00  0.00    +0.000 C 
ATOM     13  C   UNL     1       1.646   5.437  20.171  0.00  0.00    +0.000 C 
ATOM     14  C   UNL     1       1.898   6.730  20.942  0.00  0.00    +0.000 C 
ATOM     15  O   UNL     1       3.831   5.252  19.112  0.00  0.00    +0.000 OA
ATOM     16  C   UNL     1       4.140   3.907  18.753  0.00  0.00    +0.000 C 
ATOM     17  C   UNL     1       3.145   3.583  17.674  0.00  0.00    +0.000 C 
ATOM     18  O   UNL     1       1.963   4.260  18.097  0.00  0.00    +0.000 OA
ENDBRANCH   1   8
BRANCH   5  19
ATOM     19  C   UNL     1      -2.115  12.179  21.081  0.00  0.00    +0.000 A 
ATOM     20  C   UNL     1      -3.040  12.823  20.238  0.00  0.00    +0.000 A 
ATOM     21  C   UNL     1      -4.247  13.328  20.735  0.00  0.00    +0.000 A 
ATOM     22  C   UNL     1      -4.547  13.196  22.085  0.00  0.00    +0.000 A 
ATOM     23  F   UNL     1      -5.714  13.673  22.538  0.00  0.00    +0.000 F 
ATOM     24  C   UNL     1      -3.646  12.576  22.940  0.00  0.00    +0.000 A 
ATOM     25 CL   UNL     1      -4.008  12.401  24.615  0.00  0.00    +0.000 Cl
ATOM     26  C   UNL     1      -2.438  12.074  22.445  0.00  0.00    +0.000 A 
ENDBRANCH   5  19
TORSDOF 2
ENDMDL
MODEL 6
REMARK VINA RESULT:      -7.2      2.953      3.371
REMARK  Name = 
REMARK  2 active torsions:
REMARK  status: ('A' for Active; 'I' for Inactive)
REMARK    1  A    between atoms: C_2  and  C_3
REMARK    2  A    between atoms: N_7  and  C_8
REMARK                            x       y       z     vdW  Elec       q    Type
REMARK                         _______ _______ _______ _____ _____    ______ ____
ROOT
ATOM      1  C   UNL     1       0.625   9.891  19.554  0.00  0.00    +0.000 C 
ATOM      2  C   UNL     1       1.449  11.131  19.860  0.00  0.00    +0.000 C 
ATOM      3  C   UNL     1       0.617  11.890  20.856  0.00  0.00    +0.000 C 
ATOM      4  O   UNL     1       1.076  12.804  21.527  0.00  0.00    +0.000 OA
ATOM      5  N   UNL     1      -0.699  11.426  20.773  0.00  0.00    +0.000 N 
ATOM      6  C   UNL     1      -0.804  10.369  19.788  0.00  0.00    +0.000 C 
ENDROOT
BRANCH   1   8
ATOM      7  O   UNL     1       0.491   8.570  21.554  0.00  0.00    +0.000 OA
ATOM      8  C   UNL     1       0.991   8.694  20.434  0.00  0.00    +0.000 C 
ATOM      9  N   UNL     1       1.852   7.731  19.918  0.00  0.00    +0.000 N 
ATOM     10  C   UNL     1       2.544   7.783  18.631  0.00  0.00    +0.000 C 
ATOM     11  C   UNL     1       2.221   6.549  17.804  0.00  0.00    +0.000 C 
ATOM     12  C   UNL     1       2.563   5.273  18.572  0.00  0.00    +0.000 C 
ATOM     13  C   UNL     1       1.905   5.262  19.952  0.00  0.00    +0.000 C 
ATOM     14  C   UNL     1       2.175   6.550  20.726  0.00  0.00    +0.000 C 
ATOM     15  O   UNL     1       3.993   5.185  18.701  0.00  0.00    +0.000 OA
ATOM     16  C   UNL     1       4.321   3.860  18.287  0.00  0.00    +0.000 C 
ATOM     17  C   UNL     1       3.247   3.517  17.293  0.00  0.00    +0.000 C 
ATOM     18  O   UNL     1       2.083   4.138  17.832  0.00  0.00    +0.000 OA
ENDBRANCH   1   8
BRANCH   5  19
ATOM     19  C   UNL     1      -1.827  11.969  21.448  0.00  0.00    +0.000 A 
ATOM     20  C   UNL     1      -2.007  11.807  22.835  0.00  0.00    +0.000 A 
ATOM     21  C   UNL     1      -3.105  12.368  23.496  0.00  0.00    +0.000 A 
ATOM     22  C   UNL     1      -4.042  13.101  22.778  0.00  0.00    +0.000 A 
ATOM     23  F   UNL     1      -5.078  13.643  23.431  0.00  0.00    +0.000 F 
ATOM     24  C   UNL     1      -3.894  13.265  21.407  0.00  0.00    +0.000 A 
ATOM     25 CL   UNL     1      -5.045  14.177  20.507  0.00  0.00    +0.000 Cl
ATOM     26  C   UNL     1      -2.799  12.702  20.745  0.00  0.00    +0.000 A 
ENDBRANCH   5  19
TORSDOF 2
ENDMDL
MODEL 7
REMARK VINA RESULT:      -7.2      4.237      8.718
REMARK  Name = 
REMARK  2 active torsions:
REMARK  status: ('A' for Active; 'I' for Inactive)
REMARK    1  A    between atoms: C_2  and  C_3
REMARK    2  A    between atoms: N_7  and  C_8
REMARK                            x       y       z     vdW  Elec       q    Type
REMARK                         _______ _______ _______ _____ _____    ______ ____
ROOT
ATOM      1  C   UNL     1      -0.733  11.162  19.939  0.00  0.00    +0.000 C 
ATOM      2  C   UNL     1       0.427  12.024  19.467  0.00  0.00    +0.000 C 
ATOM      3  C   UNL     1       1.375  11.047  18.827  0.00  0.00    +0.000 C 
ATOM      4  O   UNL     1       2.292  11.408  18.103  0.00  0.00    +0.000 OA
ATOM      5  N   UNL     1       1.063   9.765  19.289  0.00  0.00    +0.000 N 
ATOM      6  C   UNL     1      -0.069   9.812  20.192  0.00  0.00    +0.000 C 
ENDROOT
BRANCH   1   8
ATOM      7  O   UNL     1      -1.801  10.273  17.981  0.00  0.00    +0.000 OA
ATOM      8  C   UNL     1      -1.869  11.070  18.918  0.00  0.00    +0.000 C 
ATOM      9  N   UNL     1      -2.994  11.865  19.107  0.00  0.00    +0.000 N 
ATOM     10  C   UNL     1      -3.180  12.879  20.145  0.00  0.00    +0.000 C 
ATOM     11  C   UNL     1      -4.436  12.590  20.951  0.00  0.00    +0.000 C 
ATOM     12  C   UNL     1      -5.658  12.494  20.039  0.00  0.00    +0.000 C 
ATOM     13  C   UNL     1      -5.428  11.495  18.905  0.00  0.00    +0.000 C 
ATOM     14  C   UNL     1      -4.117  11.756  18.168  0.00  0.00    +0.000 C 
ATOM     15  O   UNL     1      -5.935  13.800  19.504  0.00  0.00    +0.000 OA
ATOM     16  C   UNL     1      -7.330  14.002  19.724  0.00  0.00    +0.000 C 
ATOM     17  C   UNL     1      -7.620  13.195  20.959  0.00  0.00    +0.000 C 
ATOM     18  O   UNL     1      -6.786  12.049  20.812  0.00  0.00    +0.000 OA
ENDBRANCH   1   8
BRANCH   5  19
ATOM     19  C   UNL     1       1.799   8.576  19.034  0.00  0.00    +0.000 A 
ATOM     20  C   UNL     1       2.603   8.436  17.886  0.00  0.00    +0.000 A 
ATOM     21  C   UNL     1       3.346   7.273  17.657  0.00  0.00    +0.000 A 
ATOM     22  C   UNL     1       3.298   6.231  18.573  0.00  0.00    +0.000 A 
ATOM     23  F   UNL     1       4.029   5.132  18.343  0.00  0.00    +0.000 F 
ATOM     24  C   UNL     1       2.504   6.338  19.707  0.00  0.00    +0.000 A 
ATOM     25 CL   UNL     1       2.439   5.055  20.855  0.00  0.00    +0.000 Cl
ATOM     26  C   UNL     1       1.757   7.498  19.935  0.00  0.00    +0.000 A 
ENDBRANCH   5  19
TORSDOF 2
ENDMDL
MODEL 8
REMARK VINA RESULT:      -7.2      2.107      2.617
REMARK  Name = 
REMARK  2 active torsions:
REMARK  status: ('A' for Active; 'I' for Inactive)
REMARK    1  A    between atoms: C_2  and  C_3
REMARK    2  A    between atoms: N_7  and  C_8
REMARK                            x       y       z     vdW  Elec       q    Type
REMARK                         _______ _______ _______ _____ _____    ______ ____
ROOT
ATOM      1  C   UNL     1       0.292  10.576  18.436  0.00  0.00    +0.000 C 
ATOM      2  C   UNL     1       0.454  12.063  18.704  0.00  0.00    +0.000 C 
ATOM      3  C   UNL     1      -0.935  12.529  19.047  0.00  0.00    +0.000 C 
ATOM      4  O   UNL     1      -1.147  13.611  19.577  0.00  0.00    +0.000 OA
ATOM      5  N   UNL     1      -1.846  11.580  18.572  0.00  0.00    +0.000 N 
ATOM      6  C   UNL     1      -1.149  10.476  17.945  0.00  0.00    +0.000 C 
ENDROOT
BRANCH   1   8
ATOM      7  O   UNL     1      -0.106   9.887  20.701  0.00  0.00    +0.000 OA
ATOM      8  C   UNL     1       0.548   9.710  19.672  0.00  0.00    +0.000 C 
ATOM      9  N   UNL     1       1.493   8.694  19.584  0.00  0.00    +0.000 N 
ATOM     10  C   UNL     1       2.363   8.411  18.443  0.00  0.00    +0.000 C 
ATOM     11  C   UNL     1       2.187   6.973  17.984  0.00  0.00    +0.000 C 
ATOM     12  C   UNL     1       2.438   5.998  19.134  0.00  0.00    +0.000 C 
ATOM     13  C   UNL     1       1.587   6.349  20.355  0.00  0.00    +0.000 C 
ATOM     14  C   UNL     1       1.717   7.820  20.741  0.00  0.00    +0.000 C 
ATOM     15  O   UNL     1       3.835   6.039  19.472  0.00  0.00    +0.000 OA
ATOM     16  C   UNL     1       4.245   4.673  19.517  0.00  0.00    +0.000 C 
ATOM     17  C   UNL     1       3.333   3.991  18.535  0.00  0.00    +0.000 C 
ATOM     18  O   UNL     1       2.091   4.670  18.706  0.00  0.00    +0.000 OA
ENDBRANCH   1   8
BRANCH   5  19
ATOM     19  C   UNL     1      -3.262  11.701  18.572  0.00  0.00    +0.000 A 
ATOM     20  C   UNL     1      -4.037  11.312  17.462  0.00  0.00    +0.000 A 
ATOM     21  C   UNL     1      -5.433  11.408  17.482  0.00  0.00    +0.000 A 
ATOM     22  C   UNL     1      -6.076  11.895  18.612  0.00  0.00    +0.000 A 
ATOM     23  F   UNL     1      -7.414  11.965  18.616  0.00  0.00    +0.000 F 
ATOM     24  C   UNL     1      -5.334  12.297  19.715  0.00  0.00    +0.000 A 
ATOM     25 CL   UNL     1      -6.120  12.897  21.126  0.00  0.00    +0.000 Cl
ATOM     26  C   UNL     1      -3.939  12.205  19.696  0.00  0.00    +0.000 A 
ENDBRANCH   5  19
TORSDOF 2
ENDMDL
MODEL 9
REMARK VINA RESULT:      -7.1      4.112      8.525
REMARK  Name = 
REMARK  2 active torsions:
REMARK  status: ('A' for Active; 'I' for Inactive)
REMARK    1  A    between atoms: C_2  and  C_3
REMARK    2  A    between atoms: N_7  and  C_8
REMARK                            x       y       z     vdW  Elec       q    Type
REMARK                         _______ _______ _______ _____ _____    ______ ____
ROOT
ATOM      1  C   UNL     1      -0.639  11.017  19.539  0.00  0.00    +0.000 C 
ATOM      2  C   UNL     1       0.539  11.854  19.069  0.00  0.00    +0.000 C 
ATOM      3  C   UNL     1       1.537  10.842  18.577  0.00  0.00    +0.000 C 
ATOM      4  O   UNL     1       2.495  11.156  17.883  0.00  0.00    +0.000 OA
ATOM      5  N   UNL     1       1.208   9.599  19.125  0.00  0.00    +0.000 N 
ATOM      6  C   UNL     1       0.021   9.703  19.947  0.00  0.00    +0.000 C 
ENDROOT
BRANCH   1   8
ATOM      7  O   UNL     1      -1.537   9.999  17.559  0.00  0.00    +0.000 OA
ATOM      8  C   UNL     1      -1.707  10.822  18.460  0.00  0.00    +0.000 C 
ATOM      9  N   UNL     1      -2.885  11.554  18.555  0.00  0.00    +0.000 N 
ATOM     10  C   UNL     1      -3.190  12.589  19.543  0.00  0.00    +0.000 C 
ATOM     11  C   UNL     1      -4.472  12.254  20.286  0.00  0.00    +0.000 C 
ATOM     12  C   UNL     1      -5.631  12.053  19.311  0.00  0.00    +0.000 C 
ATOM     13  C   UNL     1      -5.277  11.031  18.230  0.00  0.00    +0.000 C 
ATOM     14  C   UNL     1      -3.943  11.345  17.559  0.00  0.00    +0.000 C 
ATOM     15  O   UNL     1      -5.952  13.320  18.712  0.00  0.00    +0.000 OA
ATOM     16  C   UNL     1      -7.367  13.445  18.846  0.00  0.00    +0.000 C 
ATOM     17  C   UNL     1      -7.681  12.666  20.092  0.00  0.00    +0.000 C 
ATOM     18  O   UNL     1      -6.774  11.567  20.036  0.00  0.00    +0.000 OA
ENDBRANCH   1   8
BRANCH   5  19
ATOM     19  C   UNL     1       1.972   8.404  19.018  0.00  0.00    +0.000 A 
ATOM     20  C   UNL     1       1.908   7.396  20.000  0.00  0.00    +0.000 A 
ATOM     21  C   UNL     1       2.642   6.211  19.873  0.00  0.00    +0.000 A 
ATOM     22  C   UNL     1       3.452   6.016  18.761  0.00  0.00    +0.000 A 
ATOM     23  F   UNL     1       4.135   4.869  18.651  0.00  0.00    +0.000 F 
ATOM     24  C   UNL     1       3.541   7.000  17.785  0.00  0.00    +0.000 A 
ATOM     25 CL   UNL     1       4.537   6.768  16.399  0.00  0.00    +0.000 Cl
ATOM     26  C   UNL     1       2.812   8.186  17.913  0.00  0.00    +0.000 A 
ENDBRANCH   5  19
TORSDOF 2
ENDMDL
