MODEL 1
REMARK VINA RESULT:      -5.5      0.000      0.000
REMARK  Name = 
REMARK  5 active torsions:
REMARK  status: ('A' for Active; 'I' for Inactive)
REMARK    1  A    between atoms: C_1  and  C_2
REMARK    2  A    between atoms: C_2  and  C_3
REMARK    3  A    between atoms: C_2  and  C_4
REMARK    4  A    between atoms: C_2  and  C_5
REMARK    5  A    between atoms: C_10  and  O_11
REMARK                            x       y       z     vdW  Elec       q    Type
REMARK                         _______ _______ _______ _____ _____    ______ ____
ROOT
ATOM      1  C   UNL     1       3.302   4.290  19.329  0.00  0.00    +0.000 A 
ATOM      2  C   UNL     1       2.033   4.827  19.633  0.00  0.00    +0.000 A 
ATOM      3  C   UNL     1       1.189   4.246  20.587  0.00  0.00    +0.000 A 
ATOM      4  C   UNL     1       1.589   3.104  21.268  0.00  0.00    +0.000 A 
ATOM      5  C   UNL     1       2.829   2.541  20.990  0.00  0.00    +0.000 A 
ATOM      6  C   UNL     1       3.668   3.125  20.031  0.00  0.00    +0.000 A 
ENDROOT
BRANCH   1   8
ATOM      7  C   UNL     1       3.674   6.311  17.763  0.00  0.00    +0.000 C 
ATOM      8  C   UNL     1       4.229   4.963  18.293  0.00  0.00    +0.000 C 
ATOM      9  C   UNL     1       4.424   4.060  17.055  0.00  0.00    +0.000 C 
ATOM     10  C   UNL     1       5.609   5.279  18.914  0.00  0.00    +0.000 C 
ENDBRANCH   1   8
BRANCH   6  11
ATOM     11  O   UNL     1       4.875   2.530  19.785  0.00  0.00    +0.000 OA
ATOM     12  H   UNL     1       5.031   2.512  18.829  0.00  0.00    +0.000 HD
ENDBRANCH   6  11
TORSDOF 2
ENDMDL
MODEL 2
REMARK VINA RESULT:      -5.5      0.041      1.307
REMARK  Name = 
REMARK  5 active torsions:
REMARK  status: ('A' for Active; 'I' for Inactive)
REMARK    1  A    between atoms: C_1  and  C_2
REMARK    2  A    between atoms: C_2  and  C_3
REMARK    3  A    between atoms: C_2  and  C_4
REMARK    4  A    between atoms: C_2  and  C_5
REMARK    5  A    between atoms: C_10  and  O_11
REMARK                            x       y       z     vdW  Elec       q    Type
REMARK                         _______ _______ _______ _____ _____    ______ ____
ROOT
ATOM      1  C   UNL     1       3.286   4.286  19.310  0.00  0.00    +0.000 A 
ATOM      2  C   UNL     1       2.009   4.809  19.600  0.00  0.00    +0.000 A 
ATOM      3  C   UNL     1       1.162   4.222  20.548  0.00  0.00    +0.000 A 
ATOM      4  C   UNL     1       1.569   3.089  21.239  0.00  0.00    +0.000 A 
ATOM      5  C   UNL     1       2.818   2.539  20.975  0.00  0.00    +0.000 A 
ATOM      6  C   UNL     1       3.660   3.128  20.022  0.00  0.00    +0.000 A 
ENDROOT
BRANCH   1   8
ATOM      7  C   UNL     1       5.631   5.265  18.841  0.00  0.00    +0.000 C 
ATOM      8  C   UNL     1       4.216   4.964  18.280  0.00  0.00    +0.000 C 
ATOM      9  C   UNL     1       3.637   6.320  17.820  0.00  0.00    +0.000 C 
ATOM     10  C   UNL     1       4.426   4.056  17.047  0.00  0.00    +0.000 C 
ENDBRANCH   1   8
BRANCH   6  11
ATOM     11  O   UNL     1       4.875   2.546  19.791  0.00  0.00    +0.000 OA
ATOM     12  H   UNL     1       5.495   2.819  20.485  0.00  0.00    +0.000 HD
ENDBRANCH   6  11
TORSDOF 2
ENDMDL
MODEL 3
REMARK VINA RESULT:      -5.5      0.062      1.301
REMARK  Name = 
REMARK  5 active torsions:
REMARK  status: ('A' for Active; 'I' for Inactive)
REMARK    1  A    between atoms: C_1  and  C_2
REMARK    2  A    between atoms: C_2  and  C_3
REMARK    3  A    between atoms: C_2  and  C_4
REMARK    4  A    between atoms: C_2  and  C_5
REMARK    5  A    between atoms: C_10  and  O_11
REMARK                            x       y       z     vdW  Elec       q    Type
REMARK                         _______ _______ _______ _____ _____    ______ ____
ROOT
ATOM      1  C   UNL     1       3.330   4.324  19.322  0.00  0.00    +0.000 A 
ATOM      2  C   UNL     1       2.070   4.875  19.638  0.00  0.00    +0.000 A 
ATOM      3  C   UNL     1       1.215   4.286  20.576  0.00  0.00    +0.000 A 
ATOM      4  C   UNL     1       1.593   3.121  21.230  0.00  0.00    +0.000 A 
ATOM      5  C   UNL     1       2.823   2.543  20.939  0.00  0.00    +0.000 A 
ATOM      6  C   UNL     1       3.674   3.135  19.996  0.00  0.00    +0.000 A 
ENDROOT
BRANCH   1   8
ATOM      7  C   UNL     1       4.529   4.142  17.041  0.00  0.00    +0.000 C 
ATOM      8  C   UNL     1       4.271   5.005  18.304  0.00  0.00    +0.000 C 
ATOM      9  C   UNL     1       5.657   5.280  18.929  0.00  0.00    +0.000 C 
ATOM     10  C   UNL     1       3.667   6.335  17.802  0.00  0.00    +0.000 C 
ENDBRANCH   1   8
BRANCH   6  11
ATOM     11  O   UNL     1       4.870   2.525  19.737  0.00  0.00    +0.000 OA
ATOM     12  H   UNL     1       5.587   3.167  19.856  0.00  0.00    +0.000 HD
ENDBRANCH   6  11
TORSDOF 2
ENDMDL
MODEL 4
REMARK VINA RESULT:      -5.5      1.832      3.227
REMARK  Name = 
REMARK  5 active torsions:
REMARK  status: ('A' for Active; 'I' for Inactive)
REMARK    1  A    between atoms: C_1  and  C_2
REMARK    2  A    between atoms: C_2  and  C_3
REMARK    3  A    between atoms: C_2  and  C_4
REMARK    4  A    between atoms: C_2  and  C_5
REMARK    5  A    between atoms: C_10  and  O_11
REMARK                            x       y       z     vdW  Elec       q    Type
REMARK                         _______ _______ _______ _____ _____    ______ ____
ROOT
ATOM      1  C   UNL     1       5.377   5.589  18.196  0.00  0.00    +0.000 A 
ATOM      2  C   UNL     1       4.492   6.598  17.762  0.00  0.00    +0.000 A 
ATOM      3  C   UNL     1       3.105   6.485  17.910  0.00  0.00    +0.000 A 
ATOM      4  C   UNL     1       2.557   5.352  18.498  0.00  0.00    +0.000 A 
ATOM      5  C   UNL     1       3.397   4.333  18.931  0.00  0.00    +0.000 A 
ATOM      6  C   UNL     1       4.784   4.450  18.776  0.00  0.00    +0.000 A 
ENDROOT
BRANCH   1   8
ATOM      7  C   UNL     1       7.656   5.715  19.406  0.00  0.00    +0.000 C 
ATOM      8  C   UNL     1       6.907   5.746  18.048  0.00  0.00    +0.000 C 
ATOM      9  C   UNL     1       7.263   7.097  17.389  0.00  0.00    +0.000 C 
ATOM     10  C   UNL     1       7.498   4.596  17.203  0.00  0.00    +0.000 C 
ENDBRANCH   1   8
BRANCH   6  11
ATOM     11  O   UNL     1       5.569   3.417  19.209  0.00  0.00    +0.000 OA
ATOM     12  H   UNL     1       5.261   3.128  20.081  0.00  0.00    +0.000 HD
ENDBRANCH   6  11
TORSDOF 2
ENDMDL
MODEL 5
REMARK VINA RESULT:      -5.5      1.868      3.060
REMARK  Name = 
REMARK  5 active torsions:
REMARK  status: ('A' for Active; 'I' for Inactive)
REMARK    1  A    between atoms: C_1  and  C_2
REMARK    2  A    between atoms: C_2  and  C_3
REMARK    3  A    between atoms: C_2  and  C_4
REMARK    4  A    between atoms: C_2  and  C_5
REMARK    5  A    between atoms: C_10  and  O_11
REMARK                            x       y       z     vdW  Elec       q    Type
REMARK                         _______ _______ _______ _____ _____    ______ ____
ROOT
ATOM      1  C   UNL     1       5.407   5.599  18.175  0.00  0.00    +0.000 A 
ATOM      2  C   UNL     1       4.547   6.625  17.729  0.00  0.00    +0.000 A 
ATOM      3  C   UNL     1       3.156   6.536  17.853  0.00  0.00    +0.000 A 
ATOM      4  C   UNL     1       2.578   5.412  18.429  0.00  0.00    +0.000 A 
ATOM      5  C   UNL     1       3.392   4.377  18.873  0.00  0.00    +0.000 A 
ATOM      6  C   UNL     1       4.785   4.469  18.743  0.00  0.00    +0.000 A 
ENDROOT
BRANCH   1   8
ATOM      7  C   UNL     1       7.390   7.060  17.394  0.00  0.00    +0.000 C 
ATOM      8  C   UNL     1       6.941   5.730  18.054  0.00  0.00    +0.000 C 
ATOM      9  C   UNL     1       7.527   4.597  17.183  0.00  0.00    +0.000 C 
ATOM     10  C   UNL     1       7.608   5.694  19.448  0.00  0.00    +0.000 C 
ENDBRANCH   1   8
BRANCH   6  11
ATOM     11  O   UNL     1       5.543   3.422  19.187  0.00  0.00    +0.000 OA
ATOM     12  H   UNL     1       6.454   3.535  18.875  0.00  0.00    +0.000 HD
ENDBRANCH   6  11
TORSDOF 2
ENDMDL
MODEL 6
REMARK VINA RESULT:      -5.5      1.063      3.652
REMARK  Name = 
REMARK  5 active torsions:
REMARK  status: ('A' for Active; 'I' for Inactive)
REMARK    1  A    between atoms: C_1  and  C_2
REMARK    2  A    between atoms: C_2  and  C_3
REMARK    3  A    between atoms: C_2  and  C_4
REMARK    4  A    between atoms: C_2  and  C_5
REMARK    5  A    between atoms: C_10  and  O_11
REMARK                            x       y       z     vdW  Elec       q    Type
REMARK                         _______ _______ _______ _____ _____    ______ ____
ROOT
ATOM      1  C   UNL     1       3.246   4.128  19.355  0.00  0.00    +0.000 A 
ATOM      2  C   UNL     1       2.922   5.395  18.826  0.00  0.00    +0.000 A 
ATOM      3  C   UNL     1       3.870   6.196  18.179  0.00  0.00    +0.000 A 
ATOM      4  C   UNL     1       5.179   5.752  18.041  0.00  0.00    +0.000 A 
ATOM      5  C   UNL     1       5.538   4.512  18.557  0.00  0.00    +0.000 A 
ATOM      6  C   UNL     1       4.585   3.717  19.207  0.00  0.00    +0.000 A 
ENDROOT
BRANCH   1   8
ATOM      7  C   UNL     1       2.609   2.749  21.445  0.00  0.00    +0.000 C 
ATOM      8  C   UNL     1       2.177   3.249  20.041  0.00  0.00    +0.000 C 
ATOM      9  C   UNL     1       1.880   1.984  19.205  0.00  0.00    +0.000 C 
ATOM     10  C   UNL     1       0.866   4.040  20.250  0.00  0.00    +0.000 C 
ENDBRANCH   1   8
BRANCH   6  11
ATOM     11  O   UNL     1       4.988   2.509  19.706  0.00  0.00    +0.000 OA
ATOM     12  H   UNL     1       4.217   2.034  20.049  0.00  0.00    +0.000 HD
ENDBRANCH   6  11
TORSDOF 2
ENDMDL
MODEL 7
REMARK VINA RESULT:      -5.5      1.667      2.378
REMARK  Name = 
REMARK  5 active torsions:
REMARK  status: ('A' for Active; 'I' for Inactive)
REMARK    1  A    between atoms: C_1  and  C_2
REMARK    2  A    between atoms: C_2  and  C_3
REMARK    3  A    between atoms: C_2  and  C_4
REMARK    4  A    between atoms: C_2  and  C_5
REMARK    5  A    between atoms: C_10  and  O_11
REMARK                            x       y       z     vdW  Elec       q    Type
REMARK                         _______ _______ _______ _____ _____    ______ ____
ROOT
ATOM      1  C   UNL     1       2.892   4.478  18.649  0.00  0.00    +0.000 A 
ATOM      2  C   UNL     1       2.329   3.361  17.997  0.00  0.00    +0.000 A 
ATOM      3  C   UNL     1       1.236   2.665  18.525  0.00  0.00    +0.000 A 
ATOM      4  C   UNL     1       0.669   3.066  19.727  0.00  0.00    +0.000 A 
ATOM      5  C   UNL     1       1.201   4.158  20.403  0.00  0.00    +0.000 A 
ATOM      6  C   UNL     1       2.299   4.849  19.872  0.00  0.00    +0.000 A 
ENDROOT
BRANCH   1   8
ATOM      7  C   UNL     1       5.319   5.306  18.970  0.00  0.00    +0.000 C 
ATOM      8  C   UNL     1       4.082   5.249  18.035  0.00  0.00    +0.000 C 
ATOM      9  C   UNL     1       3.698   6.715  17.737  0.00  0.00    +0.000 C 
ATOM     10  C   UNL     1       4.560   4.573  16.729  0.00  0.00    +0.000 C 
ENDBRANCH   1   8
BRANCH   6  11
ATOM     11  O   UNL     1       2.793   5.911  20.577  0.00  0.00    +0.000 OA
ATOM     12  H   UNL     1       2.446   5.880  21.482  0.00  0.00    +0.000 HD
ENDBRANCH   6  11
TORSDOF 2
ENDMDL
MODEL 8
REMARK VINA RESULT:      -5.5      1.064      3.651
REMARK  Name = 
REMARK  5 active torsions:
REMARK  status: ('A' for Active; 'I' for Inactive)
REMARK    1  A    between atoms: C_1  and  C_2
REMARK    2  A    between atoms: C_2  and  C_3
REMARK    3  A    between atoms: C_2  and  C_4
REMARK    4  A    between atoms: C_2  and  C_5
REMARK    5  A    between atoms: C_10  and  O_11
REMARK                            x       y       z     vdW  Elec       q    Type
REMARK                         _______ _______ _______ _____ _____    ______ ____
ROOT
ATOM      1  C   UNL     1       3.271   4.099  19.360  0.00  0.00    +0.000 A 
ATOM      2  C   UNL     1       2.958   5.372  18.838  0.00  0.00    +0.000 A 
ATOM      3  C   UNL     1       3.915   6.172  18.204  0.00  0.00    +0.000 A 
ATOM      4  C   UNL     1       5.222   5.722  18.071  0.00  0.00    +0.000 A 
ATOM      5  C   UNL     1       5.571   4.477  18.580  0.00  0.00    +0.000 A 
ATOM      6  C   UNL     1       4.610   3.682  19.219  0.00  0.00    +0.000 A 
ENDROOT
BRANCH   1   8
ATOM      7  C   UNL     1       0.841   3.956  20.224  0.00  0.00    +0.000 C 
ATOM      8  C   UNL     1       2.193   3.221  20.033  0.00  0.00    +0.000 C 
ATOM      9  C   UNL     1       2.644   2.771  21.440  0.00  0.00    +0.000 C 
ATOM     10  C   UNL     1       1.887   1.973  19.174  0.00  0.00    +0.000 C 
ENDBRANCH   1   8
BRANCH   6  11
ATOM     11  O   UNL     1       5.003   2.468  19.711  0.00  0.00    +0.000 OA
ATOM     12  H   UNL     1       4.219   1.918  19.863  0.00  0.00    +0.000 HD
ENDBRANCH   6  11
TORSDOF 2
ENDMDL
MODEL 9
REMARK VINA RESULT:      -5.5      1.653      2.321
REMARK  Name = 
REMARK  5 active torsions:
REMARK  status: ('A' for Active; 'I' for Inactive)
REMARK    1  A    between atoms: C_1  and  C_2
REMARK    2  A    between atoms: C_2  and  C_3
REMARK    3  A    between atoms: C_2  and  C_4
REMARK    4  A    between atoms: C_2  and  C_5
REMARK    5  A    between atoms: C_10  and  O_11
REMARK                            x       y       z     vdW  Elec       q    Type
REMARK                         _______ _______ _______ _____ _____    ______ ____
ROOT
ATOM      1  C   UNL     1       2.924   4.387  18.627  0.00  0.00    +0.000 A 
ATOM      2  C   UNL     1       2.328   3.268  18.008  0.00  0.00    +0.000 A 
ATOM      3  C   UNL     1       1.216   2.619  18.555  0.00  0.00    +0.000 A 
ATOM      4  C   UNL     1       0.662   3.071  19.746  0.00  0.00    +0.000 A 
ATOM      5  C   UNL     1       1.226   4.166  20.390  0.00  0.00    +0.000 A 
ATOM      6  C   UNL     1       2.343   4.809  19.840  0.00  0.00    +0.000 A 
ENDROOT
BRANCH   1   8
ATOM      7  C   UNL     1       4.590   4.465  16.654  0.00  0.00    +0.000 C 
ATOM      8  C   UNL     1       4.134   5.106  17.991  0.00  0.00    +0.000 C 
ATOM      9  C   UNL     1       5.360   5.063  18.930  0.00  0.00    +0.000 C 
ATOM     10  C   UNL     1       3.792   6.578  17.669  0.00  0.00    +0.000 C 
ENDBRANCH   1   8
BRANCH   6  11
ATOM     11  O   UNL     1       2.868   5.876  20.514  0.00  0.00    +0.000 OA
ATOM     12  H   UNL     1       3.376   6.423  19.897  0.00  0.00    +0.000 HD
ENDBRANCH   6  11
TORSDOF 2
ENDMDL
