MODEL 1
REMARK VINA RESULT:      -8.8      0.000      0.000
REMARK  Name = 
REMARK  5 active torsions:
REMARK  status: ('A' for Active; 'I' for Inactive)
REMARK    1  A    between atoms: C_2  and  C_13
REMARK    2  A    between atoms: N_3  and  C_4
REMARK    3  A    between atoms: C_7  and  N_8
REMARK    4  A    between atoms: C_17  and  S_18
REMARK    5  A    between atoms: S_18  and  N_21
REMARK                            x       y       z     vdW  Elec       q    Type
REMARK                         _______ _______ _______ _____ _____    ______ ____
ROOT
ATOM      1  C   UNL     1       2.900   5.111  19.025  0.00  0.00    +0.000 A 
ATOM      2  C   UNL     1       2.372   3.881  18.615  0.00  0.00    +0.000 A 
ATOM      3  C   UNL     1       3.088   3.088  17.711  0.00  0.00    +0.000 A 
ATOM      4  C   UNL     1       4.321   3.522  17.211  0.00  0.00    +0.000 A 
ATOM      5  C   UNL     1       4.834   4.760  17.612  0.00  0.00    +0.000 A 
ATOM      6  C   UNL     1       4.138   5.543  18.531  0.00  0.00    +0.000 A 
ENDROOT
BRANCH   1   8
ATOM      7  O   UNL     1       1.527   5.563  20.827  0.00  0.00    +0.000 OA
ATOM      8  C   UNL     1       2.162   6.056  19.899  0.00  0.00    +0.000 C 
ATOM      9  N   UNL     1       2.205   7.401  19.563  0.00  0.00    +0.000 N 
ATOM     10  H   UNL     1       2.609   7.652  18.670  0.00  0.00    +0.000 HD
BRANCH   9  11
ATOM     11  C   UNL     1       1.529   8.424  20.269  0.00  0.00    +0.000 A 
ATOM     12  C   UNL     1       1.365   8.401  21.660  0.00  0.00    +0.000 A 
ATOM     13  C   UNL     1       0.632   9.388  22.323  0.00  0.00    +0.000 A 
ATOM     14  C   UNL     1       0.064  10.428  21.586  0.00  0.00    +0.000 A 
ATOM     15  C   UNL     1       0.248  10.493  20.199  0.00  0.00    +0.000 A 
ATOM     16  C   UNL     1       0.988   9.496  19.546  0.00  0.00    +0.000 A 
BRANCH  14  17
ATOM     17  N   UNL     1      -0.729  11.452  22.279  0.00  0.00    +0.000 N 
ATOM     18  O   UNL     1      -0.991  12.495  21.663  0.00  0.00    +0.000 OA
ATOM     19  O   UNL     1      -1.091  11.209  23.437  0.00  0.00    +0.000 OA
ENDBRANCH  14  17
ENDBRANCH   9  11
ENDBRANCH   1   8
BRANCH   5  20
ATOM     20  S   UNL     1       6.416   5.315  17.016  0.00  0.00    +0.000 S 
ATOM     21  O   UNL     1       6.900   6.345  17.911  0.00  0.00    +0.000 OA
ATOM     22  O   UNL     1       7.203   4.127  16.760  0.00  0.00    +0.000 OA
BRANCH  20  23
ATOM     23  N   UNL     1       6.076   5.993  15.509  0.00  0.00    +0.000 N 
ATOM     24  C   UNL     1       6.363   5.194  14.386  0.00  0.00    +0.000 A 
ATOM     25  C   UNL     1       5.499   4.215  13.929  0.00  0.00    +0.000 A 
ATOM     26  C   UNL     1       5.862   3.515  12.783  0.00  0.00    +0.000 A 
ATOM     27  C   UNL     1       7.079   3.799  12.170  0.00  0.00    +0.000 A 
ATOM     28  C   UNL     1       7.882   4.781  12.731  0.00  0.00    +0.000 A 
ATOM     29  N   UNL     1       7.543   5.501  13.823  0.00  0.00    +0.000 NA
ATOM     30  H   UNL     1       6.545   6.891  15.418  0.00  0.00    +0.000 HD
ENDBRANCH  20  23
ENDBRANCH   5  20
TORSDOF 5
ENDMDL
MODEL 2
REMARK VINA RESULT:      -8.7      0.967      1.450
REMARK  Name = 
REMARK  5 active torsions:
REMARK  status: ('A' for Active; 'I' for Inactive)
REMARK    1  A    between atoms: C_2  and  C_13
REMARK    2  A    between atoms: N_3  and  C_4
REMARK    3  A    between atoms: C_7  and  N_8
REMARK    4  A    between atoms: C_17  and  S_18
REMARK    5  A    between atoms: S_18  and  N_21
REMARK                            x       y       z     vdW  Elec       q    Type
REMARK                         _______ _______ _______ _____ _____    ______ ____
ROOT
ATOM      1  C   UNL     1       2.842   5.468  19.052  0.00  0.00    +0.000 A 
ATOM      2  C   UNL     1       2.586   4.100  18.896  0.00  0.00    +0.000 A 
ATOM      3  C   UNL     1       3.323   3.361  17.964  0.00  0.00    +0.000 A 
ATOM      4  C   UNL     1       4.305   3.981  17.185  0.00  0.00    +0.000 A 
ATOM      5  C   UNL     1       4.545   5.351  17.334  0.00  0.00    +0.000 A 
ATOM      6  C   UNL     1       3.832   6.089  18.278  0.00  0.00    +0.000 A 
ENDROOT
BRANCH   1   8
ATOM      7  O   UNL     1       1.369   5.782  20.802  0.00  0.00    +0.000 OA
ATOM      8  C   UNL     1       2.041   6.343  19.942  0.00  0.00    +0.000 C 
ATOM      9  N   UNL     1       2.076   7.707  19.693  0.00  0.00    +0.000 N 
ATOM     10  H   UNL     1       2.522   8.020  18.840  0.00  0.00    +0.000 HD
BRANCH   9  11
ATOM     11  C   UNL     1       1.344   8.673  20.424  0.00  0.00    +0.000 A 
ATOM     12  C   UNL     1       1.222   8.632  21.819  0.00  0.00    +0.000 A 
ATOM     13  C   UNL     1       0.434   9.557  22.507  0.00  0.00    +0.000 A 
ATOM     14  C   UNL     1      -0.232  10.553  21.793  0.00  0.00    +0.000 A 
ATOM     15  C   UNL     1      -0.094  10.638  20.401  0.00  0.00    +0.000 A 
ATOM     16  C   UNL     1       0.702   9.702  19.722  0.00  0.00    +0.000 A 
BRANCH  14  17
ATOM     17  N   UNL     1      -1.081  11.510  22.514  0.00  0.00    +0.000 N 
ATOM     18  O   UNL     1      -1.808  11.072  23.418  0.00  0.00    +0.000 OA
ATOM     19  O   UNL     1      -1.018  12.699  22.177  0.00  0.00    +0.000 OA
ENDBRANCH  14  17
ENDBRANCH   9  11
ENDBRANCH   1   8
BRANCH   5  20
ATOM     20  S   UNL     1       5.813   6.153  16.378  0.00  0.00    +0.000 S 
ATOM     21  O   UNL     1       5.189   6.767  15.224  0.00  0.00    +0.000 OA
ATOM     22  O   UNL     1       6.593   6.945  17.306  0.00  0.00    +0.000 OA
BRANCH  20  23
ATOM     23  N   UNL     1       6.812   4.892  15.872  0.00  0.00    +0.000 N 
ATOM     24  C   UNL     1       6.898   4.683  14.483  0.00  0.00    +0.000 A 
ATOM     25  C   UNL     1       7.739   5.423  13.671  0.00  0.00    +0.000 A 
ATOM     26  C   UNL     1       7.779   5.102  12.317  0.00  0.00    +0.000 A 
ATOM     27  C   UNL     1       6.957   4.087  11.835  0.00  0.00    +0.000 A 
ATOM     28  C   UNL     1       6.131   3.430  12.734  0.00  0.00    +0.000 A 
ATOM     29  N   UNL     1       6.093   3.696  14.059  0.00  0.00    +0.000 NA
ATOM     30  H   UNL     1       6.538   4.026  16.331  0.00  0.00    +0.000 HD
ENDBRANCH  20  23
ENDBRANCH   5  20
TORSDOF 5
ENDMDL
MODEL 3
REMARK VINA RESULT:      -8.7      1.120      1.456
REMARK  Name = 
REMARK  5 active torsions:
REMARK  status: ('A' for Active; 'I' for Inactive)
REMARK    1  A    between atoms: C_2  and  C_13
REMARK    2  A    between atoms: N_3  and  C_4
REMARK    3  A    between atoms: C_7  and  N_8
REMARK    4  A    between atoms: C_17  and  S_18
REMARK    5  A    between atoms: S_18  and  N_21
REMARK                            x       y       z     vdW  Elec       q    Type
REMARK                         _______ _______ _______ _____ _____    ______ ____
ROOT
ATOM      1  C   UNL     1       3.399   5.991  19.163  0.00  0.00    +0.000 A 
ATOM      2  C   UNL     1       3.100   4.674  19.535  0.00  0.00    +0.000 A 
ATOM      3  C   UNL     1       4.018   3.653  19.261  0.00  0.00    +0.000 A 
ATOM      4  C   UNL     1       5.223   3.940  18.612  0.00  0.00    +0.000 A 
ATOM      5  C   UNL     1       5.508   5.254  18.227  0.00  0.00    +0.000 A 
ATOM      6  C   UNL     1       4.610   6.280  18.519  0.00  0.00    +0.000 A 
ENDROOT
BRANCH   1   8
ATOM      7  O   UNL     1       2.073   7.670  18.295  0.00  0.00    +0.000 OA
ATOM      8  C   UNL     1       2.443   7.112  19.324  0.00  0.00    +0.000 C 
ATOM      9  N   UNL     1       2.092   7.469  20.618  0.00  0.00    +0.000 N 
ATOM     10  H   UNL     1       2.610   7.051  21.380  0.00  0.00    +0.000 HD
BRANCH   9  11
ATOM     11  C   UNL     1       1.222   8.536  20.945  0.00  0.00    +0.000 A 
ATOM     12  C   UNL     1       0.720   9.425  19.985  0.00  0.00    +0.000 A 
ATOM     13  C   UNL     1      -0.080  10.511  20.347  0.00  0.00    +0.000 A 
ATOM     14  C   UNL     1      -0.400  10.706  21.690  0.00  0.00    +0.000 A 
ATOM     15  C   UNL     1       0.057   9.808  22.664  0.00  0.00    +0.000 A 
ATOM     16  C   UNL     1       0.859   8.720  22.286  0.00  0.00    +0.000 A 
BRANCH  14  17
ATOM     17  N   UNL     1      -1.220  11.863  22.074  0.00  0.00    +0.000 N 
ATOM     18  O   UNL     1      -2.127  12.209  21.305  0.00  0.00    +0.000 OA
ATOM     19  O   UNL     1      -0.955  12.421  23.147  0.00  0.00    +0.000 OA
ENDBRANCH  14  17
ENDBRANCH   9  11
ENDBRANCH   1   8
BRANCH   5  20
ATOM     20  S   UNL     1       7.050   5.646  17.432  0.00  0.00    +0.000 S 
ATOM     21  O   UNL     1       7.723   6.655  18.223  0.00  0.00    +0.000 OA
ATOM     22  O   UNL     1       7.697   4.385  17.135  0.00  0.00    +0.000 OA
BRANCH  20  23
ATOM     23  N   UNL     1       6.595   6.306  15.948  0.00  0.00    +0.000 N 
ATOM     24  C   UNL     1       6.525   5.413  14.863  0.00  0.00    +0.000 A 
ATOM     25  C   UNL     1       5.423   4.610  14.629  0.00  0.00    +0.000 A 
ATOM     26  C   UNL     1       5.442   3.796  13.501  0.00  0.00    +0.000 A 
ATOM     27  C   UNL     1       6.567   3.796  12.682  0.00  0.00    +0.000 A 
ATOM     28  C   UNL     1       7.629   4.619  13.026  0.00  0.00    +0.000 A 
ATOM     29  N   UNL     1       7.628   5.445  14.096  0.00  0.00    +0.000 NA
ATOM     30  H   UNL     1       7.207   7.084  15.711  0.00  0.00    +0.000 HD
ENDBRANCH  20  23
ENDBRANCH   5  20
TORSDOF 5
ENDMDL
MODEL 4
REMARK VINA RESULT:      -8.6      1.132      1.307
REMARK  Name = 
REMARK  5 active torsions:
REMARK  status: ('A' for Active; 'I' for Inactive)
REMARK    1  A    between atoms: C_2  and  C_13
REMARK    2  A    between atoms: N_3  and  C_4
REMARK    3  A    between atoms: C_7  and  N_8
REMARK    4  A    between atoms: C_17  and  S_18
REMARK    5  A    between atoms: S_18  and  N_21
REMARK                            x       y       z     vdW  Elec       q    Type
REMARK                         _______ _______ _______ _____ _____    ______ ____
ROOT
ATOM      1  C   UNL     1       3.393   5.433  19.365  0.00  0.00    +0.000 A 
ATOM      2  C   UNL     1       3.156   4.057  19.474  0.00  0.00    +0.000 A 
ATOM      3  C   UNL     1       4.097   3.152  18.970  0.00  0.00    +0.000 A 
ATOM      4  C   UNL     1       5.265   3.614  18.354  0.00  0.00    +0.000 A 
ATOM      5  C   UNL     1       5.487   4.990  18.232  0.00  0.00    +0.000 A 
ATOM      6  C   UNL     1       4.566   5.897  18.754  0.00  0.00    +0.000 A 
ENDROOT
BRANCH   1   8
ATOM      7  O   UNL     1       1.630   6.140  20.677  0.00  0.00    +0.000 OA
ATOM      8  C   UNL     1       2.404   6.458  19.780  0.00  0.00    +0.000 C 
ATOM      9  N   UNL     1       2.402   7.658  19.086  0.00  0.00    +0.000 N 
ATOM     10  H   UNL     1       2.966   7.721  18.248  0.00  0.00    +0.000 HD
BRANCH   9  11
ATOM     11  C   UNL     1       1.503   8.723  19.332  0.00  0.00    +0.000 A 
ATOM     12  C   UNL     1       1.141   9.124  20.625  0.00  0.00    +0.000 A 
ATOM     13  C   UNL     1       0.198  10.131  20.838  0.00  0.00    +0.000 A 
ATOM     14  C   UNL     1      -0.386  10.763  19.740  0.00  0.00    +0.000 A 
ATOM     15  C   UNL     1      -0.012  10.406  18.437  0.00  0.00    +0.000 A 
ATOM     16  C   UNL     1       0.939   9.394  18.238  0.00  0.00    +0.000 A 
BRANCH  14  17
ATOM     17  N   UNL     1      -1.399  11.804  19.962  0.00  0.00    +0.000 N 
ATOM     18  O   UNL     1      -1.640  12.584  19.030  0.00  0.00    +0.000 OA
ATOM     19  O   UNL     1      -1.953  11.836  21.069  0.00  0.00    +0.000 OA
ENDBRANCH  14  17
ENDBRANCH   9  11
ENDBRANCH   1   8
BRANCH   5  20
ATOM     20  S   UNL     1       6.980   5.599  17.482  0.00  0.00    +0.000 S 
ATOM     21  O   UNL     1       7.506   6.659  18.317  0.00  0.00    +0.000 OA
ATOM     22  O   UNL     1       7.787   4.440  17.162  0.00  0.00    +0.000 OA
BRANCH  20  23
ATOM     23  N   UNL     1       6.471   6.244  16.009  0.00  0.00    +0.000 N 
ATOM     24  C   UNL     1       6.461   5.362  14.912  0.00  0.00    +0.000 A 
ATOM     25  C   UNL     1       5.418   4.485  14.673  0.00  0.00    +0.000 A 
ATOM     26  C   UNL     1       5.490   3.689  13.534  0.00  0.00    +0.000 A 
ATOM     27  C   UNL     1       6.608   3.781  12.710  0.00  0.00    +0.000 A 
ATOM     28  C   UNL     1       7.609   4.674  13.061  0.00  0.00    +0.000 A 
ATOM     29  N   UNL     1       7.555   5.483  14.142  0.00  0.00    +0.000 NA
ATOM     30  H   UNL     1       7.024   7.067  15.780  0.00  0.00    +0.000 HD
ENDBRANCH  20  23
ENDBRANCH   5  20
TORSDOF 5
ENDMDL
MODEL 5
REMARK VINA RESULT:      -8.5      3.696      9.455
REMARK  Name = 
REMARK  5 active torsions:
REMARK  status: ('A' for Active; 'I' for Inactive)
REMARK    1  A    between atoms: C_2  and  C_13
REMARK    2  A    between atoms: N_3  and  C_4
REMARK    3  A    between atoms: C_7  and  N_8
REMARK    4  A    between atoms: C_17  and  S_18
REMARK    5  A    between atoms: S_18  and  N_21
REMARK                            x       y       z     vdW  Elec       q    Type
REMARK                         _______ _______ _______ _____ _____    ______ ____
ROOT
ATOM      1  C   UNL     1       1.282   8.895  19.471  0.00  0.00    +0.000 A 
ATOM      2  C   UNL     1       1.302   8.519  20.819  0.00  0.00    +0.000 A 
ATOM      3  C   UNL     1       0.472   9.178  21.733  0.00  0.00    +0.000 A 
ATOM      4  C   UNL     1      -0.368  10.213  21.308  0.00  0.00    +0.000 A 
ATOM      5  C   UNL     1      -0.370  10.595  19.963  0.00  0.00    +0.000 A 
ATOM      6  C   UNL     1       0.435   9.926  19.042  0.00  0.00    +0.000 A 
ENDROOT
BRANCH   1   8
ATOM      7  O   UNL     1       2.271   8.908  17.385  0.00  0.00    +0.000 OA
ATOM      8  C   UNL     1       2.200   8.318  18.458  0.00  0.00    +0.000 C 
ATOM      9  N   UNL     1       2.852   7.139  18.788  0.00  0.00    +0.000 N 
ATOM     10  H   UNL     1       2.563   6.659  19.630  0.00  0.00    +0.000 HD
BRANCH   9  11
ATOM     11  C   UNL     1       3.731   6.443  17.924  0.00  0.00    +0.000 A 
ATOM     12  C   UNL     1       3.525   5.108  17.551  0.00  0.00    +0.000 A 
ATOM     13  C   UNL     1       4.446   4.425  16.755  0.00  0.00    +0.000 A 
ATOM     14  C   UNL     1       5.588   5.090  16.308  0.00  0.00    +0.000 A 
ATOM     15  C   UNL     1       5.797   6.436  16.636  0.00  0.00    +0.000 A 
ATOM     16  C   UNL     1       4.862   7.111  17.436  0.00  0.00    +0.000 A 
BRANCH  14  17
ATOM     17  N   UNL     1       6.571   4.364  15.492  0.00  0.00    +0.000 N 
ATOM     18  O   UNL     1       7.772   4.543  15.740  0.00  0.00    +0.000 OA
ATOM     19  O   UNL     1       6.139   3.613  14.608  0.00  0.00    +0.000 OA
ENDBRANCH  14  17
ENDBRANCH   9  11
ENDBRANCH   1   8
BRANCH   5  20
ATOM     20  S   UNL     1      -1.456  11.885  19.394  0.00  0.00    +0.000 S 
ATOM     21  O   UNL     1      -1.704  12.787  20.499  0.00  0.00    +0.000 OA
ATOM     22  O   UNL     1      -0.901  12.375  18.149  0.00  0.00    +0.000 OA
BRANCH  20  23
ATOM     23  N   UNL     1      -2.883  11.080  18.993  0.00  0.00    +0.000 N 
ATOM     24  C   UNL     1      -3.074  10.790  17.629  0.00  0.00    +0.000 A 
ATOM     25  C   UNL     1      -2.503   9.690  17.015  0.00  0.00    +0.000 A 
ATOM     26  C   UNL     1      -2.795   9.474  15.671  0.00  0.00    +0.000 A 
ATOM     27  C   UNL     1      -3.611  10.380  14.999  0.00  0.00    +0.000 A 
ATOM     28  C   UNL     1      -4.106  11.466  15.706  0.00  0.00    +0.000 A 
ATOM     29  N   UNL     1      -3.867  11.686  17.018  0.00  0.00    +0.000 NA
ATOM     30  H   UNL     1      -3.684  11.595  19.348  0.00  0.00    +0.000 HD
ENDBRANCH  20  23
ENDBRANCH   5  20
TORSDOF 5
ENDMDL
MODEL 6
REMARK VINA RESULT:      -8.4      4.599     10.431
REMARK  Name = 
REMARK  5 active torsions:
REMARK  status: ('A' for Active; 'I' for Inactive)
REMARK    1  A    between atoms: C_2  and  C_13
REMARK    2  A    between atoms: N_3  and  C_4
REMARK    3  A    between atoms: C_7  and  N_8
REMARK    4  A    between atoms: C_17  and  S_18
REMARK    5  A    between atoms: S_18  and  N_21
REMARK                            x       y       z     vdW  Elec       q    Type
REMARK                         _______ _______ _______ _____ _____    ______ ____
ROOT
ATOM      1  C   UNL     1       0.348  10.384  18.972  0.00  0.00    +0.000 A 
ATOM      2  C   UNL     1       0.710  11.709  19.241  0.00  0.00    +0.000 A 
ATOM      3  C   UNL     1      -0.100  12.754  18.779  0.00  0.00    +0.000 A 
ATOM      4  C   UNL     1      -1.259  12.480  18.046  0.00  0.00    +0.000 A 
ATOM      5  C   UNL     1      -1.605  11.154  17.766  0.00  0.00    +0.000 A 
ATOM      6  C   UNL     1      -0.817  10.108  18.245  0.00  0.00    +0.000 A 
ENDROOT
BRANCH   1   8
ATOM      7  O   UNL     1       1.352   9.013  20.536  0.00  0.00    +0.000 OA
ATOM      8  C   UNL     1       1.199   9.225  19.337  0.00  0.00    +0.000 C 
ATOM      9  N   UNL     1       1.792   8.519  18.300  0.00  0.00    +0.000 N 
ATOM     10  H   UNL     1       1.735   8.911  17.369  0.00  0.00    +0.000 HD
BRANCH   9  11
ATOM     11  C   UNL     1       2.658   7.414  18.478  0.00  0.00    +0.000 A 
ATOM     12  C   UNL     1       2.489   6.478  19.507  0.00  0.00    +0.000 A 
ATOM     13  C   UNL     1       3.400   5.438  19.701  0.00  0.00    +0.000 A 
ATOM     14  C   UNL     1       4.493   5.318  18.842  0.00  0.00    +0.000 A 
ATOM     15  C   UNL     1       4.661   6.218  17.782  0.00  0.00    +0.000 A 
ATOM     16  C   UNL     1       3.737   7.258  17.597  0.00  0.00    +0.000 A 
BRANCH  14  17
ATOM     17  N   UNL     1       5.465   4.239  19.062  0.00  0.00    +0.000 N 
ATOM     18  O   UNL     1       5.049   3.173  19.539  0.00  0.00    +0.000 OA
ATOM     19  O   UNL     1       6.644   4.459  18.754  0.00  0.00    +0.000 OA
ENDBRANCH  14  17
ENDBRANCH   9  11
ENDBRANCH   1   8
BRANCH   5  20
ATOM     20  S   UNL     1      -3.093  10.781  16.865  0.00  0.00    +0.000 S 
ATOM     21  O   UNL     1      -2.763  10.706  15.457  0.00  0.00    +0.000 OA
ATOM     22  O   UNL     1      -3.718   9.662  17.539  0.00  0.00    +0.000 OA
BRANCH  20  23
ATOM     23  N   UNL     1      -4.089  12.115  17.139  0.00  0.00    +0.000 N 
ATOM     24  C   UNL     1      -5.002  12.004  18.204  0.00  0.00    +0.000 A 
ATOM     25  C   UNL     1      -4.642  12.241  19.519  0.00  0.00    +0.000 A 
ATOM     26  C   UNL     1      -5.636  12.147  20.489  0.00  0.00    +0.000 A 
ATOM     27  C   UNL     1      -6.926  11.790  20.107  0.00  0.00    +0.000 A 
ATOM     28  C   UNL     1      -7.169  11.546  18.764  0.00  0.00    +0.000 A 
ATOM     29  N   UNL     1      -6.234  11.660  17.795  0.00  0.00    +0.000 NA
ATOM     30  H   UNL     1      -4.588  12.357  16.286  0.00  0.00    +0.000 HD
ENDBRANCH  20  23
ENDBRANCH   5  20
TORSDOF 5
ENDMDL
MODEL 7
REMARK VINA RESULT:      -8.3      2.071      2.915
REMARK  Name = 
REMARK  5 active torsions:
REMARK  status: ('A' for Active; 'I' for Inactive)
REMARK    1  A    between atoms: C_2  and  C_13
REMARK    2  A    between atoms: N_3  and  C_4
REMARK    3  A    between atoms: C_7  and  N_8
REMARK    4  A    between atoms: C_17  and  S_18
REMARK    5  A    between atoms: S_18  and  N_21
REMARK                            x       y       z     vdW  Elec       q    Type
REMARK                         _______ _______ _______ _____ _____    ______ ____
ROOT
ATOM      1  C   UNL     1       3.367   4.939  18.638  0.00  0.00    +0.000 A 
ATOM      2  C   UNL     1       3.403   3.554  18.840  0.00  0.00    +0.000 A 
ATOM      3  C   UNL     1       4.057   2.736  17.911  0.00  0.00    +0.000 A 
ATOM      4  C   UNL     1       4.666   3.294  16.782  0.00  0.00    +0.000 A 
ATOM      5  C   UNL     1       4.611   4.676  16.577  0.00  0.00    +0.000 A 
ATOM      6  C   UNL     1       3.983   5.499  17.510  0.00  0.00    +0.000 A 
ENDROOT
BRANCH   1   8
ATOM      7  O   UNL     1       2.116   5.377  20.529  0.00  0.00    +0.000 OA
ATOM      8  C   UNL     1       2.611   5.864  19.517  0.00  0.00    +0.000 C 
ATOM      9  N   UNL     1       2.482   7.179  19.096  0.00  0.00    +0.000 N 
ATOM     10  H   UNL     1       2.777   7.405  18.155  0.00  0.00    +0.000 HD
BRANCH   9  11
ATOM     11  C   UNL     1       1.764   8.177  19.798  0.00  0.00    +0.000 A 
ATOM     12  C   UNL     1       1.508   8.098  21.173  0.00  0.00    +0.000 A 
ATOM     13  C   UNL     1       0.737   9.061  21.826  0.00  0.00    +0.000 A 
ATOM     14  C   UNL     1       0.223  10.134  21.098  0.00  0.00    +0.000 A 
ATOM     15  C   UNL     1       0.498  10.255  19.729  0.00  0.00    +0.000 A 
ATOM     16  C   UNL     1       1.276   9.281  19.086  0.00  0.00    +0.000 A 
BRANCH  14  17
ATOM     17  N   UNL     1      -0.611  11.133  21.779  0.00  0.00    +0.000 N 
ATOM     18  O   UNL     1      -1.411  11.784  21.091  0.00  0.00    +0.000 OA
ATOM     19  O   UNL     1      -0.465  11.263  23.001  0.00  0.00    +0.000 OA
ENDBRANCH  14  17
ENDBRANCH   9  11
ENDBRANCH   1   8
BRANCH   5  20
ATOM     20  S   UNL     1       5.407   5.410  15.165  0.00  0.00    +0.000 S 
ATOM     21  O   UNL     1       5.180   4.552  14.021  0.00  0.00    +0.000 OA
ATOM     22  O   UNL     1       5.004   6.801  15.138  0.00  0.00    +0.000 OA
BRANCH  20  23
ATOM     23  N   UNL     1       7.046   5.399  15.561  0.00  0.00    +0.000 N 
ATOM     24  C   UNL     1       7.385   5.898  16.832  0.00  0.00    +0.000 A 
ATOM     25  C   UNL     1       7.296   5.131  17.981  0.00  0.00    +0.000 A 
ATOM     26  C   UNL     1       7.699   5.712  19.179  0.00  0.00    +0.000 A 
ATOM     27  C   UNL     1       8.137   7.033  19.181  0.00  0.00    +0.000 A 
ATOM     28  C   UNL     1       8.158   7.719  17.976  0.00  0.00    +0.000 A 
ATOM     29  N   UNL     1       7.804   7.174  16.791  0.00  0.00    +0.000 NA
ATOM     30  H   UNL     1       7.579   5.891  14.848  0.00  0.00    +0.000 HD
ENDBRANCH  20  23
ENDBRANCH   5  20
TORSDOF 5
ENDMDL
MODEL 8
REMARK VINA RESULT:      -8.3      1.892      2.166
REMARK  Name = 
REMARK  5 active torsions:
REMARK  status: ('A' for Active; 'I' for Inactive)
REMARK    1  A    between atoms: C_2  and  C_13
REMARK    2  A    between atoms: N_3  and  C_4
REMARK    3  A    between atoms: C_7  and  N_8
REMARK    4  A    between atoms: C_17  and  S_18
REMARK    5  A    between atoms: S_18  and  N_21
REMARK                            x       y       z     vdW  Elec       q    Type
REMARK                         _______ _______ _______ _____ _____    ______ ____
ROOT
ATOM      1  C   UNL     1       2.779   6.392  18.475  0.00  0.00    +0.000 A 
ATOM      2  C   UNL     1       2.097   5.170  18.518  0.00  0.00    +0.000 A 
ATOM      3  C   UNL     1       2.700   4.022  17.992  0.00  0.00    +0.000 A 
ATOM      4  C   UNL     1       3.974   4.091  17.417  0.00  0.00    +0.000 A 
ATOM      5  C   UNL     1       4.643   5.318  17.362  0.00  0.00    +0.000 A 
ATOM      6  C   UNL     1       4.059   6.461  17.907  0.00  0.00    +0.000 A 
ENDROOT
BRANCH   1   8
ATOM      7  O   UNL     1       1.977   7.796  20.123  0.00  0.00    +0.000 OA
ATOM      8  C   UNL     1       2.174   7.671  18.918  0.00  0.00    +0.000 C 
ATOM      9  N   UNL     1       1.833   8.588  17.935  0.00  0.00    +0.000 N 
ATOM     10  H   UNL     1       1.877   8.285  16.970  0.00  0.00    +0.000 HD
BRANCH   9  11
ATOM     11  C   UNL     1       1.216   9.837  18.185  0.00  0.00    +0.000 A 
ATOM     12  C   UNL     1       1.947  10.999  18.461  0.00  0.00    +0.000 A 
ATOM     13  C   UNL     1       1.311  12.202  18.775  0.00  0.00    +0.000 A 
ATOM     14  C   UNL     1      -0.083  12.252  18.798  0.00  0.00    +0.000 A 
ATOM     15  C   UNL     1      -0.836  11.112  18.487  0.00  0.00    +0.000 A 
ATOM     16  C   UNL     1      -0.184   9.910  18.172  0.00  0.00    +0.000 A 
BRANCH  14  17
ATOM     17  N   UNL     1      -0.753  13.510  19.153  0.00  0.00    +0.000 N 
ATOM     18  O   UNL     1      -0.368  14.547  18.595  0.00  0.00    +0.000 OA
ATOM     19  O   UNL     1      -1.666  13.457  19.988  0.00  0.00    +0.000 OA
ENDBRANCH  14  17
ENDBRANCH   9  11
ENDBRANCH   1   8
BRANCH   5  20
ATOM     20  S   UNL     1       6.277   5.423  16.667  0.00  0.00    +0.000 S 
ATOM     21  O   UNL     1       7.034   6.389  17.435  0.00  0.00    +0.000 OA
ATOM     22  O   UNL     1       6.752   4.063  16.515  0.00  0.00    +0.000 OA
BRANCH  20  23
ATOM     23  N   UNL     1       6.028   6.016  15.108  0.00  0.00    +0.000 N 
ATOM     24  C   UNL     1       6.234   5.106  14.054  0.00  0.00    +0.000 A 
ATOM     25  C   UNL     1       5.270   4.195  13.658  0.00  0.00    +0.000 A 
ATOM     26  C   UNL     1       5.563   3.372  12.575  0.00  0.00    +0.000 A 
ATOM     27  C   UNL     1       6.809   3.472  11.963  0.00  0.00    +0.000 A 
ATOM     28  C   UNL     1       7.712   4.401  12.461  0.00  0.00    +0.000 A 
ATOM     29  N   UNL     1       7.446   5.236  13.489  0.00  0.00    +0.000 NA
ATOM     30  H   UNL     1       6.595   6.846  14.957  0.00  0.00    +0.000 HD
ENDBRANCH  20  23
ENDBRANCH   5  20
TORSDOF 5
ENDMDL
MODEL 9
REMARK VINA RESULT:      -8.3      6.013      7.945
REMARK  Name = 
REMARK  5 active torsions:
REMARK  status: ('A' for Active; 'I' for Inactive)
REMARK    1  A    between atoms: C_2  and  C_13
REMARK    2  A    between atoms: N_3  and  C_4
REMARK    3  A    between atoms: C_7  and  N_8
REMARK    4  A    between atoms: C_17  and  S_18
REMARK    5  A    between atoms: S_18  and  N_21
REMARK                            x       y       z     vdW  Elec       q    Type
REMARK                         _______ _______ _______ _____ _____    ______ ____
ROOT
ATOM      1  C   UNL     1       7.837   7.693  18.219  0.00  0.00    +0.000 A 
ATOM      2  C   UNL     1       8.499   6.849  19.118  0.00  0.00    +0.000 A 
ATOM      3  C   UNL     1       8.067   5.527  19.272  0.00  0.00    +0.000 A 
ATOM      4  C   UNL     1       6.974   5.049  18.540  0.00  0.00    +0.000 A 
ATOM      5  C   UNL     1       6.306   5.903  17.657  0.00  0.00    +0.000 A 
ATOM      6  C   UNL     1       6.747   7.214  17.480  0.00  0.00    +0.000 A 
ENDROOT
BRANCH   1   8
ATOM      7  O   UNL     1       7.529   9.755  17.226  0.00  0.00    +0.000 OA
ATOM      8  C   UNL     1       8.165   9.132  18.070  0.00  0.00    +0.000 C 
ATOM      9  N   UNL     1       9.194   9.634  18.853  0.00  0.00    +0.000 N 
ATOM     10  H   UNL     1       9.759   8.974  19.372  0.00  0.00    +0.000 HD
BRANCH   9  11
ATOM     11  C   UNL     1       9.654  10.972  18.807  0.00  0.00    +0.000 A 
ATOM     12  C   UNL     1       9.292  11.930  19.764  0.00  0.00    +0.000 A 
ATOM     13  C   UNL     1       9.703  13.259  19.654  0.00  0.00    +0.000 A 
ATOM     14  C   UNL     1      10.505  13.640  18.578  0.00  0.00    +0.000 A 
ATOM     15  C   UNL     1      10.912  12.692  17.630  0.00  0.00    +0.000 A 
ATOM     16  C   UNL     1      10.492  11.359  17.753  0.00  0.00    +0.000 A 
BRANCH  14  17
ATOM     17  N   UNL     1      10.916  15.044  18.448  0.00  0.00    +0.000 N 
ATOM     18  O   UNL     1      10.397  15.717  17.545  0.00  0.00    +0.000 OA
ATOM     19  O   UNL     1      11.754  15.472  19.251  0.00  0.00    +0.000 OA
ENDBRANCH  14  17
ENDBRANCH   9  11
ENDBRANCH   1   8
BRANCH   5  20
ATOM     20  S   UNL     1       4.935   5.308  16.691  0.00  0.00    +0.000 S 
ATOM     21  O   UNL     1       3.728   5.936  17.185  0.00  0.00    +0.000 OA
ATOM     22  O   UNL     1       5.321   5.435  15.301  0.00  0.00    +0.000 OA
BRANCH  20  23
ATOM     23  N   UNL     1       4.884   3.654  17.021  0.00  0.00    +0.000 N 
ATOM     24  C   UNL     1       3.847   3.219  17.867  0.00  0.00    +0.000 A 
ATOM     25  C   UNL     1       2.565   2.975  17.408  0.00  0.00    +0.000 A 
ATOM     26  C   UNL     1       1.628   2.504  18.323  0.00  0.00    +0.000 A 
ATOM     27  C   UNL     1       2.003   2.332  19.653  0.00  0.00    +0.000 A 
ATOM     28  C   UNL     1       3.309   2.635  20.010  0.00  0.00    +0.000 A 
ATOM     29  N   UNL     1       4.250   3.063  19.139  0.00  0.00    +0.000 NA
ATOM     30  H   UNL     1       5.779   3.346  17.392  0.00  0.00    +0.000 HD
ENDBRANCH  20  23
ENDBRANCH   5  20
TORSDOF 5
ENDMDL
