MODEL 1
REMARK VINA RESULT:      -7.3      0.000      0.000
REMARK  Name = 
REMARK  10 active torsions:
REMARK  status: ('A' for Active; 'I' for Inactive)
REMARK    1  A    between atoms: C_7  and  O_8
REMARK    2  A    between atoms: O_8  and  C_9
REMARK    3  A    between atoms: C_9  and  C_10
REMARK    4  A    between atoms: C_13  and  O_14
REMARK    5  A    between atoms: O_14  and  C_15
REMARK    6  A    between atoms: C_15  and  C_16
REMARK    7  A    between atoms: C_16  and  C_17
REMARK    8  A    between atoms: C_17  and  N_18
REMARK    9  A    between atoms: N_18  and  C_19
REMARK   10  A    between atoms: C_19  and  C_20
REMARK                            x       y       z     vdW  Elec       q    Type
REMARK                         _______ _______ _______ _____ _____    ______ ____
ROOT
ATOM      1  C   UNL     1       0.205  10.001  20.405  0.00  0.00    +0.000 A 
ATOM      2  N   UNL     1       0.578   8.829  20.882  0.00  0.00    +0.000 NA
ATOM      3  C   UNL     1       1.408   8.321  19.910  0.00  0.00    +0.000 A 
ATOM      4  C   UNL     1       2.116   7.105  19.840  0.00  0.00    +0.000 A 
ATOM      5  C   UNL     1       2.884   6.871  18.686  0.00  0.00    +0.000 A 
ATOM      6  C   UNL     1       2.963   7.818  17.653  0.00  0.00    +0.000 A 
ATOM      7  C   UNL     1       2.279   9.037  17.725  0.00  0.00    +0.000 A 
ATOM      8  C   UNL     1       1.515   9.231  18.871  0.00  0.00    +0.000 A 
ATOM      9  O   UNL     1       0.750  10.321  19.183  0.00  0.00    +0.000 OA
ENDROOT
BRANCH   1  10
ATOM     10  C   UNL     1      -0.617  11.044  21.082  0.00  0.00    +0.000 C 
BRANCH  10  11
ATOM     11  O   UNL     1      -0.944  12.066  20.132  0.00  0.00    +0.000 OA
BRANCH  11  18
ATOM     12  F   UNL     1      -1.800  10.858  17.606  0.00  0.00    +0.000 F 
ATOM     13  C   UNL     1      -2.659  11.463  18.444  0.00  0.00    +0.000 A 
ATOM     14  C   UNL     1      -3.997  11.492  18.063  0.00  0.00    +0.000 A 
ATOM     15  C   UNL     1      -4.939  12.103  18.887  0.00  0.00    +0.000 A 
ATOM     16  C   UNL     1      -4.530  12.684  20.087  0.00  0.00    +0.000 A 
ATOM     17  C   UNL     1      -3.185  12.652  20.465  0.00  0.00    +0.000 A 
ATOM     18  C   UNL     1      -2.228  12.037  19.647  0.00  0.00    +0.000 A 
ENDBRANCH  11  18
ENDBRANCH  10  11
ENDBRANCH   1  10
BRANCH   4  19
ATOM     19  O   UNL     1       1.958   6.209  20.864  0.00  0.00    +0.000 OA
BRANCH  19  20
ATOM     20  C   UNL     1       1.461   4.922  20.502  0.00  0.00    +0.000 C 
BRANCH  20  21
ATOM     21  C   UNL     1       2.585   3.907  20.691  0.00  0.00    +0.000 C 
BRANCH  21  22
ATOM     22  C   UNL     1       2.658   2.949  19.504  0.00  0.00    +0.000 C 
BRANCH  22  23
ATOM     23  N   UNL     1       4.054   2.722  19.146  0.00  0.00    +0.000 NA
ATOM     24  H   UNL     1       4.109   2.317  18.211  0.00  0.00    +0.000 HD
BRANCH  23  25
ATOM     25  C   UNL     1       4.829   3.965  19.167  0.00  0.00    +0.000 C 
BRANCH  25  26
ATOM     26  C   UNL     1       5.491   4.250  17.843  0.00  0.00    +0.000 A 
ATOM     27  C   UNL     1       4.812   4.192  16.621  0.00  0.00    +0.000 A 
ATOM     28  C   UNL     1       5.489   4.463  15.436  0.00  0.00    +0.000 A 
ATOM     29  C   UNL     1       6.840   4.760  15.505  0.00  0.00    +0.000 A 
ATOM     30  N   UNL     1       7.541   4.793  16.658  0.00  0.00    +0.000 NA
ATOM     31  C   UNL     1       6.853   4.532  17.794  0.00  0.00    +0.000 A 
ENDBRANCH  25  26
ENDBRANCH  23  25
ENDBRANCH  22  23
ENDBRANCH  21  22
ENDBRANCH  20  21
ENDBRANCH  19  20
ENDBRANCH   4  19
TORSDOF 10
ENDMDL
MODEL 2
REMARK VINA RESULT:      -7.3      1.552      1.883
REMARK  Name = 
REMARK  10 active torsions:
REMARK  status: ('A' for Active; 'I' for Inactive)
REMARK    1  A    between atoms: C_7  and  O_8
REMARK    2  A    between atoms: O_8  and  C_9
REMARK    3  A    between atoms: C_9  and  C_10
REMARK    4  A    between atoms: C_13  and  O_14
REMARK    5  A    between atoms: O_14  and  C_15
REMARK    6  A    between atoms: C_15  and  C_16
REMARK    7  A    between atoms: C_16  and  C_17
REMARK    8  A    between atoms: C_17  and  N_18
REMARK    9  A    between atoms: N_18  and  C_19
REMARK   10  A    between atoms: C_19  and  C_20
REMARK                            x       y       z     vdW  Elec       q    Type
REMARK                         _______ _______ _______ _____ _____    ______ ____
ROOT
ATOM      1  C   UNL     1       0.317   9.535  21.624  0.00  0.00    +0.000 A 
ATOM      2  N   UNL     1       0.837   8.323  21.580  0.00  0.00    +0.000 NA
ATOM      3  C   UNL     1       1.376   8.237  20.318  0.00  0.00    +0.000 A 
ATOM      4  C   UNL     1       2.068   7.190  19.676  0.00  0.00    +0.000 A 
ATOM      5  C   UNL     1       2.490   7.411  18.354  0.00  0.00    +0.000 A 
ATOM      6  C   UNL     1       2.254   8.633  17.703  0.00  0.00    +0.000 A 
ATOM      7  C   UNL     1       1.587   9.684  18.341  0.00  0.00    +0.000 A 
ATOM      8  C   UNL     1       1.168   9.428  19.642  0.00  0.00    +0.000 A 
ATOM      9  O   UNL     1       0.493  10.275  20.478  0.00  0.00    +0.000 OA
ENDROOT
BRANCH   1  10
ATOM     10  C   UNL     1      -0.310  10.219  22.791  0.00  0.00    +0.000 C 
BRANCH  10  11
ATOM     11  O   UNL     1      -0.410  11.621  22.508  0.00  0.00    +0.000 OA
BRANCH  11  18
ATOM     12  F   UNL     1      -1.578  12.650  20.029  0.00  0.00    +0.000 F 
ATOM     13  C   UNL     1      -2.264  12.601  21.184  0.00  0.00    +0.000 A 
ATOM     14  C   UNL     1      -3.577  13.062  21.157  0.00  0.00    +0.000 A 
ATOM     15  C   UNL     1      -4.343  13.039  22.320  0.00  0.00    +0.000 A 
ATOM     16  C   UNL     1      -3.784  12.554  23.503  0.00  0.00    +0.000 A 
ATOM     17  C   UNL     1      -2.465  12.092  23.523  0.00  0.00    +0.000 A 
ATOM     18  C   UNL     1      -1.686  12.107  22.360  0.00  0.00    +0.000 A 
ENDBRANCH  11  18
ENDBRANCH  10  11
ENDBRANCH   1  10
BRANCH   4  19
ATOM     19  O   UNL     1       2.223   6.010  20.355  0.00  0.00    +0.000 OA
BRANCH  19  20
ATOM     20  C   UNL     1       1.939   4.821  19.622  0.00  0.00    +0.000 C 
BRANCH  20  21
ATOM     21  C   UNL     1       2.634   3.654  20.319  0.00  0.00    +0.000 C 
BRANCH  21  22
ATOM     22  C   UNL     1       3.998   3.378  19.691  0.00  0.00    +0.000 C 
BRANCH  22  23
ATOM     23  N   UNL     1       4.568   4.628  19.198  0.00  0.00    +0.000 NA
ATOM     24  H   UNL     1       4.551   5.330  19.939  0.00  0.00    +0.000 HD
BRANCH  23  25
ATOM     25  C   UNL     1       5.950   4.454  18.745  0.00  0.00    +0.000 C 
BRANCH  25  26
ATOM     26  C   UNL     1       6.087   4.610  17.252  0.00  0.00    +0.000 A 
ATOM     27  C   UNL     1       5.071   4.274  16.352  0.00  0.00    +0.000 A 
ATOM     28  C   UNL     1       5.270   4.440  14.984  0.00  0.00    +0.000 A 
ATOM     29  C   UNL     1       6.497   4.913  14.553  0.00  0.00    +0.000 A 
ATOM     30  N   UNL     1       7.517   5.217  15.384  0.00  0.00    +0.000 NA
ATOM     31  C   UNL     1       7.290   5.052  16.707  0.00  0.00    +0.000 A 
ENDBRANCH  25  26
ENDBRANCH  23  25
ENDBRANCH  22  23
ENDBRANCH  21  22
ENDBRANCH  20  21
ENDBRANCH  19  20
ENDBRANCH   4  19
TORSDOF 10
ENDMDL
MODEL 3
REMARK VINA RESULT:      -7.3      4.873      8.015
REMARK  Name = 
REMARK  10 active torsions:
REMARK  status: ('A' for Active; 'I' for Inactive)
REMARK    1  A    between atoms: C_7  and  O_8
REMARK    2  A    between atoms: O_8  and  C_9
REMARK    3  A    between atoms: C_9  and  C_10
REMARK    4  A    between atoms: C_13  and  O_14
REMARK    5  A    between atoms: O_14  and  C_15
REMARK    6  A    between atoms: C_15  and  C_16
REMARK    7  A    between atoms: C_16  and  C_17
REMARK    8  A    between atoms: C_17  and  N_18
REMARK    9  A    between atoms: N_18  and  C_19
REMARK   10  A    between atoms: C_19  and  C_20
REMARK                            x       y       z     vdW  Elec       q    Type
REMARK                         _______ _______ _______ _____ _____    ______ ____
ROOT
ATOM      1  C   UNL     1       7.645   7.215  17.994  0.00  0.00    +0.000 A 
ATOM      2  N   UNL     1       6.895   6.385  18.694  0.00  0.00    +0.000 NA
ATOM      3  C   UNL     1       6.351   5.548  17.748  0.00  0.00    +0.000 A 
ATOM      4  C   UNL     1       5.468   4.457  17.875  0.00  0.00    +0.000 A 
ATOM      5  C   UNL     1       5.083   3.798  16.694  0.00  0.00    +0.000 A 
ATOM      6  C   UNL     1       5.573   4.194  15.439  0.00  0.00    +0.000 A 
ATOM      7  C   UNL     1       6.467   5.264  15.308  0.00  0.00    +0.000 A 
ATOM      8  C   UNL     1       6.815   5.904  16.492  0.00  0.00    +0.000 A 
ATOM      9  O   UNL     1       7.657   6.972  16.640  0.00  0.00    +0.000 OA
ENDROOT
BRANCH   1  10
ATOM     10  C   UNL     1       8.558   8.275  18.508  0.00  0.00    +0.000 C 
BRANCH  10  11
ATOM     11  O   UNL     1       8.313   9.488  17.784  0.00  0.00    +0.000 OA
BRANCH  11  18
ATOM     12  F   UNL     1       7.758  12.223  16.899  0.00  0.00    +0.000 F 
ATOM     13  C   UNL     1       8.527  11.952  17.967  0.00  0.00    +0.000 A 
ATOM     14  C   UNL     1       9.058  13.041  18.654  0.00  0.00    +0.000 A 
ATOM     15  C   UNL     1       9.863  12.829  19.771  0.00  0.00    +0.000 A 
ATOM     16  C   UNL     1      10.131  11.526  20.188  0.00  0.00    +0.000 A 
ATOM     17  C   UNL     1       9.596  10.437  19.495  0.00  0.00    +0.000 A 
ATOM     18  C   UNL     1       8.782  10.636  18.373  0.00  0.00    +0.000 A 
ENDBRANCH  11  18
ENDBRANCH  10  11
ENDBRANCH   1  10
BRANCH   4  19
ATOM     19  O   UNL     1       4.995   4.154  19.124  0.00  0.00    +0.000 OA
BRANCH  19  20
ATOM     20  C   UNL     1       5.000   2.773  19.480  0.00  0.00    +0.000 C 
BRANCH  20  21
ATOM     21  C   UNL     1       3.692   2.463  20.202  0.00  0.00    +0.000 C 
BRANCH  21  22
ATOM     22  C   UNL     1       2.706   1.765  19.268  0.00  0.00    +0.000 C 
BRANCH  22  23
ATOM     23  N   UNL     1       1.405   2.420  19.356  0.00  0.00    +0.000 NA
ATOM     24  H   UNL     1       1.313   2.881  20.263  0.00  0.00    +0.000 HD
BRANCH  23  25
ATOM     25  C   UNL     1       1.225   3.418  18.299  0.00  0.00    +0.000 C 
BRANCH  25  26
ATOM     26  C   UNL     1       1.645   4.798  18.737  0.00  0.00    +0.000 A 
ATOM     27  C   UNL     1       2.227   5.730  17.871  0.00  0.00    +0.000 A 
ATOM     28  C   UNL     1       2.594   6.986  18.346  0.00  0.00    +0.000 A 
ATOM     29  C   UNL     1       2.392   7.265  19.687  0.00  0.00    +0.000 A 
ATOM     30  N   UNL     1       1.866   6.384  20.564  0.00  0.00    +0.000 NA
ATOM     31  C   UNL     1       1.512   5.175  20.070  0.00  0.00    +0.000 A 
ENDBRANCH  25  26
ENDBRANCH  23  25
ENDBRANCH  22  23
ENDBRANCH  21  22
ENDBRANCH  20  21
ENDBRANCH  19  20
ENDBRANCH   4  19
TORSDOF 10
ENDMDL
MODEL 4
REMARK VINA RESULT:      -7.2      2.934      9.314
REMARK  Name = 
REMARK  10 active torsions:
REMARK  status: ('A' for Active; 'I' for Inactive)
REMARK    1  A    between atoms: C_7  and  O_8
REMARK    2  A    between atoms: O_8  and  C_9
REMARK    3  A    between atoms: C_9  and  C_10
REMARK    4  A    between atoms: C_13  and  O_14
REMARK    5  A    between atoms: O_14  and  C_15
REMARK    6  A    between atoms: C_15  and  C_16
REMARK    7  A    between atoms: C_16  and  C_17
REMARK    8  A    between atoms: C_17  and  N_18
REMARK    9  A    between atoms: N_18  and  C_19
REMARK   10  A    between atoms: C_19  and  C_20
REMARK                            x       y       z     vdW  Elec       q    Type
REMARK                         _______ _______ _______ _____ _____    ______ ____
ROOT
ATOM      1  C   UNL     1       3.905   4.108  17.134  0.00  0.00    +0.000 A 
ATOM      2  N   UNL     1       3.613   5.087  17.969  0.00  0.00    +0.000 NA
ATOM      3  C   UNL     1       2.795   4.496  18.904  0.00  0.00    +0.000 A 
ATOM      4  C   UNL     1       2.161   5.025  20.046  0.00  0.00    +0.000 A 
ATOM      5  C   UNL     1       1.367   4.150  20.806  0.00  0.00    +0.000 A 
ATOM      6  C   UNL     1       1.226   2.797  20.457  0.00  0.00    +0.000 A 
ATOM      7  C   UNL     1       1.869   2.260  19.337  0.00  0.00    +0.000 A 
ATOM      8  C   UNL     1       2.634   3.155  18.597  0.00  0.00    +0.000 A 
ATOM      9  O   UNL     1       3.351   2.892  17.462  0.00  0.00    +0.000 OA
ENDROOT
BRANCH   1  10
ATOM     10  C   UNL     1       4.845   4.142  15.978  0.00  0.00    +0.000 C 
BRANCH  10  11
ATOM     11  O   UNL     1       6.179   3.930  16.458  0.00  0.00    +0.000 OA
BRANCH  11  18
ATOM     12  F   UNL     1       6.021   6.722  15.594  0.00  0.00    +0.000 F 
ATOM     13  C   UNL     1       6.695   6.344  16.694  0.00  0.00    +0.000 A 
ATOM     14  C   UNL     1       7.324   7.348  17.424  0.00  0.00    +0.000 A 
ATOM     15  C   UNL     1       8.039   7.024  18.574  0.00  0.00    +0.000 A 
ATOM     16  C   UNL     1       8.119   5.692  18.982  0.00  0.00    +0.000 A 
ATOM     17  C   UNL     1       7.485   4.689  18.245  0.00  0.00    +0.000 A 
ATOM     18  C   UNL     1       6.760   5.002  17.089  0.00  0.00    +0.000 A 
ENDBRANCH  11  18
ENDBRANCH  10  11
ENDBRANCH   1  10
BRANCH   4  19
ATOM     19  O   UNL     1       2.308   6.363  20.300  0.00  0.00    +0.000 OA
BRANCH  19  20
ATOM     20  C   UNL     1       1.153   7.038  20.795  0.00  0.00    +0.000 C 
BRANCH  20  21
ATOM     21  C   UNL     1       1.396   8.541  20.686  0.00  0.00    +0.000 C 
BRANCH  21  22
ATOM     22  C   UNL     1       0.077   9.310  20.719  0.00  0.00    +0.000 C 
BRANCH  22  23
ATOM     23  N   UNL     1       0.131  10.409  19.761  0.00  0.00    +0.000 NA
ATOM     24  H   UNL     1       0.269  10.040  18.820  0.00  0.00    +0.000 HD
BRANCH  23  25
ATOM     25  C   UNL     1      -1.097  11.207  19.779  0.00  0.00    +0.000 C 
BRANCH  25  26
ATOM     26  C   UNL     1      -1.956  10.964  18.564  0.00  0.00    +0.000 A 
ATOM     27  C   UNL     1      -1.583  10.104  17.524  0.00  0.00    +0.000 A 
ATOM     28  C   UNL     1      -2.425   9.932  16.429  0.00  0.00    +0.000 A 
ATOM     29  C   UNL     1      -3.609  10.649  16.392  0.00  0.00    +0.000 A 
ATOM     30  N   UNL     1      -3.991  11.514  17.356  0.00  0.00    +0.000 NA
ATOM     31  C   UNL     1      -3.155  11.654  18.411  0.00  0.00    +0.000 A 
ENDBRANCH  25  26
ENDBRANCH  23  25
ENDBRANCH  22  23
ENDBRANCH  21  22
ENDBRANCH  20  21
ENDBRANCH  19  20
ENDBRANCH   4  19
TORSDOF 10
ENDMDL
MODEL 5
REMARK VINA RESULT:      -7.1      3.514     10.121
REMARK  Name = 
REMARK  10 active torsions:
REMARK  status: ('A' for Active; 'I' for Inactive)
REMARK    1  A    between atoms: C_7  and  O_8
REMARK    2  A    between atoms: O_8  and  C_9
REMARK    3  A    between atoms: C_9  and  C_10
REMARK    4  A    between atoms: C_13  and  O_14
REMARK    5  A    between atoms: O_14  and  C_15
REMARK    6  A    between atoms: C_15  and  C_16
REMARK    7  A    between atoms: C_16  and  C_17
REMARK    8  A    between atoms: C_17  and  N_18
REMARK    9  A    between atoms: N_18  and  C_19
REMARK   10  A    between atoms: C_19  and  C_20
REMARK                            x       y       z     vdW  Elec       q    Type
REMARK                         _______ _______ _______ _____ _____    ______ ____
ROOT
ATOM      1  C   UNL     1       5.700   4.844  17.308  0.00  0.00    +0.000 A 
ATOM      2  N   UNL     1       4.772   5.781  17.263  0.00  0.00    +0.000 NA
ATOM      3  C   UNL     1       3.873   5.408  18.234  0.00  0.00    +0.000 A 
ATOM      4  C   UNL     1       2.672   6.007  18.663  0.00  0.00    +0.000 A 
ATOM      5  C   UNL     1       1.961   5.364  19.691  0.00  0.00    +0.000 A 
ATOM      6  C   UNL     1       2.437   4.183  20.284  0.00  0.00    +0.000 A 
ATOM      7  C   UNL     1       3.639   3.593  19.878  0.00  0.00    +0.000 A 
ATOM      8  C   UNL     1       4.310   4.245  18.848  0.00  0.00    +0.000 A 
ATOM      9  O   UNL     1       5.491   3.877  18.265  0.00  0.00    +0.000 OA
ENDROOT
BRANCH   1  10
ATOM     10  C   UNL     1       6.980   4.787  16.546  0.00  0.00    +0.000 C 
BRANCH  10  11
ATOM     11  O   UNL     1       6.862   5.611  15.379  0.00  0.00    +0.000 OA
BRANCH  11  18
ATOM     12  F   UNL     1       8.714   5.784  13.119  0.00  0.00    +0.000 F 
ATOM     13  C   UNL     1       7.618   5.006  13.096  0.00  0.00    +0.000 A 
ATOM     14  C   UNL     1       7.393   4.267  11.938  0.00  0.00    +0.000 A 
ATOM     15  C   UNL     1       6.275   3.440  11.850  0.00  0.00    +0.000 A 
ATOM     16  C   UNL     1       5.390   3.364  12.925  0.00  0.00    +0.000 A 
ATOM     17  C   UNL     1       5.621   4.108  14.085  0.00  0.00    +0.000 A 
ATOM     18  C   UNL     1       6.743   4.939  14.188  0.00  0.00    +0.000 A 
ENDBRANCH  11  18
ENDBRANCH  10  11
ENDBRANCH   1  10
BRANCH   4  19
ATOM     19  O   UNL     1       2.246   7.134  18.010  0.00  0.00    +0.000 OA
BRANCH  19  20
ATOM     20  C   UNL     1       2.259   8.341  18.768  0.00  0.00    +0.000 C 
BRANCH  20  21
ATOM     21  C   UNL     1       1.810   9.481  17.856  0.00  0.00    +0.000 C 
BRANCH  21  22
ATOM     22  C   UNL     1       1.048  10.542  18.647  0.00  0.00    +0.000 C 
BRANCH  22  23
ATOM     23  N   UNL     1      -0.332  10.109  18.837  0.00  0.00    +0.000 NA
ATOM     24  H   UNL     1      -0.375   9.412  19.582  0.00  0.00    +0.000 HD
BRANCH  23  25
ATOM     25  C   UNL     1      -1.210  11.228  19.188  0.00  0.00    +0.000 C 
BRANCH  25  26
ATOM     26  C   UNL     1      -2.416  11.314  18.288  0.00  0.00    +0.000 A 
ATOM     27  C   UNL     1      -3.674  11.734  18.735  0.00  0.00    +0.000 A 
ATOM     28  C   UNL     1      -4.746  11.784  17.848  0.00  0.00    +0.000 A 
ATOM     29  C   UNL     1      -4.534  11.384  16.540  0.00  0.00    +0.000 A 
ATOM     30  N   UNL     1      -3.347  10.940  16.075  0.00  0.00    +0.000 NA
ATOM     31  C   UNL     1      -2.323  10.910  16.960  0.00  0.00    +0.000 A 
ENDBRANCH  25  26
ENDBRANCH  23  25
ENDBRANCH  22  23
ENDBRANCH  21  22
ENDBRANCH  20  21
ENDBRANCH  19  20
ENDBRANCH   4  19
TORSDOF 10
ENDMDL
MODEL 6
REMARK VINA RESULT:      -7.1      4.865      8.329
REMARK  Name = 
REMARK  10 active torsions:
REMARK  status: ('A' for Active; 'I' for Inactive)
REMARK    1  A    between atoms: C_7  and  O_8
REMARK    2  A    between atoms: O_8  and  C_9
REMARK    3  A    between atoms: C_9  and  C_10
REMARK    4  A    between atoms: C_13  and  O_14
REMARK    5  A    between atoms: O_14  and  C_15
REMARK    6  A    between atoms: C_15  and  C_16
REMARK    7  A    between atoms: C_16  and  C_17
REMARK    8  A    between atoms: C_17  and  N_18
REMARK    9  A    between atoms: N_18  and  C_19
REMARK   10  A    between atoms: C_19  and  C_20
REMARK                            x       y       z     vdW  Elec       q    Type
REMARK                         _______ _______ _______ _____ _____    ______ ____
ROOT
ATOM      1  C   UNL     1       7.584   7.745  17.290  0.00  0.00    +0.000 A 
ATOM      2  N   UNL     1       6.426   7.656  17.915  0.00  0.00    +0.000 NA
ATOM      3  C   UNL     1       5.834   6.543  17.364  0.00  0.00    +0.000 A 
ATOM      4  C   UNL     1       4.589   5.935  17.619  0.00  0.00    +0.000 A 
ATOM      5  C   UNL     1       4.263   4.793  16.867  0.00  0.00    +0.000 A 
ATOM      6  C   UNL     1       5.148   4.264  15.915  0.00  0.00    +0.000 A 
ATOM      7  C   UNL     1       6.395   4.851  15.671  0.00  0.00    +0.000 A 
ATOM      8  C   UNL     1       6.681   5.988  16.419  0.00  0.00    +0.000 A 
ATOM      9  O   UNL     1       7.816   6.750  16.369  0.00  0.00    +0.000 OA
ENDROOT
BRANCH   1  10
ATOM     10  C   UNL     1       8.694   8.705  17.554  0.00  0.00    +0.000 C 
BRANCH  10  11
ATOM     11  O   UNL     1       8.293   9.602  18.598  0.00  0.00    +0.000 OA
BRANCH  11  18
ATOM     12  F   UNL     1       8.917  10.361  21.355  0.00  0.00    +0.000 F 
ATOM     13  C   UNL     1       9.552  10.896  20.298  0.00  0.00    +0.000 A 
ATOM     14  C   UNL     1      10.539  11.840  20.566  0.00  0.00    +0.000 A 
ATOM     15  C   UNL     1      11.235  12.432  19.515  0.00  0.00    +0.000 A 
ATOM     16  C   UNL     1      10.932  12.075  18.201  0.00  0.00    +0.000 A 
ATOM     17  C   UNL     1       9.940  11.127  17.938  0.00  0.00    +0.000 A 
ATOM     18  C   UNL     1       9.236  10.521  18.986  0.00  0.00    +0.000 A 
ENDBRANCH  11  18
ENDBRANCH  10  11
ENDBRANCH   1  10
BRANCH   4  19
ATOM     19  O   UNL     1       3.757   6.530  18.530  0.00  0.00    +0.000 OA
BRANCH  19  20
ATOM     20  C   UNL     1       2.952   7.601  18.041  0.00  0.00    +0.000 C 
BRANCH  20  21
ATOM     21  C   UNL     1       1.805   7.823  19.023  0.00  0.00    +0.000 C 
BRANCH  21  22
ATOM     22  C   UNL     1       2.104   7.163  20.367  0.00  0.00    +0.000 C 
BRANCH  22  23
ATOM     23  N   UNL     1       1.377   5.901  20.461  0.00  0.00    +0.000 NA
ATOM     24  H   UNL     1       1.066   5.613  19.532  0.00  0.00    +0.000 HD
BRANCH  23  25
ATOM     25  C   UNL     1       2.206   4.837  21.031  0.00  0.00    +0.000 C 
BRANCH  25  26
ATOM     26  C   UNL     1       2.478   3.731  20.044  0.00  0.00    +0.000 A 
ATOM     27  C   UNL     1       1.553   3.326  19.076  0.00  0.00    +0.000 A 
ATOM     28  C   UNL     1       1.870   2.292  18.199  0.00  0.00    +0.000 A 
ATOM     29  C   UNL     1       3.101   1.672  18.335  0.00  0.00    +0.000 A 
ATOM     30  N   UNL     1       4.009   2.008  19.276  0.00  0.00    +0.000 NA
ATOM     31  C   UNL     1       3.674   3.021  20.108  0.00  0.00    +0.000 A 
ENDBRANCH  25  26
ENDBRANCH  23  25
ENDBRANCH  22  23
ENDBRANCH  21  22
ENDBRANCH  20  21
ENDBRANCH  19  20
ENDBRANCH   4  19
TORSDOF 10
ENDMDL
MODEL 7
REMARK VINA RESULT:      -7.1      5.556      8.643
REMARK  Name = 
REMARK  10 active torsions:
REMARK  status: ('A' for Active; 'I' for Inactive)
REMARK    1  A    between atoms: C_7  and  O_8
REMARK    2  A    between atoms: O_8  and  C_9
REMARK    3  A    between atoms: C_9  and  C_10
REMARK    4  A    between atoms: C_13  and  O_14
REMARK    5  A    between atoms: O_14  and  C_15
REMARK    6  A    between atoms: C_15  and  C_16
REMARK    7  A    between atoms: C_16  and  C_17
REMARK    8  A    between atoms: C_17  and  N_18
REMARK    9  A    between atoms: N_18  and  C_19
REMARK   10  A    between atoms: C_19  and  C_20
REMARK                            x       y       z     vdW  Elec       q    Type
REMARK                         _______ _______ _______ _____ _____    ______ ____
ROOT
ATOM      1  C   UNL     1       7.980   8.712  17.953  0.00  0.00    +0.000 A 
ATOM      2  N   UNL     1       6.777   8.511  17.449  0.00  0.00    +0.000 NA
ATOM      3  C   UNL     1       6.562   7.165  17.624  0.00  0.00    +0.000 A 
ATOM      4  C   UNL     1       5.459   6.352  17.290  0.00  0.00    +0.000 A 
ATOM      5  C   UNL     1       5.551   4.983  17.596  0.00  0.00    +0.000 A 
ATOM      6  C   UNL     1       6.685   4.447  18.228  0.00  0.00    +0.000 A 
ATOM      7  C   UNL     1       7.774   5.251  18.581  0.00  0.00    +0.000 A 
ATOM      8  C   UNL     1       7.659   6.597  18.251  0.00  0.00    +0.000 A 
ATOM      9  O   UNL     1       8.576   7.587  18.475  0.00  0.00    +0.000 OA
ENDROOT
BRANCH   1  10
ATOM     10  C   UNL     1       8.692  10.009  18.131  0.00  0.00    +0.000 C 
BRANCH  10  11
ATOM     11  O   UNL     1       9.435   9.966  19.357  0.00  0.00    +0.000 OA
BRANCH  11  18
ATOM     12  F   UNL     1      11.795  11.388  18.370  0.00  0.00    +0.000 F 
ATOM     13  C   UNL     1      11.020  11.874  19.355  0.00  0.00    +0.000 A 
ATOM     14  C   UNL     1      11.384  13.103  19.896  0.00  0.00    +0.000 A 
ATOM     15  C   UNL     1      10.622  13.662  20.919  0.00  0.00    +0.000 A 
ATOM     16  C   UNL     1       9.501  12.981  21.393  0.00  0.00    +0.000 A 
ATOM     17  C   UNL     1       9.140  11.747  20.846  0.00  0.00    +0.000 A 
ATOM     18  C   UNL     1       9.895  11.176  19.814  0.00  0.00    +0.000 A 
ENDBRANCH  11  18
ENDBRANCH  10  11
ENDBRANCH   1  10
BRANCH   4  19
ATOM     19  O   UNL     1       4.406   6.934  16.636  0.00  0.00    +0.000 OA
BRANCH  19  20
ATOM     20  C   UNL     1       3.128   6.788  17.249  0.00  0.00    +0.000 C 
BRANCH  20  21
ATOM     21  C   UNL     1       2.817   8.071  18.017  0.00  0.00    +0.000 C 
BRANCH  21  22
ATOM     22  C   UNL     1       2.097   7.760  19.327  0.00  0.00    +0.000 C 
BRANCH  22  23
ATOM     23  N   UNL     1       2.775   6.660  20.005  0.00  0.00    +0.000 NA
ATOM     24  H   UNL     1       3.316   7.021  20.792  0.00  0.00    +0.000 HD
BRANCH  23  25
ATOM     25  C   UNL     1       1.826   5.662  20.504  0.00  0.00    +0.000 C 
BRANCH  25  26
ATOM     26  C   UNL     1       2.080   4.292  19.928  0.00  0.00    +0.000 A 
ATOM     27  C   UNL     1       3.329   3.663  19.974  0.00  0.00    +0.000 A 
ATOM     28  C   UNL     1       3.492   2.398  19.417  0.00  0.00    +0.000 A 
ATOM     29  C   UNL     1       2.401   1.807  18.802  0.00  0.00    +0.000 A 
ATOM     30  N   UNL     1       1.188   2.391  18.705  0.00  0.00    +0.000 NA
ATOM     31  C   UNL     1       1.060   3.617  19.263  0.00  0.00    +0.000 A 
ENDBRANCH  25  26
ENDBRANCH  23  25
ENDBRANCH  22  23
ENDBRANCH  21  22
ENDBRANCH  20  21
ENDBRANCH  19  20
ENDBRANCH   4  19
TORSDOF 10
ENDMDL
MODEL 8
REMARK VINA RESULT:      -7.1      1.583      1.972
REMARK  Name = 
REMARK  10 active torsions:
REMARK  status: ('A' for Active; 'I' for Inactive)
REMARK    1  A    between atoms: C_7  and  O_8
REMARK    2  A    between atoms: O_8  and  C_9
REMARK    3  A    between atoms: C_9  and  C_10
REMARK    4  A    between atoms: C_13  and  O_14
REMARK    5  A    between atoms: O_14  and  C_15
REMARK    6  A    between atoms: C_15  and  C_16
REMARK    7  A    between atoms: C_16  and  C_17
REMARK    8  A    between atoms: C_17  and  N_18
REMARK    9  A    between atoms: N_18  and  C_19
REMARK   10  A    between atoms: C_19  and  C_20
REMARK                            x       y       z     vdW  Elec       q    Type
REMARK                         _______ _______ _______ _____ _____    ______ ____
ROOT
ATOM      1  C   UNL     1       1.013   8.582  21.410  0.00  0.00    +0.000 A 
ATOM      2  N   UNL     1       1.018   7.263  21.373  0.00  0.00    +0.000 NA
ATOM      3  C   UNL     1       1.572   6.966  20.150  0.00  0.00    +0.000 A 
ATOM      4  C   UNL     1       1.843   5.728  19.532  0.00  0.00    +0.000 A 
ATOM      5  C   UNL     1       2.415   5.760  18.249  0.00  0.00    +0.000 A 
ATOM      6  C   UNL     1       2.726   6.973  17.613  0.00  0.00    +0.000 A 
ATOM      7  C   UNL     1       2.479   8.205  18.229  0.00  0.00    +0.000 A 
ATOM      8  C   UNL     1       1.898   8.140  19.491  0.00  0.00    +0.000 A 
ATOM      9  O   UNL     1       1.550   9.188  20.298  0.00  0.00    +0.000 OA
ENDROOT
BRANCH   1  10
ATOM     10  C   UNL     1       0.620   9.463  22.547  0.00  0.00    +0.000 C 
BRANCH  10  11
ATOM     11  O   UNL     1       0.664  10.828  22.112  0.00  0.00    +0.000 OA
BRANCH  11  18
ATOM     12  F   UNL     1      -0.379  11.679  19.513  0.00  0.00    +0.000 F 
ATOM     13  C   UNL     1      -1.073  11.831  20.654  0.00  0.00    +0.000 A 
ATOM     14  C   UNL     1      -2.332  12.416  20.552  0.00  0.00    +0.000 A 
ATOM     15  C   UNL     1      -3.103  12.603  21.697  0.00  0.00    +0.000 A 
ATOM     16  C   UNL     1      -2.603  12.203  22.936  0.00  0.00    +0.000 A 
ATOM     17  C   UNL     1      -1.338  11.616  23.032  0.00  0.00    +0.000 A 
ATOM     18  C   UNL     1      -0.555  11.420  21.888  0.00  0.00    +0.000 A 
ENDBRANCH  11  18
ENDBRANCH  10  11
ENDBRANCH   1  10
BRANCH   4  19
ATOM     19  O   UNL     1       1.473   4.586  20.191  0.00  0.00    +0.000 OA
BRANCH  19  20
ATOM     20  C   UNL     1       1.873   3.357  19.591  0.00  0.00    +0.000 C 
BRANCH  20  21
ATOM     21  C   UNL     1       3.194   2.925  20.223  0.00  0.00    +0.000 C 
BRANCH  21  22
ATOM     22  C   UNL     1       4.138   2.348  19.170  0.00  0.00    +0.000 C 
BRANCH  22  23
ATOM     23  N   UNL     1       5.418   3.046  19.231  0.00  0.00    +0.000 NA
ATOM     24  H   UNL     1       6.107   2.551  18.663  0.00  0.00    +0.000 HD
BRANCH  23  25
ATOM     25  C   UNL     1       5.310   4.424  18.747  0.00  0.00    +0.000 C 
BRANCH  25  26
ATOM     26  C   UNL     1       5.791   4.571  17.325  0.00  0.00    +0.000 A 
ATOM     27  C   UNL     1       5.081   4.082  16.224  0.00  0.00    +0.000 A 
ATOM     28  C   UNL     1       5.588   4.250  14.939  0.00  0.00    +0.000 A 
ATOM     29  C   UNL     1       6.811   4.882  14.794  0.00  0.00    +0.000 A 
ATOM     30  N   UNL     1       7.546   5.338  15.831  0.00  0.00    +0.000 NA
ATOM     31  C   UNL     1       7.023   5.166  17.066  0.00  0.00    +0.000 A 
ENDBRANCH  25  26
ENDBRANCH  23  25
ENDBRANCH  22  23
ENDBRANCH  21  22
ENDBRANCH  20  21
ENDBRANCH  19  20
ENDBRANCH   4  19
TORSDOF 10
ENDMDL
MODEL 9
REMARK VINA RESULT:      -7.1      2.315      2.678
REMARK  Name = 
REMARK  10 active torsions:
REMARK  status: ('A' for Active; 'I' for Inactive)
REMARK    1  A    between atoms: C_7  and  O_8
REMARK    2  A    between atoms: O_8  and  C_9
REMARK    3  A    between atoms: C_9  and  C_10
REMARK    4  A    between atoms: C_13  and  O_14
REMARK    5  A    between atoms: O_14  and  C_15
REMARK    6  A    between atoms: C_15  and  C_16
REMARK    7  A    between atoms: C_16  and  C_17
REMARK    8  A    between atoms: C_17  and  N_18
REMARK    9  A    between atoms: N_18  and  C_19
REMARK   10  A    between atoms: C_19  and  C_20
REMARK                            x       y       z     vdW  Elec       q    Type
REMARK                         _______ _______ _______ _____ _____    ______ ____
ROOT
ATOM      1  C   UNL     1       0.582   9.321  21.276  0.00  0.00    +0.000 A 
ATOM      2  N   UNL     1       1.099   8.110  21.361  0.00  0.00    +0.000 NA
ATOM      3  C   UNL     1       1.673   7.903  20.129  0.00  0.00    +0.000 A 
ATOM      4  C   UNL     1       2.378   6.799  19.609  0.00  0.00    +0.000 A 
ATOM      5  C   UNL     1       2.837   6.894  18.283  0.00  0.00    +0.000 A 
ATOM      6  C   UNL     1       2.622   8.047  17.513  0.00  0.00    +0.000 A 
ATOM      7  C   UNL     1       1.941   9.155  18.029  0.00  0.00    +0.000 A 
ATOM      8  C   UNL     1       1.486   9.025  19.337  0.00  0.00    +0.000 A 
ATOM      9  O   UNL     1       0.791   9.948  20.069  0.00  0.00    +0.000 OA
ENDROOT
BRANCH   1  10
ATOM     10  C   UNL     1      -0.075  10.113  22.354  0.00  0.00    +0.000 C 
BRANCH  10  11
ATOM     11  O   UNL     1      -0.943  11.082  21.754  0.00  0.00    +0.000 OA
BRANCH  11  18
ATOM     12  F   UNL     1       0.995  12.937  20.582  0.00  0.00    +0.000 F 
ATOM     13  C   UNL     1       0.181  13.287  21.593  0.00  0.00    +0.000 A 
ATOM     14  C   UNL     1       0.293  14.590  22.069  0.00  0.00    +0.000 A 
ATOM     15  C   UNL     1      -0.522  15.017  23.116  0.00  0.00    +0.000 A 
ATOM     16  C   UNL     1      -1.440  14.131  23.678  0.00  0.00    +0.000 A 
ATOM     17  C   UNL     1      -1.548  12.824  23.195  0.00  0.00    +0.000 A 
ATOM     18  C   UNL     1      -0.738  12.383  22.141  0.00  0.00    +0.000 A 
ENDBRANCH  11  18
ENDBRANCH  10  11
ENDBRANCH   1  10
BRANCH   4  19
ATOM     19  O   UNL     1       2.511   5.690  20.401  0.00  0.00    +0.000 OA
BRANCH  19  20
ATOM     20  C   UNL     1       1.341   4.893  20.569  0.00  0.00    +0.000 C 
BRANCH  20  21
ATOM     21  C   UNL     1       1.297   3.868  19.438  0.00  0.00    +0.000 C 
BRANCH  21  22
ATOM     22  C   UNL     1       1.783   2.504  19.921  0.00  0.00    +0.000 C 
BRANCH  22  23
ATOM     23  N   UNL     1       3.195   2.346  19.589  0.00  0.00    +0.000 NA
ATOM     24  H   UNL     1       3.523   1.431  19.903  0.00  0.00    +0.000 HD
BRANCH  23  25
ATOM     25  C   UNL     1       3.432   2.462  18.148  0.00  0.00    +0.000 C 
BRANCH  25  26
ATOM     26  C   UNL     1       4.397   3.571  17.813  0.00  0.00    +0.000 A 
ATOM     27  C   UNL     1       4.572   4.066  16.516  0.00  0.00    +0.000 A 
ATOM     28  C   UNL     1       5.486   5.089  16.280  0.00  0.00    +0.000 A 
ATOM     29  C   UNL     1       6.222   5.571  17.349  0.00  0.00    +0.000 A 
ATOM     30  N   UNL     1       6.110   5.099  18.609  0.00  0.00    +0.000 NA
ATOM     31  C   UNL     1       5.208   4.110  18.808  0.00  0.00    +0.000 A 
ENDBRANCH  25  26
ENDBRANCH  23  25
ENDBRANCH  22  23
ENDBRANCH  21  22
ENDBRANCH  20  21
ENDBRANCH  19  20
ENDBRANCH   4  19
TORSDOF 10
ENDMDL
