MODEL 1
REMARK VINA RESULT:      -8.2      0.000      0.000
REMARK  Name = 
REMARK  8 active torsions:
REMARK  status: ('A' for Active; 'I' for Inactive)
REMARK    1  A    between atoms: C_2  and  C_3
REMARK    2  A    between atoms: C_6  and  C_7
REMARK    3  A    between atoms: C_12  and  N_13
REMARK    4  A    between atoms: N_13  and  N_14
REMARK    5  A    between atoms: N_15  and  C_16
REMARK    6  A    between atoms: C_18  and  C_19
REMARK    7  A    between atoms: C_25  and  C_26
REMARK    8  A    between atoms: C_26  and  O_28
REMARK                            x       y       z     vdW  Elec       q    Type
REMARK                         _______ _______ _______ _____ _____    ______ ____
ROOT
ATOM      1  N   UNL     1       3.625   4.795  17.322  0.00  0.00    +0.000 NA
ATOM      2  N   UNL     1       4.271   3.755  17.069  0.00  0.00    +0.000 NA
ENDROOT
BRANCH   2   3
ATOM      3  C   UNL     1       5.314   4.041  16.138  0.00  0.00    +0.000 A 
ATOM      4  C   UNL     1       5.101   3.787  14.761  0.00  0.00    +0.000 A 
ATOM      5  C   UNL     1       6.087   4.006  13.789  0.00  0.00    +0.000 A 
ATOM      6  C   UNL     1       7.282   4.609  14.180  0.00  0.00    +0.000 A 
ATOM      7  C   UNL     1       7.505   4.911  15.525  0.00  0.00    +0.000 A 
ATOM      8  C   UNL     1       6.552   4.597  16.520  0.00  0.00    +0.000 A 
BRANCH   5   9
ATOM      9  C   UNL     1       5.892   3.531  12.370  0.00  0.00    +0.000 C 
ATOM     10  F   UNL     1       6.757   4.103  11.487  0.00  0.00    +0.000 F 
ATOM     11  F   UNL     1       6.043   2.188  12.233  0.00  0.00    +0.000 F 
ATOM     12  F   UNL     1       4.645   3.824  11.907  0.00  0.00    +0.000 F 
ENDBRANCH   5   9
BRANCH   8  13
ATOM     13  C   UNL     1       7.005   4.839  17.925  0.00  0.00    +0.000 C 
ATOM     14  O   UNL     1       8.103   4.492  18.320  0.00  0.00    +0.000 OA
BRANCH  13  15
ATOM     15  O   UNL     1       6.108   5.418  18.748  0.00  0.00    +0.000 OA
ATOM     16  H   UNL     1       5.554   6.107  18.336  0.00  0.00    +0.000 HD
ENDBRANCH  13  15
ENDBRANCH   8  13
ENDBRANCH   2   3
BRANCH   1  17
ATOM     17  N   UNL     1       2.881   4.598  18.426  0.00  0.00    +0.000 N 
ATOM     18  H   UNL     1       2.408   3.704  18.523  0.00  0.00    +0.000 HD
BRANCH  17  24
ATOM     19  C   UNL     1       1.986   5.638  20.479  0.00  0.00    +0.000 A 
ATOM     20  C   UNL     1       1.471   6.759  21.152  0.00  0.00    +0.000 A 
ATOM     21  C   UNL     1       1.349   7.982  20.500  0.00  0.00    +0.000 A 
ATOM     22  C   UNL     1       1.757   8.113  19.169  0.00  0.00    +0.000 A 
ATOM     23  C   UNL     1       2.262   6.980  18.496  0.00  0.00    +0.000 A 
ATOM     24  C   UNL     1       2.349   5.714  19.117  0.00  0.00    +0.000 A 
BRANCH  22  25
ATOM     25  C   UNL     1       1.652   9.451  18.474  0.00  0.00    +0.000 C 
ATOM     26  F   UNL     1       1.450  10.487  19.337  0.00  0.00    +0.000 F 
ATOM     27  F   UNL     1       2.773   9.766  17.772  0.00  0.00    +0.000 F 
ATOM     28  F   UNL     1       0.621   9.500  17.589  0.00  0.00    +0.000 F 
ENDBRANCH  22  25
BRANCH  19  30
ATOM     29  N   UNL     1       2.227   3.457  21.862  0.00  0.00    +0.000 NA
ATOM     30  C   UNL     1       2.126   4.432  21.238  0.00  0.00    +0.000 C 
ENDBRANCH  19  30
ENDBRANCH  17  24
ENDBRANCH   1  17
TORSDOF 8
ENDMDL
MODEL 2
REMARK VINA RESULT:      -8.2      0.071      1.005
REMARK  Name = 
REMARK  8 active torsions:
REMARK  status: ('A' for Active; 'I' for Inactive)
REMARK    1  A    between atoms: C_2  and  C_3
REMARK    2  A    between atoms: C_6  and  C_7
REMARK    3  A    between atoms: C_12  and  N_13
REMARK    4  A    between atoms: N_13  and  N_14
REMARK    5  A    between atoms: N_15  and  C_16
REMARK    6  A    between atoms: C_18  and  C_19
REMARK    7  A    between atoms: C_25  and  C_26
REMARK    8  A    between atoms: C_26  and  O_28
REMARK                            x       y       z     vdW  Elec       q    Type
REMARK                         _______ _______ _______ _____ _____    ______ ____
ROOT
ATOM      1  N   UNL     1       3.666   4.820  17.338  0.00  0.00    +0.000 NA
ATOM      2  N   UNL     1       4.284   3.772  17.051  0.00  0.00    +0.000 NA
ENDROOT
BRANCH   2   3
ATOM      3  C   UNL     1       5.309   4.054  16.099  0.00  0.00    +0.000 A 
ATOM      4  C   UNL     1       5.076   3.778  14.729  0.00  0.00    +0.000 A 
ATOM      5  C   UNL     1       6.045   3.991  13.738  0.00  0.00    +0.000 A 
ATOM      6  C   UNL     1       7.240   4.611  14.101  0.00  0.00    +0.000 A 
ATOM      7  C   UNL     1       7.482   4.934  15.437  0.00  0.00    +0.000 A 
ATOM      8  C   UNL     1       6.548   4.626  16.452  0.00  0.00    +0.000 A 
BRANCH   5   9
ATOM      9  C   UNL     1       5.831   3.494  12.329  0.00  0.00    +0.000 C 
ATOM     10  F   UNL     1       5.981   2.146  12.205  0.00  0.00    +0.000 F 
ATOM     11  F   UNL     1       4.595   3.784  11.846  0.00  0.00    +0.000 F 
ATOM     12  F   UNL     1       6.720   4.046  11.458  0.00  0.00    +0.000 F 
ENDBRANCH   5   9
BRANCH   8  13
ATOM     13  C   UNL     1       7.021   4.893  17.846  0.00  0.00    +0.000 C 
ATOM     14  O   UNL     1       8.088   4.476  18.259  0.00  0.00    +0.000 OA
BRANCH  13  15
ATOM     15  O   UNL     1       6.175   5.580  18.640  0.00  0.00    +0.000 OA
ATOM     16  H   UNL     1       5.359   5.888  18.205  0.00  0.00    +0.000 HD
ENDBRANCH  13  15
ENDBRANCH   8  13
ENDBRANCH   2   3
BRANCH   1  17
ATOM     17  N   UNL     1       2.945   4.618  18.457  0.00  0.00    +0.000 N 
ATOM     18  H   UNL     1       2.509   3.709  18.579  0.00  0.00    +0.000 HD
BRANCH  17  24
ATOM     19  C   UNL     1       1.988   5.649  20.486  0.00  0.00    +0.000 A 
ATOM     20  C   UNL     1       1.440   6.763  21.143  0.00  0.00    +0.000 A 
ATOM     21  C   UNL     1       1.312   7.982  20.485  0.00  0.00    +0.000 A 
ATOM     22  C   UNL     1       1.747   8.116  19.163  0.00  0.00    +0.000 A 
ATOM     23  C   UNL     1       2.286   6.990  18.505  0.00  0.00    +0.000 A 
ATOM     24  C   UNL     1       2.380   5.727  19.132  0.00  0.00    +0.000 A 
BRANCH  22  25
ATOM     25  C   UNL     1       1.635   9.450  18.461  0.00  0.00    +0.000 C 
ATOM     26  F   UNL     1       0.574   9.517  17.607  0.00  0.00    +0.000 F 
ATOM     27  F   UNL     1       1.479  10.486  19.328  0.00  0.00    +0.000 F 
ATOM     28  F   UNL     1       2.733   9.740  17.713  0.00  0.00    +0.000 F 
ENDBRANCH  22  25
BRANCH  19  30
ATOM     29  N   UNL     1       2.266   3.476  21.875  0.00  0.00    +0.000 NA
ATOM     30  C   UNL     1       2.132   4.448  21.252  0.00  0.00    +0.000 C 
ENDBRANCH  19  30
ENDBRANCH  17  24
ENDBRANCH   1  17
TORSDOF 8
ENDMDL
MODEL 3
REMARK VINA RESULT:      -8.1      0.813      1.369
REMARK  Name = 
REMARK  8 active torsions:
REMARK  status: ('A' for Active; 'I' for Inactive)
REMARK    1  A    between atoms: C_2  and  C_3
REMARK    2  A    between atoms: C_6  and  C_7
REMARK    3  A    between atoms: C_12  and  N_13
REMARK    4  A    between atoms: N_13  and  N_14
REMARK    5  A    between atoms: N_15  and  C_16
REMARK    6  A    between atoms: C_18  and  C_19
REMARK    7  A    between atoms: C_25  and  C_26
REMARK    8  A    between atoms: C_26  and  O_28
REMARK                            x       y       z     vdW  Elec       q    Type
REMARK                         _______ _______ _______ _____ _____    ______ ____
ROOT
ATOM      1  N   UNL     1       3.572   3.722  16.992  0.00  0.00    +0.000 NA
ATOM      2  N   UNL     1       4.785   3.562  17.249  0.00  0.00    +0.000 NA
ENDROOT
BRANCH   2   3
ATOM      3  C   UNL     1       5.581   4.015  16.154  0.00  0.00    +0.000 A 
ATOM      4  C   UNL     1       5.221   3.640  14.837  0.00  0.00    +0.000 A 
ATOM      5  C   UNL     1       5.971   4.013  13.712  0.00  0.00    +0.000 A 
ATOM      6  C   UNL     1       7.044   4.886  13.889  0.00  0.00    +0.000 A 
ATOM      7  C   UNL     1       7.396   5.308  15.173  0.00  0.00    +0.000 A 
ATOM      8  C   UNL     1       6.703   4.851  16.316  0.00  0.00    +0.000 A 
BRANCH   5   9
ATOM      9  C   UNL     1       5.673   3.424  12.355  0.00  0.00    +0.000 C 
ATOM     10  F   UNL     1       4.394   3.645  11.941  0.00  0.00    +0.000 F 
ATOM     11  F   UNL     1       6.477   3.913  11.375  0.00  0.00    +0.000 F 
ATOM     12  F   UNL     1       5.836   2.073  12.343  0.00  0.00    +0.000 F 
ENDBRANCH   5   9
BRANCH   8  13
ATOM     13  C   UNL     1       7.300   5.269  17.623  0.00  0.00    +0.000 C 
ATOM     14  O   UNL     1       7.526   6.435  17.889  0.00  0.00    +0.000 OA
BRANCH  13  15
ATOM     15  O   UNL     1       7.624   4.274  18.474  0.00  0.00    +0.000 OA
ATOM     16  H   UNL     1       7.049   3.489  18.430  0.00  0.00    +0.000 HD
ENDBRANCH  13  15
ENDBRANCH   8  13
ENDBRANCH   2   3
BRANCH   1  17
ATOM     17  N   UNL     1       2.860   3.612  18.130  0.00  0.00    +0.000 N 
ATOM     18  H   UNL     1       2.294   2.778  18.255  0.00  0.00    +0.000 HD
BRANCH  17  24
ATOM     19  C   UNL     1       2.250   4.766  20.226  0.00  0.00    +0.000 A 
ATOM     20  C   UNL     1       1.894   5.940  20.912  0.00  0.00    +0.000 A 
ATOM     21  C   UNL     1       1.814   7.156  20.240  0.00  0.00    +0.000 A 
ATOM     22  C   UNL     1       2.105   7.225  18.874  0.00  0.00    +0.000 A 
ATOM     23  C   UNL     1       2.450   6.040  18.189  0.00  0.00    +0.000 A 
ATOM     24  C   UNL     1       2.490   4.784  18.835  0.00  0.00    +0.000 A 
BRANCH  22  25
ATOM     25  C   UNL     1       2.047   8.552  18.155  0.00  0.00    +0.000 C 
ATOM     26  F   UNL     1       1.047   8.616  17.230  0.00  0.00    +0.000 F 
ATOM     27  F   UNL     1       1.838   9.598  19.000  0.00  0.00    +0.000 F 
ATOM     28  F   UNL     1       3.194   8.832  17.480  0.00  0.00    +0.000 F 
ENDBRANCH  22  25
BRANCH  19  30
ATOM     29  N   UNL     1       2.447   2.605  21.646  0.00  0.00    +0.000 NA
ATOM     30  C   UNL     1       2.361   3.568  21.002  0.00  0.00    +0.000 C 
ENDBRANCH  19  30
ENDBRANCH  17  24
ENDBRANCH   1  17
TORSDOF 8
ENDMDL
MODEL 4
REMARK VINA RESULT:      -8.1      4.290      8.273
REMARK  Name = 
REMARK  8 active torsions:
REMARK  status: ('A' for Active; 'I' for Inactive)
REMARK    1  A    between atoms: C_2  and  C_3
REMARK    2  A    between atoms: C_6  and  C_7
REMARK    3  A    between atoms: C_12  and  N_13
REMARK    4  A    between atoms: N_13  and  N_14
REMARK    5  A    between atoms: N_15  and  C_16
REMARK    6  A    between atoms: C_18  and  C_19
REMARK    7  A    between atoms: C_25  and  C_26
REMARK    8  A    between atoms: C_26  and  O_28
REMARK                            x       y       z     vdW  Elec       q    Type
REMARK                         _______ _______ _______ _____ _____    ______ ____
ROOT
ATOM      1  N   UNL     1       2.015   7.861  18.020  0.00  0.00    +0.000 NA
ATOM      2  N   UNL     1       2.263   8.965  18.554  0.00  0.00    +0.000 NA
ENDROOT
BRANCH   2   3
ATOM      3  C   UNL     1       1.065   9.534  19.081  0.00  0.00    +0.000 A 
ATOM      4  C   UNL     1       0.217  10.276  18.224  0.00  0.00    +0.000 A 
ATOM      5  C   UNL     1      -0.958  10.897  18.673  0.00  0.00    +0.000 A 
ATOM      6  C   UNL     1      -1.365  10.673  19.988  0.00  0.00    +0.000 A 
ATOM      7  C   UNL     1      -0.571   9.910  20.846  0.00  0.00    +0.000 A 
ATOM      8  C   UNL     1       0.663   9.369  20.422  0.00  0.00    +0.000 A 
BRANCH   5   9
ATOM      9  C   UNL     1      -1.720  11.845  17.780  0.00  0.00    +0.000 C 
ATOM     10  F   UNL     1      -1.998  11.322  16.553  0.00  0.00    +0.000 F 
ATOM     11  F   UNL     1      -2.913  12.227  18.307  0.00  0.00    +0.000 F 
ATOM     12  F   UNL     1      -1.023  12.989  17.545  0.00  0.00    +0.000 F 
ENDBRANCH   5   9
BRANCH   8  13
ATOM     13  C   UNL     1       1.466   8.712  21.500  0.00  0.00    +0.000 C 
ATOM     14  O   UNL     1       1.706   9.266  22.558  0.00  0.00    +0.000 OA
BRANCH  13  15
ATOM     15  O   UNL     1       1.956   7.488  21.215  0.00  0.00    +0.000 OA
ATOM     16  H   UNL     1       1.356   6.911  20.708  0.00  0.00    +0.000 HD
ENDBRANCH  13  15
ENDBRANCH   8  13
ENDBRANCH   2   3
BRANCH   1  17
ATOM     17  N   UNL     1       3.167   7.191  17.831  0.00  0.00    +0.000 N 
ATOM     18  H   UNL     1       3.920   7.674  17.350  0.00  0.00    +0.000 HD
BRANCH  17  24
ATOM     19  C   UNL     1       4.136   5.039  17.105  0.00  0.00    +0.000 A 
ATOM     20  C   UNL     1       4.112   3.634  17.094  0.00  0.00    +0.000 A 
ATOM     21  C   UNL     1       3.142   2.937  17.807  0.00  0.00    +0.000 A 
ATOM     22  C   UNL     1       2.188   3.630  18.559  0.00  0.00    +0.000 A 
ATOM     23  C   UNL     1       2.210   5.041  18.556  0.00  0.00    +0.000 A 
ATOM     24  C   UNL     1       3.152   5.775  17.801  0.00  0.00    +0.000 A 
BRANCH  22  25
ATOM     25  C   UNL     1       1.155   2.868  19.357  0.00  0.00    +0.000 C 
ATOM     26  F   UNL     1       1.700   1.914  20.164  0.00  0.00    +0.000 F 
ATOM     27  F   UNL     1       0.426   3.674  20.175  0.00  0.00    +0.000 F 
ATOM     28  F   UNL     1       0.260   2.217  18.566  0.00  0.00    +0.000 F 
ENDBRANCH  22  25
BRANCH  19  30
ATOM     29  N   UNL     1       6.057   6.209  15.815  0.00  0.00    +0.000 NA
ATOM     30  C   UNL     1       5.198   5.677  16.388  0.00  0.00    +0.000 C 
ENDBRANCH  19  30
ENDBRANCH  17  24
ENDBRANCH   1  17
TORSDOF 8
ENDMDL
MODEL 5
REMARK VINA RESULT:      -8.0      4.762      8.850
REMARK  Name = 
REMARK  8 active torsions:
REMARK  status: ('A' for Active; 'I' for Inactive)
REMARK    1  A    between atoms: C_2  and  C_3
REMARK    2  A    between atoms: C_6  and  C_7
REMARK    3  A    between atoms: C_12  and  N_13
REMARK    4  A    between atoms: N_13  and  N_14
REMARK    5  A    between atoms: N_15  and  C_16
REMARK    6  A    between atoms: C_18  and  C_19
REMARK    7  A    between atoms: C_25  and  C_26
REMARK    8  A    between atoms: C_26  and  O_28
REMARK                            x       y       z     vdW  Elec       q    Type
REMARK                         _______ _______ _______ _____ _____    ______ ____
ROOT
ATOM      1  N   UNL     1       2.214   8.161  18.891  0.00  0.00    +0.000 NA
ATOM      2  N   UNL     1       1.674   9.184  18.416  0.00  0.00    +0.000 NA
ENDROOT
BRANCH   2   3
ATOM      3  C   UNL     1       1.237  10.042  19.469  0.00  0.00    +0.000 A 
ATOM      4  C   UNL     1       0.706   9.469  20.651  0.00  0.00    +0.000 A 
ATOM      5  C   UNL     1       0.222  10.243  21.716  0.00  0.00    +0.000 A 
ATOM      6  C   UNL     1       0.380  11.627  21.656  0.00  0.00    +0.000 A 
ATOM      7  C   UNL     1       0.940  12.218  20.521  0.00  0.00    +0.000 A 
ATOM      8  C   UNL     1       1.334  11.446  19.406  0.00  0.00    +0.000 A 
BRANCH   5   9
ATOM      9  C   UNL     1      -0.520   9.601  22.862  0.00  0.00    +0.000 C 
ATOM     10  F   UNL     1      -1.550  10.360  23.329  0.00  0.00    +0.000 F 
ATOM     11  F   UNL     1      -1.054   8.394  22.540  0.00  0.00    +0.000 F 
ATOM     12  F   UNL     1       0.293   9.384  23.932  0.00  0.00    +0.000 F 
ENDBRANCH   5   9
BRANCH   8  13
ATOM     13  C   UNL     1       1.767  12.239  18.212  0.00  0.00    +0.000 C 
ATOM     14  O   UNL     1       1.434  13.398  18.050  0.00  0.00    +0.000 OA
BRANCH  13  15
ATOM     15  O   UNL     1       2.506  11.580  17.297  0.00  0.00    +0.000 OA
ATOM     16  H   UNL     1       3.270  12.074  16.949  0.00  0.00    +0.000 HD
ENDBRANCH  13  15
ENDBRANCH   8  13
ENDBRANCH   2   3
BRANCH   1  17
ATOM     17  N   UNL     1       2.908   7.536  17.922  0.00  0.00    +0.000 N 
ATOM     18  H   UNL     1       3.035   8.025  17.041  0.00  0.00    +0.000 HD
BRANCH  17  24
ATOM     19  C   UNL     1       4.000   5.432  17.229  0.00  0.00    +0.000 A 
ATOM     20  C   UNL     1       4.059   4.028  17.245  0.00  0.00    +0.000 A 
ATOM     21  C   UNL     1       3.134   3.287  17.975  0.00  0.00    +0.000 A 
ATOM     22  C   UNL     1       2.144   3.937  18.718  0.00  0.00    +0.000 A 
ATOM     23  C   UNL     1       2.083   5.346  18.689  0.00  0.00    +0.000 A 
ATOM     24  C   UNL     1       2.976   6.121  17.917  0.00  0.00    +0.000 A 
BRANCH  22  25
ATOM     25  C   UNL     1       1.161   3.130  19.535  0.00  0.00    +0.000 C 
ATOM     26  F   UNL     1       0.295   2.408  18.768  0.00  0.00    +0.000 F 
ATOM     27  F   UNL     1       1.772   2.230  20.352  0.00  0.00    +0.000 F 
ATOM     28  F   UNL     1       0.385   3.908  20.337  0.00  0.00    +0.000 F 
ENDBRANCH  22  25
BRANCH  19  30
ATOM     29  N   UNL     1       5.844   6.689  15.909  0.00  0.00    +0.000 NA
ATOM     30  C   UNL     1       5.020   6.118  16.497  0.00  0.00    +0.000 C 
ENDBRANCH  19  30
ENDBRANCH  17  24
ENDBRANCH   1  17
TORSDOF 8
ENDMDL
MODEL 6
REMARK VINA RESULT:      -8.0      4.290      8.338
REMARK  Name = 
REMARK  8 active torsions:
REMARK  status: ('A' for Active; 'I' for Inactive)
REMARK    1  A    between atoms: C_2  and  C_3
REMARK    2  A    between atoms: C_6  and  C_7
REMARK    3  A    between atoms: C_12  and  N_13
REMARK    4  A    between atoms: N_13  and  N_14
REMARK    5  A    between atoms: N_15  and  C_16
REMARK    6  A    between atoms: C_18  and  C_19
REMARK    7  A    between atoms: C_25  and  C_26
REMARK    8  A    between atoms: C_26  and  O_28
REMARK                            x       y       z     vdW  Elec       q    Type
REMARK                         _______ _______ _______ _____ _____    ______ ____
ROOT
ATOM      1  N   UNL     1       1.944   7.761  18.174  0.00  0.00    +0.000 NA
ATOM      2  N   UNL     1       2.178   8.951  18.480  0.00  0.00    +0.000 NA
ENDROOT
BRANCH   2   3
ATOM      3  C   UNL     1       1.012   9.548  19.047  0.00  0.00    +0.000 A 
ATOM      4  C   UNL     1       0.146  10.298  18.215  0.00  0.00    +0.000 A 
ATOM      5  C   UNL     1      -0.998  10.946  18.702  0.00  0.00    +0.000 A 
ATOM      6  C   UNL     1      -1.360  10.744  20.033  0.00  0.00    +0.000 A 
ATOM      7  C   UNL     1      -0.548   9.974  20.868  0.00  0.00    +0.000 A 
ATOM      8  C   UNL     1       0.659   9.404  20.404  0.00  0.00    +0.000 A 
BRANCH   5   9
ATOM      9  C   UNL     1      -1.777  11.899  17.829  0.00  0.00    +0.000 C 
ATOM     10  F   UNL     1      -2.971  12.272  18.368  0.00  0.00    +0.000 F 
ATOM     11  F   UNL     1      -1.104  13.050  17.567  0.00  0.00    +0.000 F 
ATOM     12  F   UNL     1      -2.074  11.349  16.620  0.00  0.00    +0.000 F 
ENDBRANCH   5   9
BRANCH   8  13
ATOM     13  C   UNL     1       1.490   8.743  21.458  0.00  0.00    +0.000 C 
ATOM     14  O   UNL     1       1.705   9.265  22.536  0.00  0.00    +0.000 OA
BRANCH  13  15
ATOM     15  O   UNL     1       2.034   7.554  21.127  0.00  0.00    +0.000 OA
ATOM     16  H   UNL     1       2.206   7.428  20.176  0.00  0.00    +0.000 HD
ENDBRANCH  13  15
ENDBRANCH   8  13
ENDBRANCH   2   3
BRANCH   1  17
ATOM     17  N   UNL     1       3.110   7.121  17.961  0.00  0.00    +0.000 N 
ATOM     18  H   UNL     1       3.858   7.641  17.513  0.00  0.00    +0.000 HD
BRANCH  17  24
ATOM     19  C   UNL     1       4.108   5.028  17.112  0.00  0.00    +0.000 A 
ATOM     20  C   UNL     1       4.109   3.626  17.028  0.00  0.00    +0.000 A 
ATOM     21  C   UNL     1       3.160   2.874  17.713  0.00  0.00    +0.000 A 
ATOM     22  C   UNL     1       2.203   3.509  18.510  0.00  0.00    +0.000 A 
ATOM     23  C   UNL     1       2.199   4.918  18.581  0.00  0.00    +0.000 A 
ATOM     24  C   UNL     1       3.119   5.709  17.856  0.00  0.00    +0.000 A 
BRANCH  22  25
ATOM     25  C   UNL     1       1.192   2.687  19.277  0.00  0.00    +0.000 C 
ATOM     26  F   UNL     1       0.192   2.198  18.490  0.00  0.00    +0.000 F 
ATOM     27  F   UNL     1       1.749   1.604  19.883  0.00  0.00    +0.000 F 
ATOM     28  F   UNL     1       0.577   3.399  20.259  0.00  0.00    +0.000 F 
ENDBRANCH  22  25
BRANCH  19  30
ATOM     29  N   UNL     1       5.988   6.299  15.856  0.00  0.00    +0.000 NA
ATOM     30  C   UNL     1       5.151   5.722  16.420  0.00  0.00    +0.000 C 
ENDBRANCH  19  30
ENDBRANCH  17  24
ENDBRANCH   1  17
TORSDOF 8
ENDMDL
MODEL 7
REMARK VINA RESULT:      -8.0      4.764      8.242
REMARK  Name = 
REMARK  8 active torsions:
REMARK  status: ('A' for Active; 'I' for Inactive)
REMARK    1  A    between atoms: C_2  and  C_3
REMARK    2  A    between atoms: C_6  and  C_7
REMARK    3  A    between atoms: C_12  and  N_13
REMARK    4  A    between atoms: N_13  and  N_14
REMARK    5  A    between atoms: N_15  and  C_16
REMARK    6  A    between atoms: C_18  and  C_19
REMARK    7  A    between atoms: C_25  and  C_26
REMARK    8  A    between atoms: C_26  and  O_28
REMARK                            x       y       z     vdW  Elec       q    Type
REMARK                         _______ _______ _______ _____ _____    ______ ____
ROOT
ATOM      1  N   UNL     1       1.742   8.179  18.009  0.00  0.00    +0.000 NA
ATOM      2  N   UNL     1       1.837   9.332  18.487  0.00  0.00    +0.000 NA
ENDROOT
BRANCH   2   3
ATOM      3  C   UNL     1       0.542   9.918  18.611  0.00  0.00    +0.000 A 
ATOM      4  C   UNL     1      -0.406   9.727  17.575  0.00  0.00    +0.000 A 
ATOM      5  C   UNL     1      -1.685  10.300  17.605  0.00  0.00    +0.000 A 
ATOM      6  C   UNL     1      -2.079  10.985  18.753  0.00  0.00    +0.000 A 
ATOM      7  C   UNL     1      -1.182  11.154  19.809  0.00  0.00    +0.000 A 
ATOM      8  C   UNL     1       0.142  10.664  19.738  0.00  0.00    +0.000 A 
BRANCH   5   9
ATOM      9  C   UNL     1      -2.585  10.243  16.394  0.00  0.00    +0.000 C 
ATOM     10  F   UNL     1      -2.368   9.147  15.613  0.00  0.00    +0.000 F 
ATOM     11  F   UNL     1      -3.905  10.225  16.714  0.00  0.00    +0.000 F 
ATOM     12  F   UNL     1      -2.404  11.318  15.579  0.00  0.00    +0.000 F 
ENDBRANCH   5   9
BRANCH   8  13
ATOM     13  C   UNL     1       1.023  11.061  20.880  0.00  0.00    +0.000 C 
ATOM     14  O   UNL     1       1.499  12.177  20.973  0.00  0.00    +0.000 OA
BRANCH  13  15
ATOM     15  O   UNL     1       1.303  10.095  21.779  0.00  0.00    +0.000 OA
ATOM     16  H   UNL     1       2.127  10.226  22.283  0.00  0.00    +0.000 HD
ENDBRANCH  13  15
ENDBRANCH   8  13
ENDBRANCH   2   3
BRANCH   1  17
ATOM     17  N   UNL     1       2.900   7.521  18.207  0.00  0.00    +0.000 N 
ATOM     18  H   UNL     1       3.764   8.040  18.084  0.00  0.00    +0.000 HD
BRANCH  17  24
ATOM     19  C   UNL     1       3.912   5.483  17.250  0.00  0.00    +0.000 A 
ATOM     20  C   UNL     1       3.940   4.084  17.116  0.00  0.00    +0.000 A 
ATOM     21  C   UNL     1       3.032   3.288  17.807  0.00  0.00    +0.000 A 
ATOM     22  C   UNL     1       2.090   3.873  18.659  0.00  0.00    +0.000 A 
ATOM     23  C   UNL     1       2.060   5.278  18.780  0.00  0.00    +0.000 A 
ATOM     24  C   UNL     1       2.936   6.114  18.052  0.00  0.00    +0.000 A 
BRANCH  22  25
ATOM     25  C   UNL     1       1.126   3.002  19.431  0.00  0.00    +0.000 C 
ATOM     26  F   UNL     1       0.265   2.315  18.628  0.00  0.00    +0.000 F 
ATOM     27  F   UNL     1       1.757   2.064  20.187  0.00  0.00    +0.000 F 
ATOM     28  F   UNL     1       0.345   3.717  20.285  0.00  0.00    +0.000 F 
ENDBRANCH  22  25
BRANCH  19  30
ATOM     29  N   UNL     1       5.735   6.828  15.989  0.00  0.00    +0.000 NA
ATOM     30  C   UNL     1       4.914   6.224  16.546  0.00  0.00    +0.000 C 
ENDBRANCH  19  30
ENDBRANCH  17  24
ENDBRANCH   1  17
TORSDOF 8
ENDMDL
MODEL 8
REMARK VINA RESULT:      -8.0      1.715      7.413
REMARK  Name = 
REMARK  8 active torsions:
REMARK  status: ('A' for Active; 'I' for Inactive)
REMARK    1  A    between atoms: C_2  and  C_3
REMARK    2  A    between atoms: C_6  and  C_7
REMARK    3  A    between atoms: C_12  and  N_13
REMARK    4  A    between atoms: N_13  and  N_14
REMARK    5  A    between atoms: N_15  and  C_16
REMARK    6  A    between atoms: C_18  and  C_19
REMARK    7  A    between atoms: C_25  and  C_26
REMARK    8  A    between atoms: C_26  and  O_28
REMARK                            x       y       z     vdW  Elec       q    Type
REMARK                         _______ _______ _______ _____ _____    ______ ____
ROOT
ATOM      1  N   UNL     1       4.499   3.826  18.163  0.00  0.00    +0.000 NA
ATOM      2  N   UNL     1       3.250   3.762  18.150  0.00  0.00    +0.000 NA
ENDROOT
BRANCH   2   3
ATOM      3  C   UNL     1       2.697   4.825  18.925  0.00  0.00    +0.000 A 
ATOM      4  C   UNL     1       2.513   6.095  18.324  0.00  0.00    +0.000 A 
ATOM      5  C   UNL     1       2.012   7.199  19.028  0.00  0.00    +0.000 A 
ATOM      6  C   UNL     1       1.566   7.007  20.334  0.00  0.00    +0.000 A 
ATOM      7  C   UNL     1       1.694   5.756  20.940  0.00  0.00    +0.000 A 
ATOM      8  C   UNL     1       2.294   4.668  20.265  0.00  0.00    +0.000 A 
BRANCH   5   9
ATOM      9  C   UNL     1       2.025   8.577  18.412  0.00  0.00    +0.000 C 
ATOM     10  F   UNL     1       1.666   9.560  19.285  0.00  0.00    +0.000 F 
ATOM     11  F   UNL     1       3.243   8.930  17.924  0.00  0.00    +0.000 F 
ATOM     12  F   UNL     1       1.154   8.674  17.371  0.00  0.00    +0.000 F 
ENDBRANCH   5   9
BRANCH   8  13
ATOM     13  C   UNL     1       2.499   3.444  21.102  0.00  0.00    +0.000 C 
ATOM     14  O   UNL     1       1.864   3.242  22.121  0.00  0.00    +0.000 OA
BRANCH  13  15
ATOM     15  O   UNL     1       3.467   2.600  20.692  0.00  0.00    +0.000 OA
ATOM     16  H   UNL     1       3.509   2.456  19.729  0.00  0.00    +0.000 HD
ENDBRANCH  13  15
ENDBRANCH   8  13
ENDBRANCH   2   3
BRANCH   1  17
ATOM     17  N   UNL     1       4.993   3.048  17.182  0.00  0.00    +0.000 N 
ATOM     18  H   UNL     1       5.186   2.075  17.403  0.00  0.00    +0.000 HD
BRANCH  17  24
ATOM     19  C   UNL     1       6.806   4.495  16.337  0.00  0.00    +0.000 A 
ATOM     20  C   UNL     1       7.506   5.069  15.262  0.00  0.00    +0.000 A 
ATOM     21  C   UNL     1       7.152   4.775  13.948  0.00  0.00    +0.000 A 
ATOM     22  C   UNL     1       6.104   3.888  13.685  0.00  0.00    +0.000 A 
ATOM     23  C   UNL     1       5.398   3.324  14.769  0.00  0.00    +0.000 A 
ATOM     24  C   UNL     1       5.702   3.644  16.111  0.00  0.00    +0.000 A 
BRANCH  22  25
ATOM     25  C   UNL     1       5.743   3.547  12.257  0.00  0.00    +0.000 C 
ATOM     26  F   UNL     1       4.438   3.807  11.959  0.00  0.00    +0.000 F 
ATOM     27  F   UNL     1       6.476   4.247  11.350  0.00  0.00    +0.000 F 
ATOM     28  F   UNL     1       5.934   2.232  11.969  0.00  0.00    +0.000 F 
ENDBRANCH  22  25
BRANCH  19  30
ATOM     29  N   UNL     1       7.659   5.059  18.720  0.00  0.00    +0.000 NA
ATOM     30  C   UNL     1       7.268   4.808  17.655  0.00  0.00    +0.000 C 
ENDBRANCH  19  30
ENDBRANCH  17  24
ENDBRANCH   1  17
TORSDOF 8
ENDMDL
MODEL 9
REMARK VINA RESULT:      -8.0      4.794      8.289
REMARK  Name = 
REMARK  8 active torsions:
REMARK  status: ('A' for Active; 'I' for Inactive)
REMARK    1  A    between atoms: C_2  and  C_3
REMARK    2  A    between atoms: C_6  and  C_7
REMARK    3  A    between atoms: C_12  and  N_13
REMARK    4  A    between atoms: N_13  and  N_14
REMARK    5  A    between atoms: N_15  and  C_16
REMARK    6  A    between atoms: C_18  and  C_19
REMARK    7  A    between atoms: C_25  and  C_26
REMARK    8  A    between atoms: C_26  and  O_28
REMARK                            x       y       z     vdW  Elec       q    Type
REMARK                         _______ _______ _______ _____ _____    ______ ____
ROOT
ATOM      1  N   UNL     1       1.704   8.192  18.095  0.00  0.00    +0.000 NA
ATOM      2  N   UNL     1       1.813   9.367  18.512  0.00  0.00    +0.000 NA
ENDROOT
BRANCH   2   3
ATOM      3  C   UNL     1       0.522   9.958  18.652  0.00  0.00    +0.000 A 
ATOM      4  C   UNL     1      -0.440   9.767  17.630  0.00  0.00    +0.000 A 
ATOM      5  C   UNL     1      -1.717  10.345  17.676  0.00  0.00    +0.000 A 
ATOM      6  C   UNL     1      -2.093  11.034  18.828  0.00  0.00    +0.000 A 
ATOM      7  C   UNL     1      -1.180  11.202  19.871  0.00  0.00    +0.000 A 
ATOM      8  C   UNL     1       0.141  10.708  19.782  0.00  0.00    +0.000 A 
BRANCH   5   9
ATOM      9  C   UNL     1      -2.634  10.287  16.478  0.00  0.00    +0.000 C 
ATOM     10  F   UNL     1      -3.954  10.356  16.807  0.00  0.00    +0.000 F 
ATOM     11  F   UNL     1      -2.411  11.291  15.591  0.00  0.00    +0.000 F 
ATOM     12  F   UNL     1      -2.487   9.125  15.785  0.00  0.00    +0.000 F 
ENDBRANCH   5   9
BRANCH   8  13
ATOM     13  C   UNL     1       1.039  11.105  20.911  0.00  0.00    +0.000 C 
ATOM     14  O   UNL     1       1.517  12.221  20.997  0.00  0.00    +0.000 OA
BRANCH  13  15
ATOM     15  O   UNL     1       1.332  10.139  21.806  0.00  0.00    +0.000 OA
ATOM     16  H   UNL     1       2.024  10.370  22.452  0.00  0.00    +0.000 HD
ENDBRANCH  13  15
ENDBRANCH   8  13
ENDBRANCH   2   3
BRANCH   1  17
ATOM     17  N   UNL     1       2.870   7.545  18.284  0.00  0.00    +0.000 N 
ATOM     18  H   UNL     1       3.728   8.073  18.157  0.00  0.00    +0.000 HD
BRANCH  17  24
ATOM     19  C   UNL     1       3.882   5.520  17.298  0.00  0.00    +0.000 A 
ATOM     20  C   UNL     1       3.923   4.122  17.161  0.00  0.00    +0.000 A 
ATOM     21  C   UNL     1       3.043   3.314  17.873  0.00  0.00    +0.000 A 
ATOM     22  C   UNL     1       2.116   3.886  18.750  0.00  0.00    +0.000 A 
ATOM     23  C   UNL     1       2.072   5.291  18.874  0.00  0.00    +0.000 A 
ATOM     24  C   UNL     1       2.919   6.139  18.125  0.00  0.00    +0.000 A 
BRANCH  22  25
ATOM     25  C   UNL     1       1.182   3.003  19.545  0.00  0.00    +0.000 C 
ATOM     26  F   UNL     1       0.447   3.692  20.463  0.00  0.00    +0.000 F 
ATOM     27  F   UNL     1       0.281   2.353  18.760  0.00  0.00    +0.000 F 
ATOM     28  F   UNL     1       1.842   2.041  20.244  0.00  0.00    +0.000 F 
ENDBRANCH  22  25
BRANCH  19  30
ATOM     29  N   UNL     1       5.651   6.896  15.993  0.00  0.00    +0.000 NA
ATOM     30  C   UNL     1       4.857   6.274  16.570  0.00  0.00    +0.000 C 
ENDBRANCH  19  30
ENDBRANCH  17  24
ENDBRANCH   1  17
TORSDOF 8
ENDMDL
