MODEL 1
REMARK VINA RESULT:      -6.7      0.000      0.000
REMARK  Name = 
REMARK  10 active torsions:
REMARK  status: ('A' for Active; 'I' for Inactive)
REMARK    1  A    between atoms: N_3  and  C_4
REMARK    2  A    between atoms: C_4  and  C_5
REMARK    3  A    between atoms: C_4  and  C_7
REMARK    4  A    between atoms: N_9  and  C_10
REMARK    5  A    between atoms: C_10  and  C_11
REMARK    6  A    between atoms: C_11  and  C_12
REMARK    7  A    between atoms: C_12  and  C_13
REMARK    8  A    between atoms: C_12  and  C_15
REMARK    9  A    between atoms: C_13  and  O_14
REMARK   10  A    between atoms: C_15  and  O_16
REMARK                            x       y       z     vdW  Elec       q    Type
REMARK                         _______ _______ _______ _____ _____    ______ ____
ROOT
ATOM      1  C   UNL     1       5.511   5.079  16.205  0.00  0.00    +0.000 A 
ATOM      2  C   UNL     1       5.391   4.148  17.163  0.00  0.00    +0.000 A 
ATOM      3  N   UNL     1       4.716   4.365  18.343  0.00  0.00    +0.000 N 
ATOM      4  C   UNL     1       4.116   5.582  18.633  0.00  0.00    +0.000 A 
ATOM      5  O   UNL     1       3.438   5.788  19.636  0.00  0.00    +0.000 OA
ATOM      6  N   UNL     1       4.310   6.564  17.700  0.00  0.00    +0.000 N 
ATOM      7  C   UNL     1       4.911   6.408  16.483  0.00  0.00    +0.000 A 
ATOM      8  O   UNL     1       4.946   7.317  15.661  0.00  0.00    +0.000 OA
ATOM      9  H   UNL     1       3.859   7.447  17.882  0.00  0.00    +0.000 HD
ENDROOT
BRANCH   1  10
ATOM     10  C   UNL     1       6.194   4.860  14.869  0.00  0.00    +0.000 C 
BRANCH  10  13
ATOM     11  N   UNL     1       8.740   5.953  13.014  0.00  0.00    +0.000 NA
ATOM     12  N   UNL     1       8.204   5.599  13.955  0.00  0.00    +0.000 NA
ATOM     13  N   UNL     1       7.629   5.217  14.986  0.00  0.00    +0.000 NA
ENDBRANCH  10  13
BRANCH  10  14
ATOM     14  C   UNL     1       6.093   3.425  14.301  0.00  0.00    +0.000 C 
ATOM     15  I   UNL     1       5.673   3.362  12.183  0.00  0.00    +0.000 I 
ENDBRANCH  10  14
ENDBRANCH   1  10
BRANCH   3  16
ATOM     16  C   UNL     1       4.475   3.233  19.238  0.00  0.00    +0.000 C 
BRANCH  16  17
ATOM     17  C   UNL     1       3.496   2.239  18.599  0.00  0.00    +0.000 C 
BRANCH  17  18
ATOM     18  C   UNL     1       2.117   2.192  19.284  0.00  0.00    +0.000 C 
BRANCH  18  19
ATOM     19  C   UNL     1       2.165   2.611  20.761  0.00  0.00    +0.000 C 
BRANCH  19  20
ATOM     20  O   UNL     1       0.868   2.923  21.255  0.00  0.00    +0.000 OA
ATOM     21  H   UNL     1       0.489   3.624  20.688  0.00  0.00    +0.000 HD
ENDBRANCH  19  20
ENDBRANCH  18  19
BRANCH  18  22
ATOM     22  C   UNL     1       1.119   3.076  18.511  0.00  0.00    +0.000 C 
BRANCH  22  23
ATOM     23  O   UNL     1       1.635   3.494  17.255  0.00  0.00    +0.000 OA
ATOM     24  H   UNL     1       0.983   4.123  16.878  0.00  0.00    +0.000 HD
ENDBRANCH  22  23
ENDBRANCH  18  22
ENDBRANCH  17  18
ENDBRANCH  16  17
ENDBRANCH   3  16
TORSDOF 10
ENDMDL
MODEL 2
REMARK VINA RESULT:      -6.7      2.054      2.934
REMARK  Name = 
REMARK  10 active torsions:
REMARK  status: ('A' for Active; 'I' for Inactive)
REMARK    1  A    between atoms: N_3  and  C_4
REMARK    2  A    between atoms: C_4  and  C_5
REMARK    3  A    between atoms: C_4  and  C_7
REMARK    4  A    between atoms: N_9  and  C_10
REMARK    5  A    between atoms: C_10  and  C_11
REMARK    6  A    between atoms: C_11  and  C_12
REMARK    7  A    between atoms: C_12  and  C_13
REMARK    8  A    between atoms: C_12  and  C_15
REMARK    9  A    between atoms: C_13  and  O_14
REMARK   10  A    between atoms: C_15  and  O_16
REMARK                            x       y       z     vdW  Elec       q    Type
REMARK                         _______ _______ _______ _____ _____    ______ ____
ROOT
ATOM      1  C   UNL     1       5.034   4.372  16.742  0.00  0.00    +0.000 A 
ATOM      2  C   UNL     1       3.915   3.696  17.041  0.00  0.00    +0.000 A 
ATOM      3  N   UNL     1       3.725   3.049  18.242  0.00  0.00    +0.000 N 
ATOM      4  C   UNL     1       4.696   3.039  19.233  0.00  0.00    +0.000 A 
ATOM      5  O   UNL     1       4.534   2.543  20.344  0.00  0.00    +0.000 OA
ATOM      6  N   UNL     1       5.874   3.652  18.900  0.00  0.00    +0.000 N 
ATOM      7  C   UNL     1       6.113   4.366  17.760  0.00  0.00    +0.000 A 
ATOM      8  O   UNL     1       7.164   4.974  17.591  0.00  0.00    +0.000 OA
ATOM      9  H   UNL     1       6.581   3.677  19.618  0.00  0.00    +0.000 HD
ENDROOT
BRANCH   1  10
ATOM     10  C   UNL     1       5.257   5.147  15.458  0.00  0.00    +0.000 C 
BRANCH  10  13
ATOM     11  N   UNL     1       3.837   7.467  17.387  0.00  0.00    +0.000 NA
ATOM     12  N   UNL     1       4.557   7.045  16.610  0.00  0.00    +0.000 NA
ATOM     13  N   UNL     1       5.347   6.595  15.766  0.00  0.00    +0.000 NA
ENDBRANCH  10  13
BRANCH  10  14
ATOM     14  C   UNL     1       6.511   4.741  14.648  0.00  0.00    +0.000 C 
ATOM     15  I   UNL     1       6.053   3.718  12.802  0.00  0.00    +0.000 I 
ENDBRANCH  10  14
ENDBRANCH   1  10
BRANCH   3  16
ATOM     16  C   UNL     1       2.403   2.504  18.550  0.00  0.00    +0.000 C 
BRANCH  16  17
ATOM     17  C   UNL     1       1.380   3.635  18.722  0.00  0.00    +0.000 C 
BRANCH  17  18
ATOM     18  C   UNL     1       1.070   3.979  20.192  0.00  0.00    +0.000 C 
BRANCH  18  19
ATOM     19  C   UNL     1       1.279   2.791  21.143  0.00  0.00    +0.000 C 
BRANCH  19  20
ATOM     20  O   UNL     1       2.258   3.085  22.133  0.00  0.00    +0.000 OA
ATOM     21  H   UNL     1       2.932   3.667  21.729  0.00  0.00    +0.000 HD
ENDBRANCH  19  20
ENDBRANCH  18  19
BRANCH  18  22
ATOM     22  C   UNL     1       1.927   5.178  20.640  0.00  0.00    +0.000 C 
BRANCH  22  23
ATOM     23  O   UNL     1       2.413   5.932  19.538  0.00  0.00    +0.000 OA
ATOM     24  H   UNL     1       3.218   6.398  19.849  0.00  0.00    +0.000 HD
ENDBRANCH  22  23
ENDBRANCH  18  22
ENDBRANCH  17  18
ENDBRANCH  16  17
ENDBRANCH   3  16
TORSDOF 10
ENDMDL
MODEL 3
REMARK VINA RESULT:      -6.6      1.622      2.210
REMARK  Name = 
REMARK  10 active torsions:
REMARK  status: ('A' for Active; 'I' for Inactive)
REMARK    1  A    between atoms: N_3  and  C_4
REMARK    2  A    between atoms: C_4  and  C_5
REMARK    3  A    between atoms: C_4  and  C_7
REMARK    4  A    between atoms: N_9  and  C_10
REMARK    5  A    between atoms: C_10  and  C_11
REMARK    6  A    between atoms: C_11  and  C_12
REMARK    7  A    between atoms: C_12  and  C_13
REMARK    8  A    between atoms: C_12  and  C_15
REMARK    9  A    between atoms: C_13  and  O_14
REMARK   10  A    between atoms: C_15  and  O_16
REMARK                            x       y       z     vdW  Elec       q    Type
REMARK                         _______ _______ _______ _____ _____    ______ ____
ROOT
ATOM      1  C   UNL     1       5.867   4.863  16.139  0.00  0.00    +0.000 A 
ATOM      2  C   UNL     1       4.635   5.182  16.564  0.00  0.00    +0.000 A 
ATOM      3  N   UNL     1       4.274   5.184  17.893  0.00  0.00    +0.000 N 
ATOM      4  C   UNL     1       5.168   4.840  18.898  0.00  0.00    +0.000 A 
ATOM      5  O   UNL     1       4.910   4.907  20.096  0.00  0.00    +0.000 OA
ATOM      6  N   UNL     1       6.400   4.428  18.465  0.00  0.00    +0.000 N 
ATOM      7  C   UNL     1       6.849   4.459  17.175  0.00  0.00    +0.000 A 
ATOM      8  O   UNL     1       8.007   4.172  16.890  0.00  0.00    +0.000 OA
ATOM      9  H   UNL     1       7.070   4.199  19.182  0.00  0.00    +0.000 HD
ENDROOT
BRANCH   1  10
ATOM     10  C   UNL     1       6.318   4.906  14.693  0.00  0.00    +0.000 C 
BRANCH  10  13
ATOM     11  N   UNL     1       8.534   5.999  12.453  0.00  0.00    +0.000 NA
ATOM     12  N   UNL     1       8.117   5.761  13.487  0.00  0.00    +0.000 NA
ATOM     13  N   UNL     1       7.671   5.510  14.617  0.00  0.00    +0.000 NA
ENDBRANCH  10  13
BRANCH  10  14
ATOM     14  C   UNL     1       6.352   3.540  13.968  0.00  0.00    +0.000 C 
ATOM     15  I   UNL     1       5.199   3.502  12.141  0.00  0.00    +0.000 I 
ENDBRANCH  10  14
ENDBRANCH   1  10
BRANCH   3  16
ATOM     16  C   UNL     1       2.971   5.729  18.272  0.00  0.00    +0.000 C 
BRANCH  16  17
ATOM     17  C   UNL     1       1.839   4.874  17.689  0.00  0.00    +0.000 C 
BRANCH  17  18
ATOM     18  C   UNL     1       1.422   3.693  18.587  0.00  0.00    +0.000 C 
BRANCH  18  19
ATOM     19  C   UNL     1       2.263   2.430  18.346  0.00  0.00    +0.000 C 
BRANCH  19  20
ATOM     20  O   UNL     1       1.635   1.277  18.891  0.00  0.00    +0.000 OA
ATOM     21  H   UNL     1       0.798   1.129  18.407  0.00  0.00    +0.000 HD
ENDBRANCH  19  20
ENDBRANCH  18  19
BRANCH  18  22
ATOM     22  C   UNL     1       1.499   4.110  20.068  0.00  0.00    +0.000 C 
BRANCH  22  23
ATOM     23  O   UNL     1       2.457   3.350  20.790  0.00  0.00    +0.000 OA
ATOM     24  H   UNL     1       3.279   3.885  20.817  0.00  0.00    +0.000 HD
ENDBRANCH  22  23
ENDBRANCH  18  22
ENDBRANCH  17  18
ENDBRANCH  16  17
ENDBRANCH   3  16
TORSDOF 10
ENDMDL
MODEL 4
REMARK VINA RESULT:      -6.5      1.515      2.160
REMARK  Name = 
REMARK  10 active torsions:
REMARK  status: ('A' for Active; 'I' for Inactive)
REMARK    1  A    between atoms: N_3  and  C_4
REMARK    2  A    between atoms: C_4  and  C_5
REMARK    3  A    between atoms: C_4  and  C_7
REMARK    4  A    between atoms: N_9  and  C_10
REMARK    5  A    between atoms: C_10  and  C_11
REMARK    6  A    between atoms: C_11  and  C_12
REMARK    7  A    between atoms: C_12  and  C_13
REMARK    8  A    between atoms: C_12  and  C_15
REMARK    9  A    between atoms: C_13  and  O_14
REMARK   10  A    between atoms: C_15  and  O_16
REMARK                            x       y       z     vdW  Elec       q    Type
REMARK                         _______ _______ _______ _____ _____    ______ ____
ROOT
ATOM      1  C   UNL     1       5.174   5.305  16.172  0.00  0.00    +0.000 A 
ATOM      2  C   UNL     1       4.220   4.430  16.520  0.00  0.00    +0.000 A 
ATOM      3  N   UNL     1       3.240   4.712  17.447  0.00  0.00    +0.000 N 
ATOM      4  C   UNL     1       3.181   5.934  18.103  0.00  0.00    +0.000 A 
ATOM      5  O   UNL     1       2.280   6.253  18.874  0.00  0.00    +0.000 OA
ATOM      6  N   UNL     1       4.203   6.798  17.818  0.00  0.00    +0.000 N 
ATOM      7  C   UNL     1       5.169   6.615  16.869  0.00  0.00    +0.000 A 
ATOM      8  O   UNL     1       5.985   7.490  16.604  0.00  0.00    +0.000 OA
ATOM      9  H   UNL     1       4.162   7.700  18.266  0.00  0.00    +0.000 HD
ENDROOT
BRANCH   1  10
ATOM     10  C   UNL     1       6.231   5.053  15.115  0.00  0.00    +0.000 C 
BRANCH  10  13
ATOM     11  N   UNL     1       8.156   4.145  17.681  0.00  0.00    +0.000 NA
ATOM     12  N   UNL     1       7.872   4.703  16.728  0.00  0.00    +0.000 NA
ATOM     13  N   UNL     1       7.573   5.312  15.689  0.00  0.00    +0.000 NA
ENDBRANCH  10  13
BRANCH  10  14
ATOM     14  C   UNL     1       6.229   3.633  14.500  0.00  0.00    +0.000 C 
ATOM     15  I   UNL     1       6.109   3.626  12.343  0.00  0.00    +0.000 I 
ENDBRANCH  10  14
ENDBRANCH   1  10
BRANCH   3  16
ATOM     16  C   UNL     1       2.135   3.770  17.618  0.00  0.00    +0.000 C 
BRANCH  16  17
ATOM     17  C   UNL     1       2.661   2.393  18.046  0.00  0.00    +0.000 C 
BRANCH  17  18
ATOM     18  C   UNL     1       2.588   2.141  19.564  0.00  0.00    +0.000 C 
BRANCH  18  19
ATOM     19  C   UNL     1       3.846   2.607  20.312  0.00  0.00    +0.000 C 
BRANCH  19  20
ATOM     20  O   UNL     1       5.024   2.050  19.741  0.00  0.00    +0.000 OA
ATOM     21  H   UNL     1       5.666   2.775  19.603  0.00  0.00    +0.000 HD
ENDBRANCH  19  20
ENDBRANCH  18  19
BRANCH  18  22
ATOM     22  C   UNL     1       1.337   2.827  20.148  0.00  0.00    +0.000 C 
BRANCH  22  23
ATOM     23  O   UNL     1       1.642   3.616  21.289  0.00  0.00    +0.000 OA
ATOM     24  H   UNL     1       2.470   3.253  21.671  0.00  0.00    +0.000 HD
ENDBRANCH  22  23
ENDBRANCH  18  22
ENDBRANCH  17  18
ENDBRANCH  16  17
ENDBRANCH   3  16
TORSDOF 10
ENDMDL
MODEL 5
REMARK VINA RESULT:      -6.5      1.713      2.142
REMARK  Name = 
REMARK  10 active torsions:
REMARK  status: ('A' for Active; 'I' for Inactive)
REMARK    1  A    between atoms: N_3  and  C_4
REMARK    2  A    between atoms: C_4  and  C_5
REMARK    3  A    between atoms: C_4  and  C_7
REMARK    4  A    between atoms: N_9  and  C_10
REMARK    5  A    between atoms: C_10  and  C_11
REMARK    6  A    between atoms: C_11  and  C_12
REMARK    7  A    between atoms: C_12  and  C_13
REMARK    8  A    between atoms: C_12  and  C_15
REMARK    9  A    between atoms: C_13  and  O_14
REMARK   10  A    between atoms: C_15  and  O_16
REMARK                            x       y       z     vdW  Elec       q    Type
REMARK                         _______ _______ _______ _____ _____    ______ ____
ROOT
ATOM      1  C   UNL     1       5.436   5.145  16.409  0.00  0.00    +0.000 A 
ATOM      2  C   UNL     1       4.516   4.190  16.608  0.00  0.00    +0.000 A 
ATOM      3  N   UNL     1       3.378   4.385  17.359  0.00  0.00    +0.000 N 
ATOM      4  C   UNL     1       3.107   5.595  17.981  0.00  0.00    +0.000 A 
ATOM      5  O   UNL     1       2.069   5.834  18.591  0.00  0.00    +0.000 OA
ATOM      6  N   UNL     1       4.084   6.546  17.856  0.00  0.00    +0.000 N 
ATOM      7  C   UNL     1       5.204   6.448  17.079  0.00  0.00    +0.000 A 
ATOM      8  O   UNL     1       5.975   7.392  16.940  0.00  0.00    +0.000 OA
ATOM      9  H   UNL     1       3.893   7.440  18.279  0.00  0.00    +0.000 HD
ENDROOT
BRANCH   1  10
ATOM     10  C   UNL     1       6.669   4.988  15.541  0.00  0.00    +0.000 C 
BRANCH  10  13
ATOM     11  N   UNL     1       8.004   4.762  18.588  0.00  0.00    +0.000 NA
ATOM     12  N   UNL     1       7.857   4.512  17.486  0.00  0.00    +0.000 NA
ATOM     13  N   UNL     1       7.702   4.230  16.287  0.00  0.00    +0.000 NA
ENDBRANCH  10  13
BRANCH  10  14
ATOM     14  C   UNL     1       6.437   4.287  14.181  0.00  0.00    +0.000 C 
ATOM     15  I   UNL     1       7.652   5.082  12.582  0.00  0.00    +0.000 I 
ENDBRANCH  10  14
ENDBRANCH   1  10
BRANCH   3  16
ATOM     16  C   UNL     1       2.345   3.350  17.359  0.00  0.00    +0.000 C 
BRANCH  16  17
ATOM     17  C   UNL     1       2.760   2.172  18.250  0.00  0.00    +0.000 C 
BRANCH  17  18
ATOM     18  C   UNL     1       2.135   2.203  19.658  0.00  0.00    +0.000 C 
BRANCH  18  19
ATOM     19  C   UNL     1       2.990   2.969  20.679  0.00  0.00    +0.000 C 
BRANCH  19  20
ATOM     20  O   UNL     1       2.694   2.566  22.010  0.00  0.00    +0.000 OA
ATOM     21  H   UNL     1       3.050   1.665  22.141  0.00  0.00    +0.000 HD
ENDBRANCH  19  20
ENDBRANCH  18  19
BRANCH  18  22
ATOM     22  C   UNL     1       0.720   2.807  19.588  0.00  0.00    +0.000 C 
BRANCH  22  23
ATOM     23  O   UNL     1       0.564   3.911  20.469  0.00  0.00    +0.000 OA
ATOM     24  H   UNL     1       1.451   4.322  20.566  0.00  0.00    +0.000 HD
ENDBRANCH  22  23
ENDBRANCH  18  22
ENDBRANCH  17  18
ENDBRANCH  16  17
ENDBRANCH   3  16
TORSDOF 10
ENDMDL
MODEL 6
REMARK VINA RESULT:      -6.4      2.620      3.548
REMARK  Name = 
REMARK  10 active torsions:
REMARK  status: ('A' for Active; 'I' for Inactive)
REMARK    1  A    between atoms: N_3  and  C_4
REMARK    2  A    between atoms: C_4  and  C_5
REMARK    3  A    between atoms: C_4  and  C_7
REMARK    4  A    between atoms: N_9  and  C_10
REMARK    5  A    between atoms: C_10  and  C_11
REMARK    6  A    between atoms: C_11  and  C_12
REMARK    7  A    between atoms: C_12  and  C_13
REMARK    8  A    between atoms: C_12  and  C_15
REMARK    9  A    between atoms: C_13  and  O_14
REMARK   10  A    between atoms: C_15  and  O_16
REMARK                            x       y       z     vdW  Elec       q    Type
REMARK                         _______ _______ _______ _____ _____    ______ ____
ROOT
ATOM      1  C   UNL     1       4.588   4.763  17.493  0.00  0.00    +0.000 A 
ATOM      2  C   UNL     1       3.614   3.850  17.625  0.00  0.00    +0.000 A 
ATOM      3  N   UNL     1       3.644   2.850  18.572  0.00  0.00    +0.000 N 
ATOM      4  C   UNL     1       4.702   2.708  19.458  0.00  0.00    +0.000 A 
ATOM      5  O   UNL     1       4.728   1.883  20.366  0.00  0.00    +0.000 OA
ATOM      6  N   UNL     1       5.740   3.582  19.271  0.00  0.00    +0.000 N 
ATOM      7  C   UNL     1       5.755   4.634  18.399  0.00  0.00    +0.000 A 
ATOM      8  O   UNL     1       6.685   5.433  18.372  0.00  0.00    +0.000 OA
ATOM      9  H   UNL     1       6.505   3.511  19.922  0.00  0.00    +0.000 HD
ENDROOT
BRANCH   1  10
ATOM     10  C   UNL     1       4.563   5.912  16.504  0.00  0.00    +0.000 C 
BRANCH  10  13
ATOM     11  N   UNL     1       2.380   7.533  18.434  0.00  0.00    +0.000 NA
ATOM     12  N   UNL     1       3.350   7.365  17.859  0.00  0.00    +0.000 NA
ATOM     13  N   UNL     1       4.411   7.191  17.240  0.00  0.00    +0.000 NA
ENDBRANCH  10  13
BRANCH  10  14
ATOM     14  C   UNL     1       5.803   6.023  15.586  0.00  0.00    +0.000 C 
ATOM     15  I   UNL     1       6.159   4.254  14.397  0.00  0.00    +0.000 I 
ENDBRANCH  10  14
ENDBRANCH   1  10
BRANCH   3  16
ATOM     16  C   UNL     1       2.453   2.024  18.765  0.00  0.00    +0.000 C 
BRANCH  16  17
ATOM     17  C   UNL     1       1.196   2.900  18.849  0.00  0.00    +0.000 C 
BRANCH  17  18
ATOM     18  C   UNL     1       0.809   3.301  20.286  0.00  0.00    +0.000 C 
BRANCH  18  19
ATOM     19  C   UNL     1       1.581   2.516  21.357  0.00  0.00    +0.000 C 
BRANCH  19  20
ATOM     20  O   UNL     1       2.212   3.389  22.286  0.00  0.00    +0.000 OA
ATOM     21  H   UNL     1       1.615   3.500  23.052  0.00  0.00    +0.000 HD
ENDBRANCH  19  20
ENDBRANCH  18  19
BRANCH  18  22
ATOM     22  C   UNL     1       1.017   4.815  20.480  0.00  0.00    +0.000 C 
BRANCH  22  23
ATOM     23  O   UNL     1       2.370   5.199  20.280  0.00  0.00    +0.000 OA
ATOM     24  H   UNL     1       2.721   4.633  19.559  0.00  0.00    +0.000 HD
ENDBRANCH  22  23
ENDBRANCH  18  22
ENDBRANCH  17  18
ENDBRANCH  16  17
ENDBRANCH   3  16
TORSDOF 10
ENDMDL
MODEL 7
REMARK VINA RESULT:      -6.4      1.615      2.008
REMARK  Name = 
REMARK  10 active torsions:
REMARK  status: ('A' for Active; 'I' for Inactive)
REMARK    1  A    between atoms: N_3  and  C_4
REMARK    2  A    between atoms: C_4  and  C_5
REMARK    3  A    between atoms: C_4  and  C_7
REMARK    4  A    between atoms: N_9  and  C_10
REMARK    5  A    between atoms: C_10  and  C_11
REMARK    6  A    between atoms: C_11  and  C_12
REMARK    7  A    between atoms: C_12  and  C_13
REMARK    8  A    between atoms: C_12  and  C_15
REMARK    9  A    between atoms: C_13  and  O_14
REMARK   10  A    between atoms: C_15  and  O_16
REMARK                            x       y       z     vdW  Elec       q    Type
REMARK                         _______ _______ _______ _____ _____    ______ ____
ROOT
ATOM      1  C   UNL     1       5.948   4.907  16.070  0.00  0.00    +0.000 A 
ATOM      2  C   UNL     1       4.732   5.279  16.497  0.00  0.00    +0.000 A 
ATOM      3  N   UNL     1       4.386   5.331  17.829  0.00  0.00    +0.000 N 
ATOM      4  C   UNL     1       5.278   4.984  18.834  0.00  0.00    +0.000 A 
ATOM      5  O   UNL     1       5.034   5.093  20.032  0.00  0.00    +0.000 OA
ATOM      6  N   UNL     1       6.490   4.518  18.402  0.00  0.00    +0.000 N 
ATOM      7  C   UNL     1       6.927   4.498  17.107  0.00  0.00    +0.000 A 
ATOM      8  O   UNL     1       8.071   4.165  16.820  0.00  0.00    +0.000 OA
ATOM      9  H   UNL     1       7.160   4.287  19.118  0.00  0.00    +0.000 HD
ENDROOT
BRANCH   1  10
ATOM     10  C   UNL     1       6.386   4.895  14.618  0.00  0.00    +0.000 C 
BRANCH  10  13
ATOM     11  N   UNL     1       8.522   6.094  12.356  0.00  0.00    +0.000 NA
ATOM     12  N   UNL     1       8.154   5.778  13.388  0.00  0.00    +0.000 NA
ATOM     13  N   UNL     1       7.762   5.439  14.515  0.00  0.00    +0.000 NA
ENDBRANCH  10  13
BRANCH  10  14
ATOM     14  C   UNL     1       6.355   3.510  13.928  0.00  0.00    +0.000 C 
ATOM     15  I   UNL     1       5.203   3.481  12.102  0.00  0.00    +0.000 I 
ENDBRANCH  10  14
ENDBRANCH   1  10
BRANCH   3  16
ATOM     16  C   UNL     1       3.106   5.930  18.204  0.00  0.00    +0.000 C 
BRANCH  16  17
ATOM     17  C   UNL     1       1.959   4.933  17.990  0.00  0.00    +0.000 C 
BRANCH  17  18
ATOM     18  C   UNL     1       2.067   3.662  18.855  0.00  0.00    +0.000 C 
BRANCH  18  19
ATOM     19  C   UNL     1       0.920   3.524  19.867  0.00  0.00    +0.000 C 
BRANCH  19  20
ATOM     20  O   UNL     1       1.217   2.550  20.859  0.00  0.00    +0.000 OA
ATOM     21  H   UNL     1       0.405   2.389  21.379  0.00  0.00    +0.000 HD
ENDBRANCH  19  20
ENDBRANCH  18  19
BRANCH  18  22
ATOM     22  C   UNL     1       2.131   2.417  17.949  0.00  0.00    +0.000 C 
BRANCH  22  23
ATOM     23  O   UNL     1       2.714   1.303  18.610  0.00  0.00    +0.000 OA
ATOM     24  H   UNL     1       2.041   0.964  19.239  0.00  0.00    +0.000 HD
ENDBRANCH  22  23
ENDBRANCH  18  22
ENDBRANCH  17  18
ENDBRANCH  16  17
ENDBRANCH   3  16
TORSDOF 10
ENDMDL
MODEL 8
REMARK VINA RESULT:      -6.3      2.519      3.062
REMARK  Name = 
REMARK  10 active torsions:
REMARK  status: ('A' for Active; 'I' for Inactive)
REMARK    1  A    between atoms: N_3  and  C_4
REMARK    2  A    between atoms: C_4  and  C_5
REMARK    3  A    between atoms: C_4  and  C_7
REMARK    4  A    between atoms: N_9  and  C_10
REMARK    5  A    between atoms: C_10  and  C_11
REMARK    6  A    between atoms: C_11  and  C_12
REMARK    7  A    between atoms: C_12  and  C_13
REMARK    8  A    between atoms: C_12  and  C_15
REMARK    9  A    between atoms: C_13  and  O_14
REMARK   10  A    between atoms: C_15  and  O_16
REMARK                            x       y       z     vdW  Elec       q    Type
REMARK                         _______ _______ _______ _____ _____    ______ ____
ROOT
ATOM      1  C   UNL     1       5.382   4.590  17.335  0.00  0.00    +0.000 A 
ATOM      2  C   UNL     1       4.206   3.946  17.309  0.00  0.00    +0.000 A 
ATOM      3  N   UNL     1       3.784   3.107  18.316  0.00  0.00    +0.000 N 
ATOM      4  C   UNL     1       4.563   2.856  19.437  0.00  0.00    +0.000 A 
ATOM      5  O   UNL     1       4.190   2.180  20.392  0.00  0.00    +0.000 OA
ATOM      6  N   UNL     1       5.802   3.440  19.429  0.00  0.00    +0.000 N 
ATOM      7  C   UNL     1       6.263   4.330  18.500  0.00  0.00    +0.000 A 
ATOM      8  O   UNL     1       7.347   4.889  18.628  0.00  0.00    +0.000 OA
ATOM      9  H   UNL     1       6.370   3.290  20.247  0.00  0.00    +0.000 HD
ENDROOT
BRANCH   1  10
ATOM     10  C   UNL     1       5.855   5.566  16.276  0.00  0.00    +0.000 C 
BRANCH  10  13
ATOM     11  N   UNL     1       8.149   5.581  13.857  0.00  0.00    +0.000 NA
ATOM     12  N   UNL     1       7.234   5.221  14.432  0.00  0.00    +0.000 NA
ATOM     13  N   UNL     1       6.238   4.819  15.054  0.00  0.00    +0.000 NA
ENDBRANCH  10  13
BRANCH  10  14
ATOM     14  C   UNL     1       4.834   6.659  15.879  0.00  0.00    +0.000 C 
ATOM     15  I   UNL     1       3.702   7.431  17.549  0.00  0.00    +0.000 I 
ENDBRANCH  10  14
ENDBRANCH   1  10
BRANCH   3  16
ATOM     16  C   UNL     1       2.412   2.604  18.290  0.00  0.00    +0.000 C 
BRANCH  16  17
ATOM     17  C   UNL     1       1.411   3.760  18.419  0.00  0.00    +0.000 C 
BRANCH  17  18
ATOM     18  C   UNL     1       1.144   4.197  19.873  0.00  0.00    +0.000 C 
BRANCH  18  19
ATOM     19  C   UNL     1       1.132   3.020  20.860  0.00  0.00    +0.000 C 
BRANCH  19  20
ATOM     20  O   UNL     1       1.962   3.278  21.985  0.00  0.00    +0.000 OA
ATOM     21  H   UNL     1       2.523   4.051  21.778  0.00  0.00    +0.000 HD
ENDBRANCH  19  20
ENDBRANCH  18  19
BRANCH  18  22
ATOM     22  C   UNL     1       2.190   5.243  20.304  0.00  0.00    +0.000 C 
BRANCH  22  23
ATOM     23  O   UNL     1       1.633   6.241  21.148  0.00  0.00    +0.000 OA
ATOM     24  H   UNL     1       0.943   5.800  21.689  0.00  0.00    +0.000 HD
ENDBRANCH  22  23
ENDBRANCH  18  22
ENDBRANCH  17  18
ENDBRANCH  16  17
ENDBRANCH   3  16
TORSDOF 10
ENDMDL
MODEL 9
REMARK VINA RESULT:      -6.3      1.086      1.446
REMARK  Name = 
REMARK  10 active torsions:
REMARK  status: ('A' for Active; 'I' for Inactive)
REMARK    1  A    between atoms: N_3  and  C_4
REMARK    2  A    between atoms: C_4  and  C_5
REMARK    3  A    between atoms: C_4  and  C_7
REMARK    4  A    between atoms: N_9  and  C_10
REMARK    5  A    between atoms: C_10  and  C_11
REMARK    6  A    between atoms: C_11  and  C_12
REMARK    7  A    between atoms: C_12  and  C_13
REMARK    8  A    between atoms: C_12  and  C_15
REMARK    9  A    between atoms: C_13  and  O_14
REMARK   10  A    between atoms: C_15  and  O_16
REMARK                            x       y       z     vdW  Elec       q    Type
REMARK                         _______ _______ _______ _____ _____    ______ ____
ROOT
ATOM      1  C   UNL     1       5.150   5.103  16.828  0.00  0.00    +0.000 A 
ATOM      2  C   UNL     1       5.011   4.122  17.732  0.00  0.00    +0.000 A 
ATOM      3  N   UNL     1       4.252   4.254  18.874  0.00  0.00    +0.000 N 
ATOM      4  C   UNL     1       3.581   5.430  19.179  0.00  0.00    +0.000 A 
ATOM      5  O   UNL     1       2.832   5.559  20.143  0.00  0.00    +0.000 OA
ATOM      6  N   UNL     1       3.790   6.463  18.306  0.00  0.00    +0.000 N 
ATOM      7  C   UNL     1       4.474   6.390  17.125  0.00  0.00    +0.000 A 
ATOM      8  O   UNL     1       4.521   7.338  16.349  0.00  0.00    +0.000 OA
ATOM      9  H   UNL     1       3.290   7.316  18.497  0.00  0.00    +0.000 HD
ENDROOT
BRANCH   1  10
ATOM     10  C   UNL     1       5.926   4.976  15.531  0.00  0.00    +0.000 C 
BRANCH  10  13
ATOM     11  N   UNL     1       8.386   4.190  17.640  0.00  0.00    +0.000 NA
ATOM     12  N   UNL     1       7.889   4.706  16.754  0.00  0.00    +0.000 NA
ATOM     13  N   UNL     1       7.357   5.269  15.785  0.00  0.00    +0.000 NA
ENDBRANCH  10  13
BRANCH  10  14
ATOM     14  C   UNL     1       5.826   3.600  14.831  0.00  0.00    +0.000 C 
ATOM     15  I   UNL     1       6.223   3.681  12.709  0.00  0.00    +0.000 I 
ENDBRANCH  10  14
ENDBRANCH   1  10
BRANCH   3  16
ATOM     16  C   UNL     1       4.005   3.072  19.699  0.00  0.00    +0.000 C 
BRANCH  16  17
ATOM     17  C   UNL     1       3.153   2.049  18.936  0.00  0.00    +0.000 C 
BRANCH  17  18
ATOM     18  C   UNL     1       1.734   1.866  19.510  0.00  0.00    +0.000 C 
BRANCH  18  19
ATOM     19  C   UNL     1       1.547   2.541  20.876  0.00  0.00    +0.000 C 
BRANCH  19  20
ATOM     20  O   UNL     1       0.669   3.657  20.788  0.00  0.00    +0.000 OA
ATOM     21  H   UNL     1      -0.245   3.334  20.918  0.00  0.00    +0.000 HD
ENDBRANCH  19  20
ENDBRANCH  18  19
BRANCH  18  22
ATOM     22  C   UNL     1       0.693   2.396  18.506  0.00  0.00    +0.000 C 
BRANCH  22  23
ATOM     23  O   UNL     1       1.114   3.600  17.881  0.00  0.00    +0.000 OA
ATOM     24  H   UNL     1       0.954   4.323  18.526  0.00  0.00    +0.000 HD
ENDBRANCH  22  23
ENDBRANCH  18  22
ENDBRANCH  17  18
ENDBRANCH  16  17
ENDBRANCH   3  16
TORSDOF 10
ENDMDL
