MODEL 1
REMARK VINA RESULT:      -7.2      0.000      0.000
REMARK  Name = 
REMARK  4 active torsions:
REMARK  status: ('A' for Active; 'I' for Inactive)
REMARK    1  A    between atoms: C_2  and  C_3
REMARK    2  A    between atoms: C_7  and  C_8
REMARK    3  A    between atoms: C_8  and  S_9
REMARK    4  A    between atoms: S_9  and  C_12
REMARK                            x       y       z     vdW  Elec       q    Type
REMARK                         _______ _______ _______ _____ _____    ______ ____
ROOT
ATOM      1  S   UNL     1       5.836   4.927  18.771  0.00  0.00    +0.000 S 
ATOM      2  O   UNL     1       6.908   5.786  19.242  0.00  0.00    +0.000 OA
ATOM      3  O   UNL     1       5.648   3.592  19.306  0.00  0.00    +0.000 OA
ENDROOT
BRANCH   1   4
ATOM      4  C   UNL     1       6.086   4.712  17.012  0.00  0.00    +0.000 A 
ATOM      5  C   UNL     1       7.096   5.426  16.357  0.00  0.00    +0.000 A 
ATOM      6  C   UNL     1       7.315   5.218  14.992  0.00  0.00    +0.000 A 
ATOM      7  C   UNL     1       6.528   4.302  14.294  0.00  0.00    +0.000 A 
ATOM      8 CL   UNL     1       6.802   4.042  12.616  0.00  0.00    +0.000 Cl
ATOM      9  C   UNL     1       5.525   3.585  14.950  0.00  0.00    +0.000 A 
ATOM     10  C   UNL     1       5.306   3.783  16.316  0.00  0.00    +0.000 A 
ENDBRANCH   1   4
BRANCH   1  11
ATOM     11  C   UNL     1       4.295   5.831  18.880  0.00  0.00    +0.000 C 
BRANCH  11  16
ATOM     12  C   UNL     1       1.727   3.357  20.271  0.00  0.00    +0.000 A 
ATOM     13  C   UNL     1       0.958   3.091  19.136  0.00  0.00    +0.000 A 
ATOM     14  C   UNL     1       1.276   3.697  17.921  0.00  0.00    +0.000 A 
ATOM     15  C   UNL     1       2.359   4.575  17.837  0.00  0.00    +0.000 A 
ATOM     16  C   UNL     1       3.136   4.865  18.968  0.00  0.00    +0.000 A 
ATOM     17  C   UNL     1       2.813   4.242  20.186  0.00  0.00    +0.000 A 
BRANCH  12  19
ATOM     18  N   UNL     1       1.137   2.219  22.526  0.00  0.00    +0.000 NA
ATOM     19  C   UNL     1       1.403   2.733  21.521  0.00  0.00    +0.000 C 
ENDBRANCH  12  19
ENDBRANCH  11  16
ENDBRANCH   1  11
TORSDOF 4
ENDMDL
MODEL 2
REMARK VINA RESULT:      -7.2      3.915      6.827
REMARK  Name = 
REMARK  4 active torsions:
REMARK  status: ('A' for Active; 'I' for Inactive)
REMARK    1  A    between atoms: C_2  and  C_3
REMARK    2  A    between atoms: C_7  and  C_8
REMARK    3  A    between atoms: C_8  and  S_9
REMARK    4  A    between atoms: S_9  and  C_12
REMARK                            x       y       z     vdW  Elec       q    Type
REMARK                         _______ _______ _______ _____ _____    ______ ____
ROOT
ATOM      1  S   UNL     1       5.602   6.136  16.516  0.00  0.00    +0.000 S 
ATOM      2  O   UNL     1       6.101   6.945  17.615  0.00  0.00    +0.000 OA
ATOM      3  O   UNL     1       5.144   6.742  15.280  0.00  0.00    +0.000 OA
ENDROOT
BRANCH   1   4
ATOM      4  C   UNL     1       4.206   5.215  17.150  0.00  0.00    +0.000 A 
ATOM      5  C   UNL     1       4.100   3.842  16.897  0.00  0.00    +0.000 A 
ATOM      6  C   UNL     1       3.030   3.121  17.435  0.00  0.00    +0.000 A 
ATOM      7  C   UNL     1       2.077   3.773  18.219  0.00  0.00    +0.000 A 
ATOM      8 CL   UNL     1       0.764   2.883  18.886  0.00  0.00    +0.000 Cl
ATOM      9  C   UNL     1       2.188   5.141  18.477  0.00  0.00    +0.000 A 
ATOM     10  C   UNL     1       3.260   5.866  17.948  0.00  0.00    +0.000 A 
ENDBRANCH   1   4
BRANCH   1  11
ATOM     11  C   UNL     1       6.817   4.875  16.143  0.00  0.00    +0.000 C 
BRANCH  11  16
ATOM     12  C   UNL     1       6.372   3.679  12.535  0.00  0.00    +0.000 A 
ATOM     13  C   UNL     1       7.254   4.520  11.854  0.00  0.00    +0.000 A 
ATOM     14  C   UNL     1       8.004   5.461  12.559  0.00  0.00    +0.000 A 
ATOM     15  C   UNL     1       7.868   5.570  13.946  0.00  0.00    +0.000 A 
ATOM     16  C   UNL     1       6.977   4.742  14.646  0.00  0.00    +0.000 A 
ATOM     17  C   UNL     1       6.234   3.790  13.927  0.00  0.00    +0.000 A 
BRANCH  12  19
ATOM     18  N   UNL     1       4.981   1.930  11.215  0.00  0.00    +0.000 NA
ATOM     19  C   UNL     1       5.602   2.708  11.811  0.00  0.00    +0.000 C 
ENDBRANCH  12  19
ENDBRANCH  11  16
ENDBRANCH   1  11
TORSDOF 4
ENDMDL
MODEL 3
REMARK VINA RESULT:      -7.2      0.182      1.115
REMARK  Name = 
REMARK  4 active torsions:
REMARK  status: ('A' for Active; 'I' for Inactive)
REMARK    1  A    between atoms: C_2  and  C_3
REMARK    2  A    between atoms: C_7  and  C_8
REMARK    3  A    between atoms: C_8  and  S_9
REMARK    4  A    between atoms: S_9  and  C_12
REMARK                            x       y       z     vdW  Elec       q    Type
REMARK                         _______ _______ _______ _____ _____    ______ ____
ROOT
ATOM      1  S   UNL     1       5.755   4.904  18.742  0.00  0.00    +0.000 S 
ATOM      2  O   UNL     1       6.831   5.780  19.170  0.00  0.00    +0.000 OA
ATOM      3  O   UNL     1       5.552   3.604  19.353  0.00  0.00    +0.000 OA
ENDROOT
BRANCH   1   4
ATOM      4  C   UNL     1       6.016   4.584  17.001  0.00  0.00    +0.000 A 
ATOM      5  C   UNL     1       5.052   3.884  16.265  0.00  0.00    +0.000 A 
ATOM      6  C   UNL     1       5.244   3.678  14.896  0.00  0.00    +0.000 A 
ATOM      7  C   UNL     1       6.390   4.172  14.273  0.00  0.00    +0.000 A 
ATOM      8 CL   UNL     1       6.621   3.924  12.586  0.00  0.00    +0.000 Cl
ATOM      9  C   UNL     1       7.348   4.875  15.006  0.00  0.00    +0.000 A 
ATOM     10  C   UNL     1       7.159   5.091  16.374  0.00  0.00    +0.000 A 
ENDBRANCH   1   4
BRANCH   1  11
ATOM     11  C   UNL     1       4.221   5.825  18.786  0.00  0.00    +0.000 C 
BRANCH  11  16
ATOM     12  C   UNL     1       1.665   3.371  20.233  0.00  0.00    +0.000 A 
ATOM     13  C   UNL     1       0.856   3.128  19.121  0.00  0.00    +0.000 A 
ATOM     14  C   UNL     1       1.143   3.742  17.902  0.00  0.00    +0.000 A 
ATOM     15  C   UNL     1       2.235   4.607  17.793  0.00  0.00    +0.000 A 
ATOM     16  C   UNL     1       3.052   4.874  18.901  0.00  0.00    +0.000 A 
ATOM     17  C   UNL     1       2.760   4.242  20.122  0.00  0.00    +0.000 A 
BRANCH  12  19
ATOM     18  N   UNL     1       1.124   2.224  22.496  0.00  0.00    +0.000 NA
ATOM     19  C   UNL     1       1.372   2.738  21.487  0.00  0.00    +0.000 C 
ENDBRANCH  12  19
ENDBRANCH  11  16
ENDBRANCH   1  11
TORSDOF 4
ENDMDL
MODEL 4
REMARK VINA RESULT:      -7.1      3.910      6.804
REMARK  Name = 
REMARK  4 active torsions:
REMARK  status: ('A' for Active; 'I' for Inactive)
REMARK    1  A    between atoms: C_2  and  C_3
REMARK    2  A    between atoms: C_7  and  C_8
REMARK    3  A    between atoms: C_8  and  S_9
REMARK    4  A    between atoms: S_9  and  C_12
REMARK                            x       y       z     vdW  Elec       q    Type
REMARK                         _______ _______ _______ _____ _____    ______ ____
ROOT
ATOM      1  S   UNL     1       5.620   6.132  16.506  0.00  0.00    +0.000 S 
ATOM      2  O   UNL     1       6.123   6.973  17.579  0.00  0.00    +0.000 OA
ATOM      3  O   UNL     1       5.129   6.704  15.267  0.00  0.00    +0.000 OA
ENDROOT
BRANCH   1   4
ATOM      4  C   UNL     1       4.253   5.199  17.184  0.00  0.00    +0.000 A 
ATOM      5  C   UNL     1       3.290   5.841  17.971  0.00  0.00    +0.000 A 
ATOM      6  C   UNL     1       2.201   5.113  18.460  0.00  0.00    +0.000 A 
ATOM      7  C   UNL     1       2.081   3.756  18.159  0.00  0.00    +0.000 A 
ATOM      8 CL   UNL     1       0.736   2.864  18.755  0.00  0.00    +0.000 Cl
ATOM      9  C   UNL     1       3.038   3.118  17.368  0.00  0.00    +0.000 A 
ATOM     10  C   UNL     1       4.126   3.841  16.870  0.00  0.00    +0.000 A 
ENDBRANCH   1   4
BRANCH   1  11
ATOM     11  C   UNL     1       6.852   4.887  16.136  0.00  0.00    +0.000 C 
BRANCH  11  16
ATOM     12  C   UNL     1       6.410   3.688  12.529  0.00  0.00    +0.000 A 
ATOM     13  C   UNL     1       7.296   4.527  11.849  0.00  0.00    +0.000 A 
ATOM     14  C   UNL     1       8.046   5.468  12.555  0.00  0.00    +0.000 A 
ATOM     15  C   UNL     1       7.908   5.578  13.941  0.00  0.00    +0.000 A 
ATOM     16  C   UNL     1       7.015   4.753  14.640  0.00  0.00    +0.000 A 
ATOM     17  C   UNL     1       6.271   3.801  13.920  0.00  0.00    +0.000 A 
BRANCH  12  19
ATOM     18  N   UNL     1       5.022   1.939  11.208  0.00  0.00    +0.000 NA
ATOM     19  C   UNL     1       5.640   2.719  11.804  0.00  0.00    +0.000 C 
ENDBRANCH  12  19
ENDBRANCH  11  16
ENDBRANCH   1  11
TORSDOF 4
ENDMDL
MODEL 5
REMARK VINA RESULT:      -7.0      3.198      4.241
REMARK  Name = 
REMARK  4 active torsions:
REMARK  status: ('A' for Active; 'I' for Inactive)
REMARK    1  A    between atoms: C_2  and  C_3
REMARK    2  A    between atoms: C_7  and  C_8
REMARK    3  A    between atoms: C_8  and  S_9
REMARK    4  A    between atoms: S_9  and  C_12
REMARK                            x       y       z     vdW  Elec       q    Type
REMARK                         _______ _______ _______ _____ _____    ______ ____
ROOT
ATOM      1  S   UNL     1       3.574   2.703  18.509  0.00  0.00    +0.000 S 
ATOM      2  O   UNL     1       3.676   2.395  19.925  0.00  0.00    +0.000 OA
ATOM      3  O   UNL     1       3.791   1.685  17.499  0.00  0.00    +0.000 OA
ENDROOT
BRANCH   1   4
ATOM      4  C   UNL     1       4.781   3.981  18.174  0.00  0.00    +0.000 A 
ATOM      5  C   UNL     1       5.029   4.381  16.856  0.00  0.00    +0.000 A 
ATOM      6  C   UNL     1       5.940   5.412  16.607  0.00  0.00    +0.000 A 
ATOM      7  C   UNL     1       6.593   6.034  17.671  0.00  0.00    +0.000 A 
ATOM      8 CL   UNL     1       7.708   7.307  17.363  0.00  0.00    +0.000 Cl
ATOM      9  C   UNL     1       6.339   5.640  18.986  0.00  0.00    +0.000 A 
ATOM     10  C   UNL     1       5.424   4.614  19.243  0.00  0.00    +0.000 A 
ENDBRANCH   1   4
BRANCH   1  11
ATOM     11  C   UNL     1       2.002   3.506  18.214  0.00  0.00    +0.000 C 
BRANCH  11  16
ATOM     12  C   UNL     1       2.092   7.287  18.801  0.00  0.00    +0.000 A 
ATOM     13  C   UNL     1       1.891   7.357  20.181  0.00  0.00    +0.000 A 
ATOM     14  C   UNL     1       1.742   6.186  20.924  0.00  0.00    +0.000 A 
ATOM     15  C   UNL     1       1.786   4.942  20.289  0.00  0.00    +0.000 A 
ATOM     16  C   UNL     1       1.975   4.852  18.902  0.00  0.00    +0.000 A 
ATOM     17  C   UNL     1       2.134   6.037  18.164  0.00  0.00    +0.000 A 
BRANCH  12  19
ATOM     18  N   UNL     1       2.367   9.459  17.409  0.00  0.00    +0.000 NA
ATOM     19  C   UNL     1       2.248   8.491  18.036  0.00  0.00    +0.000 C 
ENDBRANCH  12  19
ENDBRANCH  11  16
ENDBRANCH   1  11
TORSDOF 4
ENDMDL
MODEL 6
REMARK VINA RESULT:      -6.9      3.183      4.201
REMARK  Name = 
REMARK  4 active torsions:
REMARK  status: ('A' for Active; 'I' for Inactive)
REMARK    1  A    between atoms: C_2  and  C_3
REMARK    2  A    between atoms: C_7  and  C_8
REMARK    3  A    between atoms: C_8  and  S_9
REMARK    4  A    between atoms: S_9  and  C_12
REMARK                            x       y       z     vdW  Elec       q    Type
REMARK                         _______ _______ _______ _____ _____    ______ ____
ROOT
ATOM      1  S   UNL     1       3.542   2.652  18.518  0.00  0.00    +0.000 S 
ATOM      2  O   UNL     1       3.698   2.291  19.917  0.00  0.00    +0.000 OA
ATOM      3  O   UNL     1       3.754   1.681  17.461  0.00  0.00    +0.000 OA
ENDROOT
BRANCH   1   4
ATOM      4  C   UNL     1       4.702   3.976  18.198  0.00  0.00    +0.000 A 
ATOM      5  C   UNL     1       5.385   4.580  19.260  0.00  0.00    +0.000 A 
ATOM      6  C   UNL     1       6.322   5.583  18.997  0.00  0.00    +0.000 A 
ATOM      7  C   UNL     1       6.571   5.974  17.681  0.00  0.00    +0.000 A 
ATOM      8 CL   UNL     1       7.730   7.204  17.359  0.00  0.00    +0.000 Cl
ATOM      9  C   UNL     1       5.894   5.367  16.622  0.00  0.00    +0.000 A 
ATOM     10  C   UNL     1       4.960   4.358  16.877  0.00  0.00    +0.000 A 
ENDBRANCH   1   4
BRANCH   1  11
ATOM     11  C   UNL     1       1.940   3.420  18.305  0.00  0.00    +0.000 C 
BRANCH  11  16
ATOM     12  C   UNL     1       2.067   7.211  18.812  0.00  0.00    +0.000 A 
ATOM     13  C   UNL     1       1.876   7.311  20.192  0.00  0.00    +0.000 A 
ATOM     14  C   UNL     1       1.722   6.157  20.960  0.00  0.00    +0.000 A 
ATOM     15  C   UNL     1       1.751   4.900  20.350  0.00  0.00    +0.000 A 
ATOM     16  C   UNL     1       1.929   4.780  18.964  0.00  0.00    +0.000 A 
ATOM     17  C   UNL     1       2.093   5.948  18.201  0.00  0.00    +0.000 A 
BRANCH  12  19
ATOM     18  N   UNL     1       2.358   9.350  17.372  0.00  0.00    +0.000 NA
ATOM     19  C   UNL     1       2.227   8.398  18.022  0.00  0.00    +0.000 C 
ENDBRANCH  12  19
ENDBRANCH  11  16
ENDBRANCH   1  11
TORSDOF 4
ENDMDL
MODEL 7
REMARK VINA RESULT:      -6.8      2.905      3.620
REMARK  Name = 
REMARK  4 active torsions:
REMARK  status: ('A' for Active; 'I' for Inactive)
REMARK    1  A    between atoms: C_2  and  C_3
REMARK    2  A    between atoms: C_7  and  C_8
REMARK    3  A    between atoms: C_8  and  S_9
REMARK    4  A    between atoms: S_9  and  C_12
REMARK                            x       y       z     vdW  Elec       q    Type
REMARK                         _______ _______ _______ _____ _____    ______ ____
ROOT
ATOM      1  S   UNL     1       4.789   4.224  18.973  0.00  0.00    +0.000 S 
ATOM      2  O   UNL     1       5.198   5.367  19.771  0.00  0.00    +0.000 OA
ATOM      3  O   UNL     1       5.106   2.868  19.378  0.00  0.00    +0.000 OA
ENDROOT
BRANCH   1   4
ATOM      4  C   UNL     1       5.532   4.434  17.359  0.00  0.00    +0.000 A 
ATOM      5  C   UNL     1       6.884   4.778  17.251  0.00  0.00    +0.000 A 
ATOM      6  C   UNL     1       7.468   4.895  15.986  0.00  0.00    +0.000 A 
ATOM      7  C   UNL     1       6.701   4.668  14.843  0.00  0.00    +0.000 A 
ATOM      8 CL   UNL     1       7.423   4.806  13.287  0.00  0.00    +0.000 Cl
ATOM      9  C   UNL     1       5.354   4.318  14.952  0.00  0.00    +0.000 A 
ATOM     10  C   UNL     1       4.766   4.192  16.214  0.00  0.00    +0.000 A 
ENDBRANCH   1   4
BRANCH   1  11
ATOM     11  C   UNL     1       3.031   4.352  18.659  0.00  0.00    +0.000 C 
BRANCH  11  16
ATOM     12  C   UNL     1       2.042   8.039  18.939  0.00  0.00    +0.000 A 
ATOM     13  C   UNL     1       1.493   8.081  20.222  0.00  0.00    +0.000 A 
ATOM     14  C   UNL     1       1.455   6.925  21.002  0.00  0.00    +0.000 A 
ATOM     15  C   UNL     1       1.960   5.723  20.499  0.00  0.00    +0.000 A 
ATOM     16  C   UNL     1       2.504   5.658  19.208  0.00  0.00    +0.000 A 
ATOM     17  C   UNL     1       2.546   6.831  18.434  0.00  0.00    +0.000 A 
BRANCH  12  19
ATOM     18  N   UNL     1       2.104  10.189  17.488  0.00  0.00    +0.000 NA
ATOM     19  C   UNL     1       2.083   9.228  18.137  0.00  0.00    +0.000 C 
ENDBRANCH  12  19
ENDBRANCH  11  16
ENDBRANCH   1  11
TORSDOF 4
ENDMDL
MODEL 8
REMARK VINA RESULT:      -6.7      1.445      2.171
REMARK  Name = 
REMARK  4 active torsions:
REMARK  status: ('A' for Active; 'I' for Inactive)
REMARK    1  A    between atoms: C_2  and  C_3
REMARK    2  A    between atoms: C_7  and  C_8
REMARK    3  A    between atoms: C_8  and  S_9
REMARK    4  A    between atoms: S_9  and  C_12
REMARK                            x       y       z     vdW  Elec       q    Type
REMARK                         _______ _______ _______ _____ _____    ______ ____
ROOT
ATOM      1  S   UNL     1       5.682   5.567  17.913  0.00  0.00    +0.000 S 
ATOM      2  O   UNL     1       6.743   6.522  18.184  0.00  0.00    +0.000 OA
ATOM      3  O   UNL     1       5.488   4.398  18.751  0.00  0.00    +0.000 OA
ENDROOT
BRANCH   1   4
ATOM      4  C   UNL     1       5.967   4.937  16.263  0.00  0.00    +0.000 A 
ATOM      5  C   UNL     1       5.021   4.101  15.660  0.00  0.00    +0.000 A 
ATOM      6  C   UNL     1       5.230   3.650  14.353  0.00  0.00    +0.000 A 
ATOM      7  C   UNL     1       6.378   4.038  13.660  0.00  0.00    +0.000 A 
ATOM      8 CL   UNL     1       6.630   3.488  12.050  0.00  0.00    +0.000 Cl
ATOM      9  C   UNL     1       7.318   4.877  14.261  0.00  0.00    +0.000 A 
ATOM     10  C   UNL     1       7.111   5.337  15.564  0.00  0.00    +0.000 A 
ENDBRANCH   1   4
BRANCH   1  11
ATOM     11  C   UNL     1       4.137   6.459  17.774  0.00  0.00    +0.000 C 
BRANCH  11  16
ATOM     12  C   UNL     1       1.494   4.041  19.123  0.00  0.00    +0.000 A 
ATOM     13  C   UNL     1       1.178   4.633  20.348  0.00  0.00    +0.000 A 
ATOM     14  C   UNL     1       1.805   5.818  20.731  0.00  0.00    +0.000 A 
ATOM     15  C   UNL     1       2.755   6.412  19.895  0.00  0.00    +0.000 A 
ATOM     16  C   UNL     1       3.095   5.826  18.667  0.00  0.00    +0.000 A 
ATOM     17  C   UNL     1       2.450   4.637  18.285  0.00  0.00    +0.000 A 
BRANCH  12  19
ATOM     18  N   UNL     1       0.333   1.832  18.414  0.00  0.00    +0.000 NA
ATOM     19  C   UNL     1       0.848   2.823  18.726  0.00  0.00    +0.000 C 
ENDBRANCH  12  19
ENDBRANCH  11  16
ENDBRANCH   1  11
TORSDOF 4
ENDMDL
MODEL 9
REMARK VINA RESULT:      -6.7      2.681      3.393
REMARK  Name = 
REMARK  4 active torsions:
REMARK  status: ('A' for Active; 'I' for Inactive)
REMARK    1  A    between atoms: C_2  and  C_3
REMARK    2  A    between atoms: C_7  and  C_8
REMARK    3  A    between atoms: C_8  and  S_9
REMARK    4  A    between atoms: S_9  and  C_12
REMARK                            x       y       z     vdW  Elec       q    Type
REMARK                         _______ _______ _______ _____ _____    ______ ____
ROOT
ATOM      1  S   UNL     1       5.582   4.299  17.457  0.00  0.00    +0.000 S 
ATOM      2  O   UNL     1       5.563   3.601  18.731  0.00  0.00    +0.000 OA
ATOM      3  O   UNL     1       6.170   3.696  16.276  0.00  0.00    +0.000 OA
ENDROOT
BRANCH   1   4
ATOM      4  C   UNL     1       6.481   5.823  17.720  0.00  0.00    +0.000 A 
ATOM      5  C   UNL     1       7.556   5.856  18.616  0.00  0.00    +0.000 A 
ATOM      6  C   UNL     1       8.281   7.039  18.782  0.00  0.00    +0.000 A 
ATOM      7  C   UNL     1       7.930   8.177  18.054  0.00  0.00    +0.000 A 
ATOM      8 CL   UNL     1       8.828   9.631  18.255  0.00  0.00    +0.000 Cl
ATOM      9  C   UNL     1       6.862   8.142  17.156  0.00  0.00    +0.000 A 
ATOM     10  C   UNL     1       6.138   6.959  16.980  0.00  0.00    +0.000 A 
ENDBRANCH   1   4
BRANCH   1  11
ATOM     11  C   UNL     1       3.918   4.839  17.080  0.00  0.00    +0.000 C 
BRANCH  11  16
ATOM     12  C   UNL     1       2.131   4.431  20.440  0.00  0.00    +0.000 A 
ATOM     13  C   UNL     1       1.831   5.758  20.756  0.00  0.00    +0.000 A 
ATOM     14  C   UNL     1       2.191   6.781  19.879  0.00  0.00    +0.000 A 
ATOM     15  C   UNL     1       2.857   6.483  18.688  0.00  0.00    +0.000 A 
ATOM     16  C   UNL     1       3.179   5.158  18.359  0.00  0.00    +0.000 A 
ATOM     17  C   UNL     1       2.803   4.133  19.245  0.00  0.00    +0.000 A 
BRANCH  12  19
ATOM     18  N   UNL     1       1.461   2.533  22.077  0.00  0.00    +0.000 NA
ATOM     19  C   UNL     1       1.760   3.377  21.340  0.00  0.00    +0.000 C 
ENDBRANCH  12  19
ENDBRANCH  11  16
ENDBRANCH   1  11
TORSDOF 4
ENDMDL
