MODEL 1
REMARK VINA RESULT:      -6.6      0.000      0.000
REMARK  Name = 
REMARK  8 active torsions:
REMARK  status: ('A' for Active; 'I' for Inactive)
REMARK    1  A    between atoms: C_1  and  O_2
REMARK    2  A    between atoms: O_2  and  C_3
REMARK    3  A    between atoms: C_3  and  C_5
REMARK    4  A    between atoms: C_6  and  C_7
REMARK    5  A    between atoms: C_7  and  N_8
REMARK    6  A    between atoms: C_16  and  C_17
REMARK    7  A    between atoms: C_23  and  C_24
REMARK    8  A    between atoms: C_23  and  C_25
REMARK                            x       y       z     vdW  Elec       q    Type
REMARK                         _______ _______ _______ _____ _____    ______ ____
ROOT
ATOM      1  C   UNL     1       0.970  12.918  19.340  0.00  0.00    +0.000 C 
ATOM      2  C   UNL     1       0.153  13.810  18.720  0.00  0.00    +0.000 C 
ATOM      3  N   UNL     1      -1.037  13.350  18.179  0.00  0.00    +0.000 N 
ATOM      4  C   UNL     1      -1.369  12.022  18.070  0.00  0.00    +0.000 C 
ATOM      5  N   UNL     1      -0.629  11.090  18.564  0.00  0.00    +0.000 NA
ATOM      6  C   UNL     1       0.622  11.414  19.279  0.00  0.00    +0.000 C 
ATOM      7  C   UNL     1       1.707  10.740  18.375  0.00  0.00    +0.000 C 
ATOM      8  H   UNL     1      -1.611  14.032  17.692  0.00  0.00    +0.000 HD
ENDROOT
BRANCH   6   9
ATOM      9  C   UNL     1       0.471  10.766  20.671  0.00  0.00    +0.000 A 
ATOM     10  C   UNL     1       1.190   9.611  21.037  0.00  0.00    +0.000 A 
ATOM     11  C   UNL     1       1.018   9.027  22.293  0.00  0.00    +0.000 A 
ATOM     12  C   UNL     1       0.121   9.583  23.193  0.00  0.00    +0.000 A 
ATOM     13  F   UNL     1      -0.037   9.022  24.399  0.00  0.00    +0.000 F 
ATOM     14  C   UNL     1      -0.624  10.702  22.854  0.00  0.00    +0.000 A 
ATOM     15  C   UNL     1      -0.461  11.282  21.595  0.00  0.00    +0.000 A 
ENDBRANCH   6   9
BRANCH   4  16
ATOM     16  C   UNL     1      -2.581  11.598  17.360  0.00  0.00    +0.000 A 
ATOM     17  N   UNL     1      -2.552  11.133  16.121  0.00  0.00    +0.000 NA
ATOM     18  C   UNL     1      -3.840  10.816  15.726  0.00  0.00    +0.000 A 
ATOM     19  C   UNL     1      -4.824  11.009  16.670  0.00  0.00    +0.000 A 
ATOM     20  S   UNL     1      -4.133  11.634  18.103  0.00  0.00    +0.000 S 
ENDBRANCH   4  16
BRANCH   1  21
ATOM     21  C   UNL     1       2.263  13.311  20.009  0.00  0.00    +0.000 C 
ATOM     22  O   UNL     1       2.465  13.365  21.215  0.00  0.00    +0.000 OA
BRANCH  21  24
ATOM     23  C   UNL     1       4.055  14.722  19.406  0.00  0.00    +0.000 C 
ATOM     24  O   UNL     1       3.195  13.640  19.084  0.00  0.00    +0.000 OA
ENDBRANCH  21  24
ENDBRANCH   1  21
BRANCH   2  25
ATOM     25  C   UNL     1       0.486  15.278  18.447  0.00  0.00    +0.000 C 
BRANCH  25  26
ATOM     26  N   UNL     1      -0.399  16.261  19.133  0.00  0.00    +0.000 NA
ATOM     27  C   UNL     1      -0.797  17.359  18.196  0.00  0.00    +0.000 C 
ATOM     28  C   UNL     1      -0.128  18.602  18.792  0.00  0.00    +0.000 C 
ATOM     29  C   UNL     1      -0.380  18.360  20.262  0.00  0.00    +0.000 C 
ATOM     30  C   UNL     1       0.357  17.025  20.208  0.00  0.00    +0.000 C 
ATOM     31  C   UNL     1       1.711  17.592  19.728  0.00  0.00    +0.000 C 
ATOM     32  O   UNL     1       1.317  18.491  18.657  0.00  0.00    +0.000 OA
ENDBRANCH  25  26
ENDBRANCH   2  25
TORSDOF 6
ENDMDL
MODEL 2
REMARK VINA RESULT:      -6.4      3.092      4.473
REMARK  Name = 
REMARK  8 active torsions:
REMARK  status: ('A' for Active; 'I' for Inactive)
REMARK    1  A    between atoms: C_1  and  O_2
REMARK    2  A    between atoms: O_2  and  C_3
REMARK    3  A    between atoms: C_3  and  C_5
REMARK    4  A    between atoms: C_6  and  C_7
REMARK    5  A    between atoms: C_7  and  N_8
REMARK    6  A    between atoms: C_16  and  C_17
REMARK    7  A    between atoms: C_23  and  C_24
REMARK    8  A    between atoms: C_23  and  C_25
REMARK                            x       y       z     vdW  Elec       q    Type
REMARK                         _______ _______ _______ _____ _____    ______ ____
ROOT
ATOM      1  C   UNL     1      -0.891  11.853  20.621  0.00  0.00    +0.000 C 
ATOM      2  C   UNL     1      -2.184  12.201  20.397  0.00  0.00    +0.000 C 
ATOM      3  N   UNL     1      -2.781  11.798  19.212  0.00  0.00    +0.000 N 
ATOM      4  C   UNL     1      -2.101  11.220  18.167  0.00  0.00    +0.000 C 
ATOM      5  N   UNL     1      -0.853  10.912  18.251  0.00  0.00    +0.000 NA
ATOM      6  C   UNL     1      -0.091  11.166  19.491  0.00  0.00    +0.000 C 
ATOM      7  C   UNL     1       0.985  12.198  19.015  0.00  0.00    +0.000 C 
ATOM      8  H   UNL     1      -3.738  12.102  19.056  0.00  0.00    +0.000 HD
ENDROOT
BRANCH   6   9
ATOM      9  C   UNL     1       0.487   9.796  19.898  0.00  0.00    +0.000 A 
ATOM     10  C   UNL     1       0.144   9.173  21.114  0.00  0.00    +0.000 A 
ATOM     11  C   UNL     1       0.700   7.943  21.474  0.00  0.00    +0.000 A 
ATOM     12  C   UNL     1       1.611   7.328  20.628  0.00  0.00    +0.000 A 
ATOM     13  F   UNL     1       2.138   6.146  20.974  0.00  0.00    +0.000 F 
ATOM     14  C   UNL     1       1.993   7.927  19.438  0.00  0.00    +0.000 A 
ATOM     15  C   UNL     1       1.446   9.160  19.080  0.00  0.00    +0.000 A 
ENDBRANCH   6   9
BRANCH   4  16
ATOM     16  C   UNL     1      -2.766  10.948  16.888  0.00  0.00    +0.000 A 
ATOM     17  N   UNL     1      -2.175  10.279  15.909  0.00  0.00    +0.000 NA
ATOM     18  C   UNL     1      -3.047  10.180  14.839  0.00  0.00    +0.000 A 
ATOM     19  C   UNL     1      -4.293  10.737  15.023  0.00  0.00    +0.000 A 
ATOM     20  S   UNL     1      -4.386  11.439  16.579  0.00  0.00    +0.000 S 
ENDBRANCH   4  16
BRANCH   1  21
ATOM     21  C   UNL     1      -0.154  12.189  21.894  0.00  0.00    +0.000 C 
ATOM     22  O   UNL     1      -0.295  11.638  22.977  0.00  0.00    +0.000 OA
BRANCH  21  24
ATOM     23  C   UNL     1       0.243  14.501  22.153  0.00  0.00    +0.000 C 
ATOM     24  O   UNL     1       0.685  13.232  21.694  0.00  0.00    +0.000 OA
ENDBRANCH  21  24
ENDBRANCH   1  21
BRANCH   2  25
ATOM     25  C   UNL     1      -3.025  13.118  21.287  0.00  0.00    +0.000 C 
BRANCH  25  26
ATOM     26  N   UNL     1      -3.919  12.414  22.249  0.00  0.00    +0.000 NA
ATOM     27  C   UNL     1      -5.260  13.077  22.307  0.00  0.00    +0.000 C 
ATOM     28  C   UNL     1      -5.325  13.632  23.734  0.00  0.00    +0.000 C 
ATOM     29  C   UNL     1      -4.711  12.482  24.496  0.00  0.00    +0.000 C 
ATOM     30  C   UNL     1      -3.427  12.575  23.678  0.00  0.00    +0.000 C 
ATOM     31  C   UNL     1      -3.086  14.034  24.054  0.00  0.00    +0.000 C 
ATOM     32  O   UNL     1      -4.360  14.712  23.882  0.00  0.00    +0.000 OA
ENDBRANCH  25  26
ENDBRANCH   2  25
TORSDOF 6
ENDMDL
MODEL 3
REMARK VINA RESULT:      -6.4      1.035      1.545
REMARK  Name = 
REMARK  8 active torsions:
REMARK  status: ('A' for Active; 'I' for Inactive)
REMARK    1  A    between atoms: C_1  and  O_2
REMARK    2  A    between atoms: O_2  and  C_3
REMARK    3  A    between atoms: C_3  and  C_5
REMARK    4  A    between atoms: C_6  and  C_7
REMARK    5  A    between atoms: C_7  and  N_8
REMARK    6  A    between atoms: C_16  and  C_17
REMARK    7  A    between atoms: C_23  and  C_24
REMARK    8  A    between atoms: C_23  and  C_25
REMARK                            x       y       z     vdW  Elec       q    Type
REMARK                         _______ _______ _______ _____ _____    ______ ____
ROOT
ATOM      1  C   UNL     1       0.850  12.860  19.366  0.00  0.00    +0.000 C 
ATOM      2  C   UNL     1       0.033  13.748  18.743  0.00  0.00    +0.000 C 
ATOM      3  N   UNL     1      -1.160  13.287  18.209  0.00  0.00    +0.000 N 
ATOM      4  C   UNL     1      -1.494  11.959  18.109  0.00  0.00    +0.000 C 
ATOM      5  N   UNL     1      -0.754  11.028  18.606  0.00  0.00    +0.000 NA
ATOM      6  C   UNL     1       0.499  11.355  19.316  0.00  0.00    +0.000 C 
ATOM      7  C   UNL     1       1.581  10.675  18.414  0.00  0.00    +0.000 C 
ATOM      8  H   UNL     1      -1.734  13.967  17.718  0.00  0.00    +0.000 HD
ENDROOT
BRANCH   6   9
ATOM      9  C   UNL     1       0.351  10.716  20.712  0.00  0.00    +0.000 A 
ATOM     10  C   UNL     1      -0.584  11.190  21.653  0.00  0.00    +0.000 A 
ATOM     11  C   UNL     1      -0.683  10.612  22.921  0.00  0.00    +0.000 A 
ATOM     12  C   UNL     1       0.156   9.563  23.264  0.00  0.00    +0.000 A 
ATOM     13  F   UNL     1       0.054   9.008  24.479  0.00  0.00    +0.000 F 
ATOM     14  C   UNL     1       1.107   9.091  22.373  0.00  0.00    +0.000 A 
ATOM     15  C   UNL     1       1.214   9.673  21.108  0.00  0.00    +0.000 A 
ENDBRANCH   6   9
BRANCH   4  16
ATOM     16  C   UNL     1      -2.708  11.533  17.404  0.00  0.00    +0.000 A 
ATOM     17  N   UNL     1      -3.922  11.739  17.892  0.00  0.00    +0.000 NA
ATOM     18  C   UNL     1      -4.858  11.234  17.007  0.00  0.00    +0.000 A 
ATOM     19  C   UNL     1      -4.355  10.682  15.849  0.00  0.00    +0.000 A 
ATOM     20  S   UNL     1      -2.648  10.769  15.863  0.00  0.00    +0.000 S 
ENDBRANCH   4  16
BRANCH   1  21
ATOM     21  C   UNL     1       2.145  13.254  20.030  0.00  0.00    +0.000 C 
ATOM     22  O   UNL     1       2.357  13.294  21.234  0.00  0.00    +0.000 OA
BRANCH  21  24
ATOM     23  C   UNL     1       3.926  14.683  19.433  0.00  0.00    +0.000 C 
ATOM     24  O   UNL     1       3.067  13.603  19.102  0.00  0.00    +0.000 OA
ENDBRANCH  21  24
ENDBRANCH   1  21
BRANCH   2  25
ATOM     25  C   UNL     1       0.367  15.215  18.461  0.00  0.00    +0.000 C 
BRANCH  25  26
ATOM     26  N   UNL     1       0.314  16.111  19.649  0.00  0.00    +0.000 NA
ATOM     27  C   UNL     1      -1.023  16.022  20.319  0.00  0.00    +0.000 C 
ATOM     28  C   UNL     1      -1.622  17.418  20.113  0.00  0.00    +0.000 C 
ATOM     29  C   UNL     1      -0.401  18.271  20.361  0.00  0.00    +0.000 C 
ATOM     30  C   UNL     1       0.362  17.574  19.238  0.00  0.00    +0.000 C 
ATOM     31  C   UNL     1      -0.627  17.931  18.107  0.00  0.00    +0.000 C 
ATOM     32  O   UNL     1      -1.916  17.620  18.702  0.00  0.00    +0.000 OA
ENDBRANCH  25  26
ENDBRANCH   2  25
TORSDOF 6
ENDMDL
MODEL 4
REMARK VINA RESULT:      -6.4      3.589      4.561
REMARK  Name = 
REMARK  8 active torsions:
REMARK  status: ('A' for Active; 'I' for Inactive)
REMARK    1  A    between atoms: C_1  and  O_2
REMARK    2  A    between atoms: O_2  and  C_3
REMARK    3  A    between atoms: C_3  and  C_5
REMARK    4  A    between atoms: C_6  and  C_7
REMARK    5  A    between atoms: C_7  and  N_8
REMARK    6  A    between atoms: C_16  and  C_17
REMARK    7  A    between atoms: C_23  and  C_24
REMARK    8  A    between atoms: C_23  and  C_25
REMARK                            x       y       z     vdW  Elec       q    Type
REMARK                         _______ _______ _______ _____ _____    ______ ____
ROOT
ATOM      1  C   UNL     1      -1.731  14.070  21.953  0.00  0.00    +0.000 C 
ATOM      2  C   UNL     1      -1.341  14.448  20.708  0.00  0.00    +0.000 C 
ATOM      3  N   UNL     1      -1.666  13.630  19.637  0.00  0.00    +0.000 N 
ATOM      4  C   UNL     1      -2.202  12.372  19.766  0.00  0.00    +0.000 C 
ATOM      5  N   UNL     1      -2.545  11.889  20.911  0.00  0.00    +0.000 NA
ATOM      6  C   UNL     1      -2.375  12.678  22.148  0.00  0.00    +0.000 C 
ATOM      7  C   UNL     1      -1.345  11.818  22.953  0.00  0.00    +0.000 C 
ATOM      8  H   UNL     1      -1.331  13.920  18.723  0.00  0.00    +0.000 HD
ENDROOT
BRANCH   6   9
ATOM      9  C   UNL     1      -3.779  12.739  22.784  0.00  0.00    +0.000 A 
ATOM     10  C   UNL     1      -4.892  13.246  22.085  0.00  0.00    +0.000 A 
ATOM     11  C   UNL     1      -6.149  13.314  22.690  0.00  0.00    +0.000 A 
ATOM     12  C   UNL     1      -6.304  12.887  24.001  0.00  0.00    +0.000 A 
ATOM     13  F   UNL     1      -7.513  12.950  24.575  0.00  0.00    +0.000 F 
ATOM     14  C   UNL     1      -5.224  12.410  24.727  0.00  0.00    +0.000 A 
ATOM     15  C   UNL     1      -3.965  12.349  24.127  0.00  0.00    +0.000 A 
ENDBRANCH   6   9
BRANCH   4  16
ATOM     16  C   UNL     1      -2.390  11.504  18.599  0.00  0.00    +0.000 A 
ATOM     17  N   UNL     1      -3.495  11.526  17.868  0.00  0.00    +0.000 NA
ATOM     18  C   UNL     1      -3.376  10.605  16.842  0.00  0.00    +0.000 A 
ATOM     19  C   UNL     1      -2.182   9.922  16.780  0.00  0.00    +0.000 A 
ATOM     20  S   UNL     1      -1.167  10.420  18.062  0.00  0.00    +0.000 S 
ENDBRANCH   4  16
BRANCH   1  21
ATOM     21  C   UNL     1      -1.480  14.903  23.185  0.00  0.00    +0.000 C 
ATOM     22  O   UNL     1      -0.610  14.710  24.023  0.00  0.00    +0.000 OA
BRANCH  21  24
ATOM     23  C   UNL     1      -3.214  15.912  24.426  0.00  0.00    +0.000 C 
ATOM     24  O   UNL     1      -2.387  15.904  23.273  0.00  0.00    +0.000 OA
ENDBRANCH  21  24
ENDBRANCH   1  21
BRANCH   2  25
ATOM     25  C   UNL     1      -0.452  15.651  20.383  0.00  0.00    +0.000 C 
BRANCH  25  26
ATOM     26  N   UNL     1      -0.368  15.996  18.936  0.00  0.00    +0.000 NA
ATOM     27  C   UNL     1       1.035  16.364  18.561  0.00  0.00    +0.000 C 
ATOM     28  C   UNL     1       0.931  17.848  18.192  0.00  0.00    +0.000 C 
ATOM     29  C   UNL     1      -0.372  17.841  17.427  0.00  0.00    +0.000 C 
ATOM     30  C   UNL     1      -1.121  17.281  18.632  0.00  0.00    +0.000 C 
ATOM     31  C   UNL     1      -0.787  18.438  19.599  0.00  0.00    +0.000 C 
ATOM     32  O   UNL     1       0.637  18.629  19.385  0.00  0.00    +0.000 OA
ENDBRANCH  25  26
ENDBRANCH   2  25
TORSDOF 6
ENDMDL
MODEL 5
REMARK VINA RESULT:      -6.3      2.771      3.484
REMARK  Name = 
REMARK  8 active torsions:
REMARK  status: ('A' for Active; 'I' for Inactive)
REMARK    1  A    between atoms: C_1  and  O_2
REMARK    2  A    between atoms: O_2  and  C_3
REMARK    3  A    between atoms: C_3  and  C_5
REMARK    4  A    between atoms: C_6  and  C_7
REMARK    5  A    between atoms: C_7  and  N_8
REMARK    6  A    between atoms: C_16  and  C_17
REMARK    7  A    between atoms: C_23  and  C_24
REMARK    8  A    between atoms: C_23  and  C_25
REMARK                            x       y       z     vdW  Elec       q    Type
REMARK                         _______ _______ _______ _____ _____    ______ ____
ROOT
ATOM      1  C   UNL     1      -0.760  13.608  20.762  0.00  0.00    +0.000 C 
ATOM      2  C   UNL     1      -0.582  13.964  19.463  0.00  0.00    +0.000 C 
ATOM      3  N   UNL     1      -1.258  13.253  18.485  0.00  0.00    +0.000 N 
ATOM      4  C   UNL     1      -1.962  12.097  18.722  0.00  0.00    +0.000 C 
ATOM      5  N   UNL     1      -2.133  11.634  19.913  0.00  0.00    +0.000 NA
ATOM      6  C   UNL     1      -1.576  12.336  21.087  0.00  0.00    +0.000 C 
ATOM      7  C   UNL     1      -0.561  11.288  21.652  0.00  0.00    +0.000 C 
ATOM      8  H   UNL     1      -1.079  13.519  17.520  0.00  0.00    +0.000 HD
ENDROOT
BRANCH   6   9
ATOM      9  C   UNL     1      -2.784  12.603  22.008  0.00  0.00    +0.000 A 
ATOM     10  C   UNL     1      -2.813  12.160  23.345  0.00  0.00    +0.000 A 
ATOM     11  C   UNL     1      -3.928  12.391  24.153  0.00  0.00    +0.000 A 
ATOM     12  C   UNL     1      -5.028  13.058  23.632  0.00  0.00    +0.000 A 
ATOM     13  F   UNL     1      -6.093  13.282  24.413  0.00  0.00    +0.000 F 
ATOM     14  C   UNL     1      -5.043  13.482  22.313  0.00  0.00    +0.000 A 
ATOM     15  C   UNL     1      -3.933  13.244  21.500  0.00  0.00    +0.000 A 
ENDBRANCH   6   9
BRANCH   4  16
ATOM     16  C   UNL     1      -2.535  11.317  17.620  0.00  0.00    +0.000 A 
ATOM     17  N   UNL     1      -3.660  11.666  17.013  0.00  0.00    +0.000 NA
ATOM     18  C   UNL     1      -3.942  10.745  16.020  0.00  0.00    +0.000 A 
ATOM     19  C   UNL     1      -3.023   9.732  15.858  0.00  0.00    +0.000 A 
ATOM     20  S   UNL     1      -1.763   9.910  17.000  0.00  0.00    +0.000 S 
ENDBRANCH   4  16
BRANCH   1  21
ATOM     21  C   UNL     1      -0.119  14.340  21.914  0.00  0.00    +0.000 C 
ATOM     22  O   UNL     1       1.013  14.162  22.343  0.00  0.00    +0.000 OA
BRANCH  21  24
ATOM     23  C   UNL     1      -0.966  15.352  23.870  0.00  0.00    +0.000 C 
ATOM     24  O   UNL     1      -0.988  15.225  22.457  0.00  0.00    +0.000 OA
ENDBRANCH  21  24
ENDBRANCH   1  21
BRANCH   2  25
ATOM     25  C   UNL     1       0.409  15.015  18.959  0.00  0.00    +0.000 C 
BRANCH  25  26
ATOM     26  N   UNL     1       0.036  16.425  19.259  0.00  0.00    +0.000 NA
ATOM     27  C   UNL     1      -0.238  17.181  17.995  0.00  0.00    +0.000 C 
ATOM     28  C   UNL     1       0.883  18.224  17.948  0.00  0.00    +0.000 C 
ATOM     29  C   UNL     1       0.930  18.631  19.402  0.00  0.00    +0.000 C 
ATOM     30  C   UNL     1       1.214  17.196  19.835  0.00  0.00    +0.000 C 
ATOM     31  C   UNL     1       2.519  17.024  19.028  0.00  0.00    +0.000 C 
ATOM     32  O   UNL     1       2.159  17.559  17.725  0.00  0.00    +0.000 OA
ENDBRANCH  25  26
ENDBRANCH   2  25
TORSDOF 6
ENDMDL
MODEL 6
REMARK VINA RESULT:      -6.3      3.423      4.417
REMARK  Name = 
REMARK  8 active torsions:
REMARK  status: ('A' for Active; 'I' for Inactive)
REMARK    1  A    between atoms: C_1  and  O_2
REMARK    2  A    between atoms: O_2  and  C_3
REMARK    3  A    between atoms: C_3  and  C_5
REMARK    4  A    between atoms: C_6  and  C_7
REMARK    5  A    between atoms: C_7  and  N_8
REMARK    6  A    between atoms: C_16  and  C_17
REMARK    7  A    between atoms: C_23  and  C_24
REMARK    8  A    between atoms: C_23  and  C_25
REMARK                            x       y       z     vdW  Elec       q    Type
REMARK                         _______ _______ _______ _____ _____    ______ ____
ROOT
ATOM      1  C   UNL     1      -1.699  14.205  21.916  0.00  0.00    +0.000 C 
ATOM      2  C   UNL     1      -1.343  14.575  20.658  0.00  0.00    +0.000 C 
ATOM      3  N   UNL     1      -1.656  13.728  19.606  0.00  0.00    +0.000 N 
ATOM      4  C   UNL     1      -2.145  12.454  19.765  0.00  0.00    +0.000 C 
ATOM      5  N   UNL     1      -2.451  11.979  20.923  0.00  0.00    +0.000 NA
ATOM      6  C   UNL     1      -2.289  12.795  22.144  0.00  0.00    +0.000 C 
ATOM      7  C   UNL     1      -1.216  11.986  22.946  0.00  0.00    +0.000 C 
ATOM      8  H   UNL     1      -1.348  14.014  18.681  0.00  0.00    +0.000 HD
ENDROOT
BRANCH   6   9
ATOM      9  C   UNL     1      -3.683  12.816  22.803  0.00  0.00    +0.000 A 
ATOM     10  C   UNL     1      -3.876  12.448  24.149  0.00  0.00    +0.000 A 
ATOM     11  C   UNL     1      -5.152  12.450  24.718  0.00  0.00    +0.000 A 
ATOM     12  C   UNL     1      -6.247  12.810  23.947  0.00  0.00    +0.000 A 
ATOM     13  F   UNL     1      -7.468  12.816  24.498  0.00  0.00    +0.000 F 
ATOM     14  C   UNL     1      -6.096  13.149  22.612  0.00  0.00    +0.000 A 
ATOM     15  C   UNL     1      -4.823  13.139  22.038  0.00  0.00    +0.000 A 
ENDBRANCH   6   9
BRANCH   4  16
ATOM     16  C   UNL     1      -2.321  11.560  18.616  0.00  0.00    +0.000 A 
ATOM     17  N   UNL     1      -1.346  10.789  18.158  0.00  0.00    +0.000 NA
ATOM     18  C   UNL     1      -1.812  10.063  17.077  0.00  0.00    +0.000 A 
ATOM     19  C   UNL     1      -3.134  10.259  16.744  0.00  0.00    +0.000 A 
ATOM     20  S   UNL     1      -3.828  11.412  17.798  0.00  0.00    +0.000 S 
ENDBRANCH   4  16
BRANCH   1  21
ATOM     21  C   UNL     1      -1.458  15.067  23.129  0.00  0.00    +0.000 C 
ATOM     22  O   UNL     1      -0.527  14.963  23.916  0.00  0.00    +0.000 OA
BRANCH  21  24
ATOM     23  C   UNL     1      -2.050  17.306  23.581  0.00  0.00    +0.000 C 
ATOM     24  O   UNL     1      -2.448  15.980  23.266  0.00  0.00    +0.000 OA
ENDBRANCH  21  24
ENDBRANCH   1  21
BRANCH   2  25
ATOM     25  C   UNL     1      -0.504  15.803  20.297  0.00  0.00    +0.000 C 
BRANCH  25  26
ATOM     26  N   UNL     1      -0.396  16.083  18.838  0.00  0.00    +0.000 NA
ATOM     27  C   UNL     1       1.033  16.308  18.447  0.00  0.00    +0.000 C 
ATOM     28  C   UNL     1       1.062  17.780  18.020  0.00  0.00    +0.000 C 
ATOM     29  C   UNL     1      -0.240  17.862  17.259  0.00  0.00    +0.000 C 
ATOM     30  C   UNL     1      -1.031  17.419  18.486  0.00  0.00    +0.000 C 
ATOM     31  C   UNL     1      -0.588  18.577  19.406  0.00  0.00    +0.000 C 
ATOM     32  O   UNL     1       0.846  18.629  19.183  0.00  0.00    +0.000 OA
ENDBRANCH  25  26
ENDBRANCH   2  25
TORSDOF 6
ENDMDL
MODEL 7
REMARK VINA RESULT:      -6.3      3.379      4.385
REMARK  Name = 
REMARK  8 active torsions:
REMARK  status: ('A' for Active; 'I' for Inactive)
REMARK    1  A    between atoms: C_1  and  O_2
REMARK    2  A    between atoms: O_2  and  C_3
REMARK    3  A    between atoms: C_3  and  C_5
REMARK    4  A    between atoms: C_6  and  C_7
REMARK    5  A    between atoms: C_7  and  N_8
REMARK    6  A    between atoms: C_16  and  C_17
REMARK    7  A    between atoms: C_23  and  C_24
REMARK    8  A    between atoms: C_23  and  C_25
REMARK                            x       y       z     vdW  Elec       q    Type
REMARK                         _______ _______ _______ _____ _____    ______ ____
ROOT
ATOM      1  C   UNL     1      -1.482  14.226  21.654  0.00  0.00    +0.000 C 
ATOM      2  C   UNL     1      -1.184  14.556  20.370  0.00  0.00    +0.000 C 
ATOM      3  N   UNL     1      -1.549  13.679  19.361  0.00  0.00    +0.000 N 
ATOM      4  C   UNL     1      -2.036  12.413  19.581  0.00  0.00    +0.000 C 
ATOM      5  N   UNL     1      -2.290  11.976  20.766  0.00  0.00    +0.000 NA
ATOM      6  C   UNL     1      -2.068  12.827  21.953  0.00  0.00    +0.000 C 
ATOM      7  C   UNL     1      -0.962  12.037  22.729  0.00  0.00    +0.000 C 
ATOM      8  H   UNL     1      -1.282  13.934  18.414  0.00  0.00    +0.000 HD
ENDROOT
BRANCH   6   9
ATOM      9  C   UNL     1      -3.430  12.877  22.674  0.00  0.00    +0.000 A 
ATOM     10  C   UNL     1      -3.592  12.407  23.992  0.00  0.00    +0.000 A 
ATOM     11  C   UNL     1      -4.841  12.439  24.618  0.00  0.00    +0.000 A 
ATOM     12  C   UNL     1      -5.941  12.930  23.930  0.00  0.00    +0.000 A 
ATOM     13  F   UNL     1      -7.135  12.964  24.535  0.00  0.00    +0.000 F 
ATOM     14  C   UNL     1      -5.822  13.374  22.622  0.00  0.00    +0.000 A 
ATOM     15  C   UNL     1      -4.576  13.335  21.992  0.00  0.00    +0.000 A 
ENDBRANCH   6   9
BRANCH   4  16
ATOM     16  C   UNL     1      -2.269  11.485  18.469  0.00  0.00    +0.000 A 
ATOM     17  N   UNL     1      -1.331  10.667  18.017  0.00  0.00    +0.000 NA
ATOM     18  C   UNL     1      -1.847   9.919  16.974  0.00  0.00    +0.000 A 
ATOM     19  C   UNL     1      -3.170  10.147  16.665  0.00  0.00    +0.000 A 
ATOM     20  S   UNL     1      -3.800  11.358  17.694  0.00  0.00    +0.000 S 
ENDBRANCH   4  16
BRANCH   1  21
ATOM     21  C   UNL     1      -1.181  15.124  22.827  0.00  0.00    +0.000 C 
ATOM     22  O   UNL     1      -0.175  15.091  23.523  0.00  0.00    +0.000 OA
BRANCH  21  24
ATOM     23  C   UNL     1      -2.700  16.050  24.377  0.00  0.00    +0.000 C 
ATOM     24  O   UNL     1      -2.209  15.977  23.048  0.00  0.00    +0.000 OA
ENDBRANCH  21  24
ENDBRANCH   1  21
BRANCH   2  25
ATOM     25  C   UNL     1      -0.356  15.767  19.933  0.00  0.00    +0.000 C 
BRANCH  25  26
ATOM     26  N   UNL     1       1.118  15.556  19.944  0.00  0.00    +0.000 NA
ATOM     27  C   UNL     1       1.784  16.520  20.878  0.00  0.00    +0.000 C 
ATOM     28  C   UNL     1       2.620  17.405  19.948  0.00  0.00    +0.000 C 
ATOM     29  C   UNL     1       3.152  16.361  18.995  0.00  0.00    +0.000 C 
ATOM     30  C   UNL     1       1.738  15.937  18.609  0.00  0.00    +0.000 C 
ATOM     31  C   UNL     1       1.279  17.316  18.084  0.00  0.00    +0.000 C 
ATOM     32  O   UNL     1       1.738  18.220  19.126  0.00  0.00    +0.000 OA
ENDBRANCH  25  26
ENDBRANCH   2  25
TORSDOF 6
ENDMDL
MODEL 8
REMARK VINA RESULT:      -6.3      2.696      3.460
REMARK  Name = 
REMARK  8 active torsions:
REMARK  status: ('A' for Active; 'I' for Inactive)
REMARK    1  A    between atoms: C_1  and  O_2
REMARK    2  A    between atoms: O_2  and  C_3
REMARK    3  A    between atoms: C_3  and  C_5
REMARK    4  A    between atoms: C_6  and  C_7
REMARK    5  A    between atoms: C_7  and  N_8
REMARK    6  A    between atoms: C_16  and  C_17
REMARK    7  A    between atoms: C_23  and  C_24
REMARK    8  A    between atoms: C_23  and  C_25
REMARK                            x       y       z     vdW  Elec       q    Type
REMARK                         _______ _______ _______ _____ _____    ______ ____
ROOT
ATOM      1  C   UNL     1      -0.708  13.594  20.712  0.00  0.00    +0.000 C 
ATOM      2  C   UNL     1      -0.507  13.947  19.416  0.00  0.00    +0.000 C 
ATOM      3  N   UNL     1      -1.163  13.231  18.427  0.00  0.00    +0.000 N 
ATOM      4  C   UNL     1      -1.867  12.073  18.655  0.00  0.00    +0.000 C 
ATOM      5  N   UNL     1      -2.058  11.612  19.843  0.00  0.00    +0.000 NA
ATOM      6  C   UNL     1      -1.525  12.320  21.025  0.00  0.00    +0.000 C 
ATOM      7  C   UNL     1      -0.517  11.276  21.612  0.00  0.00    +0.000 C 
ATOM      8  H   UNL     1      -0.967  13.494  17.465  0.00  0.00    +0.000 HD
ENDROOT
BRANCH   6   9
ATOM      9  C   UNL     1      -2.750  12.585  21.923  0.00  0.00    +0.000 A 
ATOM     10  C   UNL     1      -3.897  13.247  21.442  0.00  0.00    +0.000 A 
ATOM     11  C   UNL     1      -4.985  13.500  22.281  0.00  0.00    +0.000 A 
ATOM     12  C   UNL     1      -4.935  13.103  23.609  0.00  0.00    +0.000 A 
ATOM     13  F   UNL     1      -5.983  13.342  24.408  0.00  0.00    +0.000 F 
ATOM     14  C   UNL     1      -3.811  12.475  24.122  0.00  0.00    +0.000 A 
ATOM     15  C   UNL     1      -2.718  12.230  23.288  0.00  0.00    +0.000 A 
ENDBRANCH   6   9
BRANCH   4  16
ATOM     16  C   UNL     1      -2.417  11.288  17.544  0.00  0.00    +0.000 A 
ATOM     17  N   UNL     1      -1.724  10.342  16.930  0.00  0.00    +0.000 NA
ATOM     18  C   UNL     1      -2.505   9.782  15.935  0.00  0.00    +0.000 A 
ATOM     19  C   UNL     1      -3.785  10.278  15.823  0.00  0.00    +0.000 A 
ATOM     20  S   UNL     1      -4.029  11.509  16.983  0.00  0.00    +0.000 S 
ENDBRANCH   4  16
BRANCH   1  21
ATOM     21  C   UNL     1      -0.091  14.331  21.873  0.00  0.00    +0.000 C 
ATOM     22  O   UNL     1       1.018  14.130  22.350  0.00  0.00    +0.000 OA
BRANCH  21  24
ATOM     23  C   UNL     1      -0.963  15.427  23.772  0.00  0.00    +0.000 C 
ATOM     24  O   UNL     1      -0.954  15.252  22.364  0.00  0.00    +0.000 OA
ENDBRANCH  21  24
ENDBRANCH   1  21
BRANCH   2  25
ATOM     25  C   UNL     1       0.489  15.000  18.926  0.00  0.00    +0.000 C 
BRANCH  25  26
ATOM     26  N   UNL     1       0.114  16.409  19.231  0.00  0.00    +0.000 NA
ATOM     27  C   UNL     1      -0.265  17.138  17.979  0.00  0.00    +0.000 C 
ATOM     28  C   UNL     1       0.832  18.198  17.833  0.00  0.00    +0.000 C 
ATOM     29  C   UNL     1       0.977  18.631  19.273  0.00  0.00    +0.000 C 
ATOM     30  C   UNL     1       1.317  17.208  19.707  0.00  0.00    +0.000 C 
ATOM     31  C   UNL     1       2.563  17.045  18.810  0.00  0.00    +0.000 C 
ATOM     32  O   UNL     1       2.100  17.551  17.529  0.00  0.00    +0.000 OA
ENDBRANCH  25  26
ENDBRANCH   2  25
TORSDOF 6
ENDMDL
MODEL 9
REMARK VINA RESULT:      -6.2      3.263      4.318
REMARK  Name = 
REMARK  8 active torsions:
REMARK  status: ('A' for Active; 'I' for Inactive)
REMARK    1  A    between atoms: C_1  and  O_2
REMARK    2  A    between atoms: O_2  and  C_3
REMARK    3  A    between atoms: C_3  and  C_5
REMARK    4  A    between atoms: C_6  and  C_7
REMARK    5  A    between atoms: C_7  and  N_8
REMARK    6  A    between atoms: C_16  and  C_17
REMARK    7  A    between atoms: C_23  and  C_24
REMARK    8  A    between atoms: C_23  and  C_25
REMARK                            x       y       z     vdW  Elec       q    Type
REMARK                         _______ _______ _______ _____ _____    ______ ____
ROOT
ATOM      1  C   UNL     1      -1.360  14.114  21.429  0.00  0.00    +0.000 C 
ATOM      2  C   UNL     1      -1.091  14.450  20.140  0.00  0.00    +0.000 C 
ATOM      3  N   UNL     1      -1.488  13.581  19.135  0.00  0.00    +0.000 N 
ATOM      4  C   UNL     1      -1.977  12.317  19.360  0.00  0.00    +0.000 C 
ATOM      5  N   UNL     1      -2.204  11.874  20.549  0.00  0.00    +0.000 NA
ATOM      6  C   UNL     1      -1.947  12.718  21.734  0.00  0.00    +0.000 C 
ATOM      7  C   UNL     1      -0.827  11.916  22.477  0.00  0.00    +0.000 C 
ATOM      8  H   UNL     1      -1.243  13.841  18.183  0.00  0.00    +0.000 HD
ENDROOT
BRANCH   6   9
ATOM      9  C   UNL     1      -3.290  12.772  22.490  0.00  0.00    +0.000 A 
ATOM     10  C   UNL     1      -4.457  13.291  21.898  0.00  0.00    +0.000 A 
ATOM     11  C   UNL     1      -5.657  13.354  22.611  0.00  0.00    +0.000 A 
ATOM     12  C   UNL     1      -5.700  12.908  23.923  0.00  0.00    +0.000 A 
ATOM     13  F   UNL     1      -6.854  12.964  24.601  0.00  0.00    +0.000 F 
ATOM     14  C   UNL     1      -4.563  12.417  24.546  0.00  0.00    +0.000 A 
ATOM     15  C   UNL     1      -3.360  12.362  23.838  0.00  0.00    +0.000 A 
ENDBRANCH   6   9
BRANCH   4  16
ATOM     16  C   UNL     1      -2.244  11.398  18.249  0.00  0.00    +0.000 A 
ATOM     17  N   UNL     1      -1.354  10.512  17.830  0.00  0.00    +0.000 NA
ATOM     18  C   UNL     1      -1.892   9.792  16.778  0.00  0.00    +0.000 A 
ATOM     19  C   UNL     1      -3.186  10.109  16.430  0.00  0.00    +0.000 A 
ATOM     20  S   UNL     1      -3.758  11.371  17.431  0.00  0.00    +0.000 S 
ENDBRANCH   4  16
BRANCH   1  21
ATOM     21  C   UNL     1      -1.024  15.003  22.600  0.00  0.00    +0.000 C 
ATOM     22  O   UNL     1       0.032  15.015  23.218  0.00  0.00    +0.000 OA
BRANCH  21  24
ATOM     23  C   UNL     1      -2.354  15.957  24.299  0.00  0.00    +0.000 C 
ATOM     24  O   UNL     1      -2.079  15.789  22.917  0.00  0.00    +0.000 OA
ENDBRANCH  21  24
ENDBRANCH   1  21
BRANCH   2  25
ATOM     25  C   UNL     1      -0.268  15.658  19.690  0.00  0.00    +0.000 C 
BRANCH  25  26
ATOM     26  N   UNL     1       0.904  15.334  18.830  0.00  0.00    +0.000 NA
ATOM     27  C   UNL     1       1.963  14.631  19.622  0.00  0.00    +0.000 C 
ATOM     28  C   UNL     1       3.129  15.626  19.629  0.00  0.00    +0.000 C 
ATOM     29  C   UNL     1       3.067  16.119  18.202  0.00  0.00    +0.000 C 
ATOM     30  C   UNL     1       1.630  16.596  18.389  0.00  0.00    +0.000 C 
ATOM     31  C   UNL     1       1.920  17.578  19.545  0.00  0.00    +0.000 C 
ATOM     32  O   UNL     1       2.771  16.792  20.423  0.00  0.00    +0.000 OA
ENDBRANCH  25  26
ENDBRANCH   2  25
TORSDOF 6
ENDMDL
