MODEL 1
REMARK VINA RESULT:      -7.7      0.000      0.000
REMARK  Name = 
REMARK  3 active torsions:
REMARK  status: ('A' for Active; 'I' for Inactive)
REMARK    1  A    between atoms: C_1  and  C_2
REMARK    2  A    between atoms: C_6  and  C_7
REMARK    3  A    between atoms: C_13  and  C_15
REMARK                            x       y       z     vdW  Elec       q    Type
REMARK                         _______ _______ _______ _____ _____    ______ ____
ROOT
ATOM      1  C   UNL     1      -0.099  15.167  18.689  0.00  0.00    +0.000 C 
ATOM      2  C   UNL     1      -0.211  13.687  18.931  0.00  0.00    +0.000 A 
ATOM      3  C   UNL     1       0.564  13.064  19.834  0.00  0.00    +0.000 A 
ATOM      4  N   UNL     1       0.440  11.694  19.989  0.00  0.00    +0.000 N 
ATOM      5  N   UNL     1       1.125  10.870  20.838  0.00  0.00    +0.000 NA
ATOM      6  C   UNL     1       0.640   9.638  20.574  0.00  0.00    +0.000 A 
ATOM      7  C   UNL     1      -0.370   9.693  19.594  0.00  0.00    +0.000 A 
ATOM      8  C   UNL     1      -0.459  11.009  19.218  0.00  0.00    +0.000 A 
ATOM      9  C   UNL     1      -1.276  11.711  18.246  0.00  0.00    +0.000 A 
ATOM     10  N   UNL     1      -2.185  11.061  17.430  0.00  0.00    +0.000 N 
ATOM     11  C   UNL     1      -2.094   9.669  17.016  0.00  0.00    +0.000 C 
ATOM     12  C   UNL     1      -2.745   9.641  15.647  0.00  0.00    +0.000 C 
ATOM     13  C   UNL     1      -3.838  10.684  15.771  0.00  0.00    +0.000 C 
ATOM     14  C   UNL     1      -3.230  11.753  16.682  0.00  0.00    +0.000 C 
ATOM     15  N   UNL     1      -1.144  13.019  18.153  0.00  0.00    +0.000 NA
ENDROOT
BRANCH   6  16
ATOM     16  C   UNL     1       1.136   8.369  21.134  0.00  0.00    +0.000 C 
ATOM     17  O   UNL     1       1.083   8.191  22.353  0.00  0.00    +0.000 OA
ATOM     18  N   UNL     1       1.665   7.389  20.293  0.00  0.00    +0.000 N 
ATOM     19  C   UNL     1       2.087   6.139  20.936  0.00  0.00    +0.000 C 
ATOM     20  C   UNL     1       2.136   4.962  19.955  0.00  0.00    +0.000 C 
ATOM     21  N   UNL     1       2.875   5.322  18.746  0.00  0.00    +0.000 N 
ATOM     22  C   UNL     1       3.841   4.446  18.247  0.00  0.00    +0.000 C 
ATOM     23  O   UNL     1       4.002   3.337  18.759  0.00  0.00    +0.000 OA
ATOM     24  C   UNL     1       2.360   6.530  18.083  0.00  0.00    +0.000 C 
ATOM     25  C   UNL     1       2.378   7.717  19.051  0.00  0.00    +0.000 C 
BRANCH  22  26
ATOM     26  C   UNL     1       4.639   4.857  17.104  0.00  0.00    +0.000 A 
ATOM     27  C   UNL     1       4.869   4.219  15.899  0.00  0.00    +0.000 A 
ATOM     28  C   UNL     1       5.694   5.077  15.131  0.00  0.00    +0.000 A 
ATOM     29  C   UNL     1       5.964   6.161  15.930  0.00  0.00    +0.000 A 
ATOM     30  O   UNL     1       5.368   6.016  17.140  0.00  0.00    +0.000 OA
ENDBRANCH  22  26
ENDBRANCH   6  16
TORSDOF 2
ENDMDL
MODEL 2
REMARK VINA RESULT:      -7.6      2.397      8.525
REMARK  Name = 
REMARK  3 active torsions:
REMARK  status: ('A' for Active; 'I' for Inactive)
REMARK    1  A    between atoms: C_1  and  C_2
REMARK    2  A    between atoms: C_6  and  C_7
REMARK    3  A    between atoms: C_13  and  C_15
REMARK                            x       y       z     vdW  Elec       q    Type
REMARK                         _______ _______ _______ _____ _____    ______ ____
ROOT
ATOM      1  C   UNL     1       1.507   1.778  18.788  0.00  0.00    +0.000 C 
ATOM      2  C   UNL     1       1.862   3.216  19.044  0.00  0.00    +0.000 A 
ATOM      3  C   UNL     1       1.215   3.944  19.971  0.00  0.00    +0.000 A 
ATOM      4  N   UNL     1       1.562   5.273  20.139  0.00  0.00    +0.000 N 
ATOM      5  N   UNL     1       1.036   6.184  21.012  0.00  0.00    +0.000 NA
ATOM      6  C   UNL     1       1.708   7.325  20.752  0.00  0.00    +0.000 A 
ATOM      7  C   UNL     1       2.677   7.122  19.749  0.00  0.00    +0.000 A 
ATOM      8  C   UNL     1       2.544   5.815  19.356  0.00  0.00    +0.000 A 
ATOM      9  C   UNL     1       3.218   5.004  18.359  0.00  0.00    +0.000 A 
ATOM     10  N   UNL     1       4.205   5.511  17.531  0.00  0.00    +0.000 N 
ATOM     11  C   UNL     1       4.331   6.906  17.135  0.00  0.00    +0.000 C 
ATOM     12  C   UNL     1       4.951   6.849  15.752  0.00  0.00    +0.000 C 
ATOM     13  C   UNL     1       5.864   5.641  15.842  0.00  0.00    +0.000 C 
ATOM     14  C   UNL     1       5.109   4.671  16.753  0.00  0.00    +0.000 C 
ATOM     15  N   UNL     1       2.874   3.737  18.254  0.00  0.00    +0.000 NA
ENDROOT
BRANCH   6  16
ATOM     16  C   UNL     1       1.434   8.649  21.336  0.00  0.00    +0.000 C 
ATOM     17  O   UNL     1       1.902   8.923  22.444  0.00  0.00    +0.000 OA
ATOM     18  N   UNL     1       0.649   9.574  20.646  0.00  0.00    +0.000 N 
ATOM     19  C   UNL     1       0.474  10.883  21.284  0.00  0.00    +0.000 C 
ATOM     20  C   UNL     1       0.092  11.978  20.282  0.00  0.00    +0.000 C 
ATOM     21  N   UNL     1      -1.018  11.544  19.434  0.00  0.00    +0.000 N 
ATOM     22  C   UNL     1      -2.096  12.406  19.222  0.00  0.00    +0.000 C 
ATOM     23  O   UNL     1      -2.071  13.557  19.661  0.00  0.00    +0.000 OA
ATOM     24  C   UNL     1      -0.762  10.272  18.741  0.00  0.00    +0.000 C 
ATOM     25  C   UNL     1      -0.446   9.168  19.755  0.00  0.00    +0.000 C 
BRANCH  22  26
ATOM     26  C   UNL     1      -3.237  11.928  18.461  0.00  0.00    +0.000 A 
ATOM     27  C   UNL     1      -4.535  11.666  18.865  0.00  0.00    +0.000 A 
ATOM     28  C   UNL     1      -5.248  11.254  17.713  0.00  0.00    +0.000 A 
ATOM     29  C   UNL     1      -4.335  11.234  16.686  0.00  0.00    +0.000 A 
ATOM     30  O   UNL     1      -3.109  11.596  17.138  0.00  0.00    +0.000 OA
ENDBRANCH  22  26
ENDBRANCH   6  16
TORSDOF 2
ENDMDL
MODEL 3
REMARK VINA RESULT:      -7.6      2.846      8.746
REMARK  Name = 
REMARK  3 active torsions:
REMARK  status: ('A' for Active; 'I' for Inactive)
REMARK    1  A    between atoms: C_1  and  C_2
REMARK    2  A    between atoms: C_6  and  C_7
REMARK    3  A    between atoms: C_13  and  C_15
REMARK                            x       y       z     vdW  Elec       q    Type
REMARK                         _______ _______ _______ _____ _____    ______ ____
ROOT
ATOM      1  C   UNL     1       4.849   6.091  16.150  0.00  0.00    +0.000 C 
ATOM      2  C   UNL     1       3.913   6.390  17.288  0.00  0.00    +0.000 A 
ATOM      3  C   UNL     1       3.557   7.649  17.590  0.00  0.00    +0.000 A 
ATOM      4  N   UNL     1       2.720   7.867  18.670  0.00  0.00    +0.000 N 
ATOM      5  N   UNL     1       2.242   9.055  19.149  0.00  0.00    +0.000 NA
ATOM      6  C   UNL     1       1.496   8.710  20.220  0.00  0.00    +0.000 A 
ATOM      7  C   UNL     1       1.473   7.311  20.388  0.00  0.00    +0.000 A 
ATOM      8  C   UNL     1       2.282   6.800  19.407  0.00  0.00    +0.000 A 
ATOM      9  C   UNL     1       2.691   5.451  19.058  0.00  0.00    +0.000 A 
ATOM     10  N   UNL     1       2.290   4.342  19.782  0.00  0.00    +0.000 N 
ATOM     11  C   UNL     1       1.922   4.349  21.190  0.00  0.00    +0.000 C 
ATOM     12  C   UNL     1       2.320   2.974  21.689  0.00  0.00    +0.000 C 
ATOM     13  C   UNL     1       2.059   2.089  20.485  0.00  0.00    +0.000 C 
ATOM     14  C   UNL     1       2.416   2.975  19.289  0.00  0.00    +0.000 C 
ATOM     15  N   UNL     1       3.466   5.291  18.005  0.00  0.00    +0.000 NA
ENDROOT
BRANCH   6  16
ATOM     16  C   UNL     1       0.857   9.635  21.170  0.00  0.00    +0.000 C 
ATOM     17  O   UNL     1       1.251   9.661  22.339  0.00  0.00    +0.000 OA
ATOM     18  N   UNL     1      -0.185  10.465  20.752  0.00  0.00    +0.000 N 
ATOM     19  C   UNL     1      -0.724  11.389  21.757  0.00  0.00    +0.000 C 
ATOM     20  C   UNL     1      -1.440  12.588  21.126  0.00  0.00    +0.000 C 
ATOM     21  N   UNL     1      -2.392  12.150  20.107  0.00  0.00    +0.000 N 
ATOM     22  C   UNL     1      -3.683  12.683  20.100  0.00  0.00    +0.000 C 
ATOM     23  O   UNL     1      -3.989  13.587  20.880  0.00  0.00    +0.000 OA
ATOM     24  C   UNL     1      -1.789  11.300  19.069  0.00  0.00    +0.000 C 
ATOM     25  C   UNL     1      -1.133  10.070  19.703  0.00  0.00    +0.000 C 
BRANCH  22  26
ATOM     26  C   UNL     1      -4.651  12.168  19.147  0.00  0.00    +0.000 A 
ATOM     27  C   UNL     1      -5.923  11.665  19.349  0.00  0.00    +0.000 A 
ATOM     28  C   UNL     1      -6.442  11.334  18.073  0.00  0.00    +0.000 A 
ATOM     29  C   UNL     1      -5.438  11.601  17.174  0.00  0.00    +0.000 A 
ATOM     30  O   UNL     1      -4.338  12.063  17.818  0.00  0.00    +0.000 OA
ENDBRANCH  22  26
ENDBRANCH   6  16
TORSDOF 2
ENDMDL
MODEL 4
REMARK VINA RESULT:      -7.4      3.428      4.628
REMARK  Name = 
REMARK  3 active torsions:
REMARK  status: ('A' for Active; 'I' for Inactive)
REMARK    1  A    between atoms: C_1  and  C_2
REMARK    2  A    between atoms: C_6  and  C_7
REMARK    3  A    between atoms: C_13  and  C_15
REMARK                            x       y       z     vdW  Elec       q    Type
REMARK                         _______ _______ _______ _____ _____    ______ ____
ROOT
ATOM      1  C   UNL     1      -1.926  14.785  24.938  0.00  0.00    +0.000 C 
ATOM      2  C   UNL     1      -1.960  13.947  23.690  0.00  0.00    +0.000 A 
ATOM      3  C   UNL     1      -0.830  13.543  23.087  0.00  0.00    +0.000 A 
ATOM      4  N   UNL     1      -0.922  12.802  21.921  0.00  0.00    +0.000 N 
ATOM      5  N   UNL     1       0.090  12.298  21.153  0.00  0.00    +0.000 NA
ATOM      6  C   UNL     1      -0.539  11.683  20.130  0.00  0.00    +0.000 A 
ATOM      7  C   UNL     1      -1.939  11.766  20.276  0.00  0.00    +0.000 A 
ATOM      8  C   UNL     1      -2.155  12.507  21.409  0.00  0.00    +0.000 A 
ATOM      9  C   UNL     1      -3.358  12.965  22.081  0.00  0.00    +0.000 A 
ATOM     10  N   UNL     1      -4.626  12.709  21.592  0.00  0.00    +0.000 N 
ATOM     11  C   UNL     1      -4.955  12.479  20.193  0.00  0.00    +0.000 C 
ATOM     12  C   UNL     1      -6.368  13.011  20.047  0.00  0.00    +0.000 C 
ATOM     13  C   UNL     1      -6.990  12.691  21.393  0.00  0.00    +0.000 C 
ATOM     14  C   UNL     1      -5.840  12.873  22.386  0.00  0.00    +0.000 C 
ATOM     15  N   UNL     1      -3.221  13.643  23.202  0.00  0.00    +0.000 NA
ENDROOT
BRANCH   6  16
ATOM     16  C   UNL     1       0.102  11.082  18.948  0.00  0.00    +0.000 C 
ATOM     17  O   UNL     1      -0.027  11.632  17.851  0.00  0.00    +0.000 OA
ATOM     18  N   UNL     1       0.838   9.903  19.071  0.00  0.00    +0.000 N 
ATOM     19  C   UNL     1       1.482   9.408  17.849  0.00  0.00    +0.000 C 
ATOM     20  C   UNL     1       2.663   8.476  18.145  0.00  0.00    +0.000 C 
ATOM     21  N   UNL     1       2.284   7.446  19.112  0.00  0.00    +0.000 N 
ATOM     22  C   UNL     1       2.623   6.114  18.863  0.00  0.00    +0.000 C 
ATOM     23  O   UNL     1       3.320   5.818  17.891  0.00  0.00    +0.000 OA
ATOM     24  C   UNL     1       1.728   7.991  20.359  0.00  0.00    +0.000 C 
ATOM     25  C   UNL     1       0.508   8.868  20.060  0.00  0.00    +0.000 C 
BRANCH  22  26
ATOM     26  C   UNL     1       2.156   5.088  19.779  0.00  0.00    +0.000 A 
ATOM     27  C   UNL     1       0.989   4.344  19.768  0.00  0.00    +0.000 A 
ATOM     28  C   UNL     1       1.054   3.462  20.874  0.00  0.00    +0.000 A 
ATOM     29  C   UNL     1       2.227   3.755  21.526  0.00  0.00    +0.000 A 
ATOM     30  O   UNL     1       2.877   4.766  20.898  0.00  0.00    +0.000 OA
ENDBRANCH  22  26
ENDBRANCH   6  16
TORSDOF 2
ENDMDL
MODEL 5
REMARK VINA RESULT:      -7.1      2.287      3.320
REMARK  Name = 
REMARK  3 active torsions:
REMARK  status: ('A' for Active; 'I' for Inactive)
REMARK    1  A    between atoms: C_1  and  C_2
REMARK    2  A    between atoms: C_6  and  C_7
REMARK    3  A    between atoms: C_13  and  C_15
REMARK                            x       y       z     vdW  Elec       q    Type
REMARK                         _______ _______ _______ _____ _____    ______ ____
ROOT
ATOM      1  C   UNL     1      -2.201  13.573  22.837  0.00  0.00    +0.000 C 
ATOM      2  C   UNL     1      -1.760  12.728  21.675  0.00  0.00    +0.000 A 
ATOM      3  C   UNL     1      -0.482  12.337  21.538  0.00  0.00    +0.000 A 
ATOM      4  N   UNL     1      -0.127  11.588  20.430  0.00  0.00    +0.000 N 
ATOM      5  N   UNL     1       1.104  11.094  20.097  0.00  0.00    +0.000 NA
ATOM      6  C   UNL     1       0.906  10.465  18.919  0.00  0.00    +0.000 A 
ATOM      7  C   UNL     1      -0.448  10.529  18.535  0.00  0.00    +0.000 A 
ATOM      8  C   UNL     1      -1.078  11.273  19.499  0.00  0.00    +0.000 A 
ATOM      9  C   UNL     1      -2.449  11.718  19.672  0.00  0.00    +0.000 A 
ATOM     10  N   UNL     1      -3.443  11.441  18.750  0.00  0.00    +0.000 N 
ATOM     11  C   UNL     1      -3.226  11.199  17.332  0.00  0.00    +0.000 C 
ATOM     12  C   UNL     1      -4.490  11.710  16.666  0.00  0.00    +0.000 C 
ATOM     13  C   UNL     1      -5.563  11.389  17.688  0.00  0.00    +0.000 C 
ATOM     14  C   UNL     1      -4.866  11.592  19.035  0.00  0.00    +0.000 C 
ATOM     15  N   UNL     1      -2.746  12.404  20.757  0.00  0.00    +0.000 NA
ENDROOT
BRANCH   6  16
ATOM     16  C   UNL     1       1.947   9.866  18.067  0.00  0.00    +0.000 C 
ATOM     17  O   UNL     1       2.408  10.526  17.132  0.00  0.00    +0.000 OA
ATOM     18  N   UNL     1       2.396   8.568  18.312  0.00  0.00    +0.000 N 
ATOM     19  C   UNL     1       3.471   8.076  17.442  0.00  0.00    +0.000 C 
ATOM     20  C   UNL     1       4.259   6.925  18.076  0.00  0.00    +0.000 C 
ATOM     21  N   UNL     1       3.355   5.898  18.594  0.00  0.00    +0.000 N 
ATOM     22  C   UNL     1       3.611   4.554  18.310  0.00  0.00    +0.000 C 
ATOM     23  O   UNL     1       4.639   4.226  17.716  0.00  0.00    +0.000 OA
ATOM     24  C   UNL     1       2.351   6.420  19.533  0.00  0.00    +0.000 C 
ATOM     25  C   UNL     1       1.524   7.525  18.868  0.00  0.00    +0.000 C 
BRANCH  22  26
ATOM     26  C   UNL     1       2.653   3.551  18.743  0.00  0.00    +0.000 A 
ATOM     27  C   UNL     1       2.669   2.719  19.848  0.00  0.00    +0.000 A 
ATOM     28  C   UNL     1       1.475   1.959  19.808  0.00  0.00    +0.000 A 
ATOM     29  C   UNL     1       0.826   2.331  18.655  0.00  0.00    +0.000 A 
ATOM     30  O   UNL     1       1.552   3.259  17.983  0.00  0.00    +0.000 OA
ENDBRANCH  22  26
ENDBRANCH   6  16
TORSDOF 2
ENDMDL
MODEL 6
REMARK VINA RESULT:      -7.0      3.035      9.200
REMARK  Name = 
REMARK  3 active torsions:
REMARK  status: ('A' for Active; 'I' for Inactive)
REMARK    1  A    between atoms: C_1  and  C_2
REMARK    2  A    between atoms: C_6  and  C_7
REMARK    3  A    between atoms: C_13  and  C_15
REMARK                            x       y       z     vdW  Elec       q    Type
REMARK                         _______ _______ _______ _____ _____    ______ ____
ROOT
ATOM      1  C   UNL     1       2.312   3.284  21.355  0.00  0.00    +0.000 C 
ATOM      2  C   UNL     1       2.537   4.523  20.533  0.00  0.00    +0.000 A 
ATOM      3  C   UNL     1       1.798   5.630  20.717  0.00  0.00    +0.000 A 
ATOM      4  N   UNL     1       2.028   6.729  19.907  0.00  0.00    +0.000 N 
ATOM      5  N   UNL     1       1.397   7.941  19.921  0.00  0.00    +0.000 NA
ATOM      6  C   UNL     1       1.981   8.637  18.924  0.00  0.00    +0.000 A 
ATOM      7  C   UNL     1       3.001   7.880  18.312  0.00  0.00    +0.000 A 
ATOM      8  C   UNL     1       2.991   6.660  18.938  0.00  0.00    +0.000 A 
ATOM      9  C   UNL     1       3.767   5.446  18.760  0.00  0.00    +0.000 A 
ATOM     10  N   UNL     1       4.738   5.321  17.783  0.00  0.00    +0.000 N 
ATOM     11  C   UNL     1       4.764   6.057  16.528  0.00  0.00    +0.000 C 
ATOM     12  C   UNL     1       5.439   5.113  15.552  0.00  0.00    +0.000 C 
ATOM     13  C   UNL     1       6.444   4.386  16.425  0.00  0.00    +0.000 C 
ATOM     14  C   UNL     1       5.737   4.257  17.776  0.00  0.00    +0.000 C 
ATOM     15  N   UNL     1       3.532   4.435  19.572  0.00  0.00    +0.000 NA
ENDROOT
BRANCH   6  16
ATOM     16  C   UNL     1       1.578   9.967  18.437  0.00  0.00    +0.000 C 
ATOM     17  O   UNL     1       2.240  10.505  17.546  0.00  0.00    +0.000 OA
ATOM     18  N   UNL     1       0.466  10.608  18.984  0.00  0.00    +0.000 N 
ATOM     19  C   UNL     1       0.112  11.907  18.400  0.00  0.00    +0.000 C 
ATOM     20  C   UNL     1      -1.354  12.281  18.646  0.00  0.00    +0.000 C 
ATOM     21  N   UNL     1      -1.705  12.114  20.056  0.00  0.00    +0.000 N 
ATOM     22  C   UNL     1      -2.406  13.128  20.712  0.00  0.00    +0.000 C 
ATOM     23  O   UNL     1      -2.814  14.109  20.088  0.00  0.00    +0.000 OA
ATOM     24  C   UNL     1      -1.417  10.769  20.575  0.00  0.00    +0.000 C 
ATOM     25  C   UNL     1       0.065  10.430  20.386  0.00  0.00    +0.000 C 
BRANCH  22  26
ATOM     26  C   UNL     1      -2.661  12.997  22.136  0.00  0.00    +0.000 A 
ATOM     27  C   UNL     1      -1.915  13.422  23.221  0.00  0.00    +0.000 A 
ATOM     28  C   UNL     1      -2.640  13.065  24.383  0.00  0.00    +0.000 A 
ATOM     29  C   UNL     1      -3.757  12.396  23.945  0.00  0.00    +0.000 A 
ATOM     30  O   UNL     1      -3.756  12.311  22.592  0.00  0.00    +0.000 OA
ENDBRANCH  22  26
ENDBRANCH   6  16
TORSDOF 2
ENDMDL
MODEL 7
REMARK VINA RESULT:      -7.0      2.614      3.389
REMARK  Name = 
REMARK  3 active torsions:
REMARK  status: ('A' for Active; 'I' for Inactive)
REMARK    1  A    between atoms: C_1  and  C_2
REMARK    2  A    between atoms: C_6  and  C_7
REMARK    3  A    between atoms: C_13  and  C_15
REMARK                            x       y       z     vdW  Elec       q    Type
REMARK                         _______ _______ _______ _____ _____    ______ ____
ROOT
ATOM      1  C   UNL     1       1.627  14.446  18.116  0.00  0.00    +0.000 C 
ATOM      2  C   UNL     1       1.354  13.272  19.014  0.00  0.00    +0.000 A 
ATOM      3  C   UNL     1       1.735  12.029  18.679  0.00  0.00    +0.000 A 
ATOM      4  N   UNL     1       1.426  10.982  19.530  0.00  0.00    +0.000 N 
ATOM      5  N   UNL     1       1.712   9.653  19.381  0.00  0.00    +0.000 NA
ATOM      6  C   UNL     1       1.173   9.069  20.472  0.00  0.00    +0.000 A 
ATOM      7  C   UNL     1       0.586  10.030  21.319  0.00  0.00    +0.000 A 
ATOM      8  C   UNL     1       0.735  11.235  20.683  0.00  0.00    +0.000 A 
ATOM      9  C   UNL     1       0.331  12.590  21.014  0.00  0.00    +0.000 A 
ATOM     10  N   UNL     1      -0.384  12.894  22.158  0.00  0.00    +0.000 N 
ATOM     11  C   UNL     1      -1.269  11.978  22.861  0.00  0.00    +0.000 C 
ATOM     12  C   UNL     1      -2.332  12.874  23.469  0.00  0.00    +0.000 C 
ATOM     13  C   UNL     1      -1.558  14.135  23.804  0.00  0.00    +0.000 C 
ATOM     14  C   UNL     1      -0.530  14.251  22.676  0.00  0.00    +0.000 C 
ATOM     15  N   UNL     1       0.672  13.558  20.187  0.00  0.00    +0.000 NA
ENDROOT
BRANCH   6  16
ATOM     16  C   UNL     1       1.095   7.623  20.735  0.00  0.00    +0.000 C 
ATOM     17  O   UNL     1       0.427   7.223  21.693  0.00  0.00    +0.000 OA
ATOM     18  N   UNL     1       1.773   6.720  19.915  0.00  0.00    +0.000 N 
ATOM     19  C   UNL     1       1.594   5.297  20.225  0.00  0.00    +0.000 C 
ATOM     20  C   UNL     1       1.895   4.393  19.025  0.00  0.00    +0.000 C 
ATOM     21  N   UNL     1       3.178   4.743  18.417  0.00  0.00    +0.000 N 
ATOM     22  C   UNL     1       4.086   3.729  18.101  0.00  0.00    +0.000 C 
ATOM     23  O   UNL     1       3.772   2.545  18.239  0.00  0.00    +0.000 OA
ATOM     24  C   UNL     1       3.280   6.160  18.038  0.00  0.00    +0.000 C 
ATOM     25  C   UNL     1       3.044   7.056  19.258  0.00  0.00    +0.000 C 
BRANCH  22  26
ATOM     26  C   UNL     1       5.396   4.094  17.591  0.00  0.00    +0.000 A 
ATOM     27  C   UNL     1       5.850   4.203  16.289  0.00  0.00    +0.000 A 
ATOM     28  C   UNL     1       7.200   4.624  16.358  0.00  0.00    +0.000 A 
ATOM     29  C   UNL     1       7.509   4.694  17.695  0.00  0.00    +0.000 A 
ATOM     30  O   UNL     1       6.439   4.333  18.446  0.00  0.00    +0.000 OA
ENDBRANCH  22  26
ENDBRANCH   6  16
TORSDOF 2
ENDMDL
MODEL 8
REMARK VINA RESULT:      -6.8      3.138      8.640
REMARK  Name = 
REMARK  3 active torsions:
REMARK  status: ('A' for Active; 'I' for Inactive)
REMARK    1  A    between atoms: C_1  and  C_2
REMARK    2  A    between atoms: C_6  and  C_7
REMARK    3  A    between atoms: C_13  and  C_15
REMARK                            x       y       z     vdW  Elec       q    Type
REMARK                         _______ _______ _______ _____ _____    ______ ____
ROOT
ATOM      1  C   UNL     1       6.879   5.980  17.106  0.00  0.00    +0.000 C 
ATOM      2  C   UNL     1       5.469   6.331  17.491  0.00  0.00    +0.000 A 
ATOM      3  C   UNL     1       4.906   7.490  17.109  0.00  0.00    +0.000 A 
ATOM      4  N   UNL     1       3.616   7.774  17.522  0.00  0.00    +0.000 N 
ATOM      5  N   UNL     1       2.864   8.884  17.254  0.00  0.00    +0.000 NA
ATOM      6  C   UNL     1       1.703   8.669  17.907  0.00  0.00    +0.000 A 
ATOM      7  C   UNL     1       1.711   7.414  18.549  0.00  0.00    +0.000 A 
ATOM      8  C   UNL     1       2.950   6.878  18.312  0.00  0.00    +0.000 A 
ATOM      9  C   UNL     1       3.589   5.638  18.713  0.00  0.00    +0.000 A 
ATOM     10  N   UNL     1       2.964   4.708  19.526  0.00  0.00    +0.000 N 
ATOM     11  C   UNL     1       1.922   5.009  20.495  0.00  0.00    +0.000 C 
ATOM     12  C   UNL     1       2.115   3.976  21.589  0.00  0.00    +0.000 C 
ATOM     13  C   UNL     1       2.588   2.757  20.820  0.00  0.00    +0.000 C 
ATOM     14  C   UNL     1       3.438   3.338  19.688  0.00  0.00    +0.000 C 
ATOM     15  N   UNL     1       4.807   5.397  18.273  0.00  0.00    +0.000 NA
ENDROOT
BRANCH   6  16
ATOM     16  C   UNL     1       0.591   9.625  18.045  0.00  0.00    +0.000 C 
ATOM     17  O   UNL     1      -0.536   9.290  17.673  0.00  0.00    +0.000 OA
ATOM     18  N   UNL     1       0.816  10.893  18.581  0.00  0.00    +0.000 N 
ATOM     19  C   UNL     1      -0.361  11.757  18.725  0.00  0.00    +0.000 C 
ATOM     20  C   UNL     1      -0.156  12.858  19.771  0.00  0.00    +0.000 C 
ATOM     21  N   UNL     1       1.108  13.559  19.550  0.00  0.00    +0.000 N 
ATOM     22  C   UNL     1       1.132  14.955  19.574  0.00  0.00    +0.000 C 
ATOM     23  O   UNL     1       0.121  15.591  19.878  0.00  0.00    +0.000 OA
ATOM     24  C   UNL     1       2.274  12.663  19.504  0.00  0.00    +0.000 C 
ATOM     25  C   UNL     1       2.089  11.606  18.410  0.00  0.00    +0.000 C 
BRANCH  22  26
ATOM     26  C   UNL     1       2.371  15.642  19.254  0.00  0.00    +0.000 A 
ATOM     27  C   UNL     1       2.930  15.951  18.027  0.00  0.00    +0.000 A 
ATOM     28  C   UNL     1       4.130  16.656  18.288  0.00  0.00    +0.000 A 
ATOM     29  C   UNL     1       4.263  16.688  19.655  0.00  0.00    +0.000 A 
ATOM     30  O   UNL     1       3.228  16.040  20.245  0.00  0.00    +0.000 OA
ENDBRANCH  22  26
ENDBRANCH   6  16
TORSDOF 2
ENDMDL
MODEL 9
REMARK VINA RESULT:      -6.6      6.067      9.815
REMARK  Name = 
REMARK  3 active torsions:
REMARK  status: ('A' for Active; 'I' for Inactive)
REMARK    1  A    between atoms: C_1  and  C_2
REMARK    2  A    between atoms: C_6  and  C_7
REMARK    3  A    between atoms: C_13  and  C_15
REMARK                            x       y       z     vdW  Elec       q    Type
REMARK                         _______ _______ _______ _____ _____    ______ ____
ROOT
ATOM      1  C   UNL     1      10.384  14.232  18.104  0.00  0.00    +0.000 C 
ATOM      2  C   UNL     1       9.031  14.473  18.714  0.00  0.00    +0.000 A 
ATOM      3  C   UNL     1       7.921  14.528  17.959  0.00  0.00    +0.000 A 
ATOM      4  N   UNL     1       6.708  14.787  18.572  0.00  0.00    +0.000 N 
ATOM      5  N   UNL     1       5.471  14.889  17.998  0.00  0.00    +0.000 NA
ATOM      6  C   UNL     1       4.645  15.172  19.027  0.00  0.00    +0.000 A 
ATOM      7  C   UNL     1       5.353  15.209  20.245  0.00  0.00    +0.000 A 
ATOM      8  C   UNL     1       6.667  14.989  19.924  0.00  0.00    +0.000 A 
ATOM      9  C   UNL     1       7.886  14.930  20.711  0.00  0.00    +0.000 A 
ATOM     10  N   UNL     1       7.900  15.146  22.078  0.00  0.00    +0.000 N 
ATOM     11  C   UNL     1       6.932  15.950  22.809  0.00  0.00    +0.000 C 
ATOM     12  C   UNL     1       7.719  16.515  23.976  0.00  0.00    +0.000 C 
ATOM     13  C   UNL     1       8.693  15.398  24.299  0.00  0.00    +0.000 C 
ATOM     14  C   UNL     1       9.026  14.790  22.934  0.00  0.00    +0.000 C 
ATOM     15  N   UNL     1       9.013  14.653  20.088  0.00  0.00    +0.000 NA
ENDROOT
BRANCH   6  16
ATOM     16  C   UNL     1       3.214  15.504  18.929  0.00  0.00    +0.000 C 
ATOM     17  O   UNL     1       2.884  16.666  18.681  0.00  0.00    +0.000 OA
ATOM     18  N   UNL     1       2.248  14.515  19.121  0.00  0.00    +0.000 N 
ATOM     19  C   UNL     1       0.850  14.930  18.953  0.00  0.00    +0.000 C 
ATOM     20  C   UNL     1      -0.079  13.750  18.646  0.00  0.00    +0.000 C 
ATOM     21  N   UNL     1       0.138  12.656  19.591  0.00  0.00    +0.000 N 
ATOM     22  C   UNL     1      -0.963  12.038  20.188  0.00  0.00    +0.000 C 
ATOM     23  O   UNL     1      -2.108  12.341  19.850  0.00  0.00    +0.000 OA
ATOM     24  C   UNL     1       1.538  12.211  19.660  0.00  0.00    +0.000 C 
ATOM     25  C   UNL     1       2.451  13.382  20.034  0.00  0.00    +0.000 C 
BRANCH  22  26
ATOM     26  C   UNL     1      -0.734  11.021  21.200  0.00  0.00    +0.000 A 
ATOM     27  C   UNL     1      -0.714  11.121  22.580  0.00  0.00    +0.000 A 
ATOM     28  C   UNL     1      -0.478   9.819  23.083  0.00  0.00    +0.000 A 
ATOM     29  C   UNL     1      -0.313   9.011  21.985  0.00  0.00    +0.000 A 
ATOM     30  O   UNL     1      -0.421   9.736  20.844  0.00  0.00    +0.000 OA
ENDBRANCH  22  26
ENDBRANCH   6  16
TORSDOF 2
ENDMDL
