MODEL 1
REMARK VINA RESULT:      -7.9      0.000      0.000
REMARK  Name = 
REMARK  5 active torsions:
REMARK  status: ('A' for Active; 'I' for Inactive)
REMARK    1  A    between atoms: C_2  and  C_11
REMARK    2  A    between atoms: N_3  and  C_4
REMARK    3  A    between atoms: C_4  and  C_5
REMARK    4  A    between atoms: C_15  and  C_17
REMARK    5  A    between atoms: C_17  and  C_18
REMARK                            x       y       z     vdW  Elec       q    Type
REMARK                         _______ _______ _______ _____ _____    ______ ____
ROOT
ATOM      1  C   UNL     1       3.446   4.542  18.532  0.00  0.00    +0.000 C 
ATOM      2  C   UNL     1       4.725   3.749  18.844  0.00  0.00    +0.000 C 
ATOM      3  C   UNL     1       5.946   4.653  18.950  0.00  0.00    +0.000 C 
ATOM      4  N   UNL     1       6.096   5.397  17.707  0.00  0.00    +0.000 N 
ATOM      5  C   UNL     1       7.159   5.086  16.869  0.00  0.00    +0.000 C 
ATOM      6  O   UNL     1       7.995   4.228  17.180  0.00  0.00    +0.000 OA
ATOM      7  C   UNL     1       5.012   6.341  17.462  0.00  0.00    +0.000 C 
ATOM      8  C   UNL     1       3.640   5.660  17.491  0.00  0.00    +0.000 C 
ENDROOT
BRANCH   1  10
ATOM      9  O   UNL     1       2.479   4.231  20.744  0.00  0.00    +0.000 OA
ATOM     10  C   UNL     1       2.802   4.997  19.845  0.00  0.00    +0.000 C 
ATOM     11  N   UNL     1       2.558   6.360  19.850  0.00  0.00    +0.000 N 
ATOM     12  H   UNL     1       2.888   6.922  19.077  0.00  0.00    +0.000 HD
BRANCH  11  13
ATOM     13  C   UNL     1       1.827   7.071  20.879  0.00  0.00    +0.000 C 
BRANCH  13  14
ATOM     14  C   UNL     1       1.384   8.418  20.358  0.00  0.00    +0.000 A 
ATOM     15  C   UNL     1       0.745   9.323  21.221  0.00  0.00    +0.000 A 
ATOM     16  C   UNL     1       0.307  10.565  20.758  0.00  0.00    +0.000 A 
ATOM     17  C   UNL     1       0.507  10.924  19.427  0.00  0.00    +0.000 A 
ATOM     18  C   UNL     1       1.145  10.039  18.559  0.00  0.00    +0.000 A 
ATOM     19  C   UNL     1       1.580   8.791  19.019  0.00  0.00    +0.000 A 
ENDBRANCH  13  14
ENDBRANCH  11  13
ENDBRANCH   1  10
BRANCH   5  20
ATOM     20  C   UNL     1       7.309   5.798  15.527  0.00  0.00    +0.000 C 
BRANCH  20  21
ATOM     21  C   UNL     1       6.834   4.961  14.360  0.00  0.00    +0.000 A 
ATOM     22  C   UNL     1       5.617   4.271  14.421  0.00  0.00    +0.000 A 
ATOM     23  C   UNL     1       5.196   3.480  13.348  0.00  0.00    +0.000 A 
ATOM     24  C   UNL     1       5.981   3.379  12.200  0.00  0.00    +0.000 A 
ATOM     25  C   UNL     1       7.179   4.084  12.115  0.00  0.00    +0.000 A 
ATOM     26  C   UNL     1       7.600   4.875  13.186  0.00  0.00    +0.000 A 
ENDBRANCH  20  21
ENDBRANCH   5  20
TORSDOF 5
ENDMDL
MODEL 2
REMARK VINA RESULT:      -7.9      0.311      1.013
REMARK  Name = 
REMARK  5 active torsions:
REMARK  status: ('A' for Active; 'I' for Inactive)
REMARK    1  A    between atoms: C_2  and  C_11
REMARK    2  A    between atoms: N_3  and  C_4
REMARK    3  A    between atoms: C_4  and  C_5
REMARK    4  A    between atoms: C_15  and  C_17
REMARK    5  A    between atoms: C_17  and  C_18
REMARK                            x       y       z     vdW  Elec       q    Type
REMARK                         _______ _______ _______ _____ _____    ______ ____
ROOT
ATOM      1  C   UNL     1       3.412   4.754  18.621  0.00  0.00    +0.000 C 
ATOM      2  C   UNL     1       4.679   3.953  18.960  0.00  0.00    +0.000 C 
ATOM      3  C   UNL     1       5.912   4.843  19.043  0.00  0.00    +0.000 C 
ATOM      4  N   UNL     1       6.075   5.547  17.779  0.00  0.00    +0.000 N 
ATOM      5  C   UNL     1       7.136   5.198  16.952  0.00  0.00    +0.000 C 
ATOM      6  O   UNL     1       7.959   4.337  17.292  0.00  0.00    +0.000 OA
ATOM      7  C   UNL     1       5.006   6.498  17.502  0.00  0.00    +0.000 C 
ATOM      8  C   UNL     1       3.624   5.837  17.548  0.00  0.00    +0.000 C 
ENDROOT
BRANCH   1  10
ATOM      9  O   UNL     1       2.424   4.520  20.833  0.00  0.00    +0.000 OA
ATOM     10  C   UNL     1       2.771   5.256  19.918  0.00  0.00    +0.000 C 
ATOM     11  N   UNL     1       2.562   6.625  19.889  0.00  0.00    +0.000 N 
ATOM     12  H   UNL     1       2.910   7.159  19.105  0.00  0.00    +0.000 HD
BRANCH  11  13
ATOM     13  C   UNL     1       1.842   7.378  20.896  0.00  0.00    +0.000 C 
BRANCH  13  14
ATOM     14  C   UNL     1       1.180   8.580  20.264  0.00  0.00    +0.000 A 
ATOM     15  C   UNL     1       0.236   9.320  20.993  0.00  0.00    +0.000 A 
ATOM     16  C   UNL     1      -0.405  10.422  20.423  0.00  0.00    +0.000 A 
ATOM     17  C   UNL     1      -0.107  10.803  19.118  0.00  0.00    +0.000 A 
ATOM     18  C   UNL     1       0.831  10.082  18.381  0.00  0.00    +0.000 A 
ATOM     19  C   UNL     1       1.471   8.974  18.948  0.00  0.00    +0.000 A 
ENDBRANCH  13  14
ENDBRANCH  11  13
ENDBRANCH   1  10
BRANCH   5  20
ATOM     20  C   UNL     1       7.299   5.867  15.591  0.00  0.00    +0.000 C 
BRANCH  20  21
ATOM     21  C   UNL     1       6.837   4.993  14.446  0.00  0.00    +0.000 A 
ATOM     22  C   UNL     1       7.588   4.900  13.268  0.00  0.00    +0.000 A 
ATOM     23  C   UNL     1       7.143   4.111  12.203  0.00  0.00    +0.000 A 
ATOM     24  C   UNL     1       5.951   3.398  12.310  0.00  0.00    +0.000 A 
ATOM     25  C   UNL     1       5.209   3.458  13.488  0.00  0.00    +0.000 A 
ATOM     26  C   UNL     1       5.653   4.247  14.551  0.00  0.00    +0.000 A 
ENDBRANCH  20  21
ENDBRANCH   5  20
TORSDOF 5
ENDMDL
MODEL 3
REMARK VINA RESULT:      -7.7      0.655      1.152
REMARK  Name = 
REMARK  5 active torsions:
REMARK  status: ('A' for Active; 'I' for Inactive)
REMARK    1  A    between atoms: C_2  and  C_11
REMARK    2  A    between atoms: N_3  and  C_4
REMARK    3  A    between atoms: C_4  and  C_5
REMARK    4  A    between atoms: C_15  and  C_17
REMARK    5  A    between atoms: C_17  and  C_18
REMARK                            x       y       z     vdW  Elec       q    Type
REMARK                         _______ _______ _______ _____ _____    ______ ____
ROOT
ATOM      1  C   UNL     1       2.949   4.904  18.597  0.00  0.00    +0.000 C 
ATOM      2  C   UNL     1       4.127   4.049  19.088  0.00  0.00    +0.000 C 
ATOM      3  C   UNL     1       5.374   4.887  19.341  0.00  0.00    +0.000 C 
ATOM      4  N   UNL     1       5.728   5.594  18.118  0.00  0.00    +0.000 N 
ATOM      5  C   UNL     1       6.873   5.208  17.433  0.00  0.00    +0.000 C 
ATOM      6  O   UNL     1       7.610   4.312  17.865  0.00  0.00    +0.000 OA
ATOM      7  C   UNL     1       4.742   6.590  17.718  0.00  0.00    +0.000 C 
ATOM      8  C   UNL     1       3.341   5.986  17.575  0.00  0.00    +0.000 C 
ENDROOT
BRANCH   1  10
ATOM      9  O   UNL     1       1.388   4.734  20.458  0.00  0.00    +0.000 OA
ATOM     10  C   UNL     1       2.164   5.422  19.806  0.00  0.00    +0.000 C 
ATOM     11  N   UNL     1       2.379   6.774  20.015  0.00  0.00    +0.000 N 
ATOM     12  H   UNL     1       3.062   7.257  19.447  0.00  0.00    +0.000 HD
BRANCH  11  13
ATOM     13  C   UNL     1       1.672   7.590  20.981  0.00  0.00    +0.000 C 
BRANCH  13  14
ATOM     14  C   UNL     1       1.025   8.766  20.287  0.00  0.00    +0.000 A 
ATOM     15  C   UNL     1       1.433   9.120  18.991  0.00  0.00    +0.000 A 
ATOM     16  C   UNL     1       0.866  10.216  18.337  0.00  0.00    +0.000 A 
ATOM     17  C   UNL     1      -0.121  10.969  18.967  0.00  0.00    +0.000 A 
ATOM     18  C   UNL     1      -0.540  10.628  20.252  0.00  0.00    +0.000 A 
ATOM     19  C   UNL     1       0.030   9.534  20.911  0.00  0.00    +0.000 A 
ENDBRANCH  13  14
ENDBRANCH  11  13
ENDBRANCH   1  10
BRANCH   5  20
ATOM     20  C   UNL     1       7.238   5.880  16.113  0.00  0.00    +0.000 C 
BRANCH  20  21
ATOM     21  C   UNL     1       6.797   5.085  14.904  0.00  0.00    +0.000 A 
ATOM     22  C   UNL     1       5.595   4.368  14.918  0.00  0.00    +0.000 A 
ATOM     23  C   UNL     1       5.206   3.615  13.806  0.00  0.00    +0.000 A 
ATOM     24  C   UNL     1       6.008   3.580  12.667  0.00  0.00    +0.000 A 
ATOM     25  C   UNL     1       7.192   4.313  12.630  0.00  0.00    +0.000 A 
ATOM     26  C   UNL     1       7.581   5.066  13.739  0.00  0.00    +0.000 A 
ENDBRANCH  20  21
ENDBRANCH   5  20
TORSDOF 5
ENDMDL
MODEL 4
REMARK VINA RESULT:      -7.4      4.437      6.907
REMARK  Name = 
REMARK  5 active torsions:
REMARK  status: ('A' for Active; 'I' for Inactive)
REMARK    1  A    between atoms: C_2  and  C_11
REMARK    2  A    between atoms: N_3  and  C_4
REMARK    3  A    between atoms: C_4  and  C_5
REMARK    4  A    between atoms: C_15  and  C_17
REMARK    5  A    between atoms: C_17  and  C_18
REMARK                            x       y       z     vdW  Elec       q    Type
REMARK                         _______ _______ _______ _____ _____    ______ ____
ROOT
ATOM      1  C   UNL     1       0.779  10.831  21.261  0.00  0.00    +0.000 C 
ATOM      2  C   UNL     1       1.075  10.887  19.755  0.00  0.00    +0.000 C 
ATOM      3  C   UNL     1       0.633   9.617  19.039  0.00  0.00    +0.000 C 
ATOM      4  N   UNL     1       1.296   8.473  19.649  0.00  0.00    +0.000 N 
ATOM      5  C   UNL     1       2.278   7.807  18.925  0.00  0.00    +0.000 C 
ATOM      6  O   UNL     1       2.562   8.142  17.768  0.00  0.00    +0.000 OA
ATOM      7  C   UNL     1       0.885   8.230  21.026  0.00  0.00    +0.000 C 
ATOM      8  C   UNL     1       1.078   9.467  21.909  0.00  0.00    +0.000 C 
ENDROOT
BRANCH   1  10
ATOM      9  O   UNL     1      -1.243  11.193  22.566  0.00  0.00    +0.000 OA
ATOM     10  C   UNL     1      -0.633  11.365  21.518  0.00  0.00    +0.000 C 
ATOM     11  N   UNL     1      -1.157  11.988  20.398  0.00  0.00    +0.000 N 
ATOM     12  H   UNL     1      -0.569  12.114  19.585  0.00  0.00    +0.000 HD
BRANCH  11  13
ATOM     13  C   UNL     1      -2.519  12.464  20.272  0.00  0.00    +0.000 C 
BRANCH  13  14
ATOM     14  C   UNL     1      -3.109  11.993  18.963  0.00  0.00    +0.000 A 
ATOM     15  C   UNL     1      -4.503  11.938  18.807  0.00  0.00    +0.000 A 
ATOM     16  C   UNL     1      -5.073  11.486  17.615  0.00  0.00    +0.000 A 
ATOM     17  C   UNL     1      -4.257  11.087  16.560  0.00  0.00    +0.000 A 
ATOM     18  C   UNL     1      -2.870  11.139  16.697  0.00  0.00    +0.000 A 
ATOM     19  C   UNL     1      -2.297  11.587  17.892  0.00  0.00    +0.000 A 
ENDBRANCH  13  14
ENDBRANCH  11  13
ENDBRANCH   1  10
BRANCH   5  20
ATOM     20  C   UNL     1       3.040   6.647  19.557  0.00  0.00    +0.000 C 
BRANCH  20  21
ATOM     21  C   UNL     1       2.286   5.337  19.485  0.00  0.00    +0.000 A 
ATOM     22  C   UNL     1       2.055   4.710  18.255  0.00  0.00    +0.000 A 
ATOM     23  C   UNL     1       1.336   3.513  18.193  0.00  0.00    +0.000 A 
ATOM     24  C   UNL     1       0.852   2.925  19.360  0.00  0.00    +0.000 A 
ATOM     25  C   UNL     1       1.100   3.523  20.593  0.00  0.00    +0.000 A 
ATOM     26  C   UNL     1       1.818   4.719  20.656  0.00  0.00    +0.000 A 
ENDBRANCH  20  21
ENDBRANCH   5  20
TORSDOF 5
ENDMDL
MODEL 5
REMARK VINA RESULT:      -7.3      4.454      6.978
REMARK  Name = 
REMARK  5 active torsions:
REMARK  status: ('A' for Active; 'I' for Inactive)
REMARK    1  A    between atoms: C_2  and  C_11
REMARK    2  A    between atoms: N_3  and  C_4
REMARK    3  A    between atoms: C_4  and  C_5
REMARK    4  A    between atoms: C_15  and  C_17
REMARK    5  A    between atoms: C_17  and  C_18
REMARK                            x       y       z     vdW  Elec       q    Type
REMARK                         _______ _______ _______ _____ _____    ______ ____
ROOT
ATOM      1  C   UNL     1       0.736  10.860  21.534  0.00  0.00    +0.000 C 
ATOM      2  C   UNL     1       0.898  10.984  20.011  0.00  0.00    +0.000 C 
ATOM      3  C   UNL     1       0.426   9.732  19.283  0.00  0.00    +0.000 C 
ATOM      4  N   UNL     1       1.167   8.583  19.785  0.00  0.00    +0.000 N 
ATOM      5  C   UNL     1       2.098   7.974  18.952  0.00  0.00    +0.000 C 
ATOM      6  O   UNL     1       2.273   8.363  17.790  0.00  0.00    +0.000 OA
ATOM      7  C   UNL     1       0.883   8.274  21.181  0.00  0.00    +0.000 C 
ATOM      8  C   UNL     1       1.122   9.479  22.095  0.00  0.00    +0.000 C 
ENDROOT
BRANCH   1  10
ATOM      9  O   UNL     1      -1.280  10.909  22.897  0.00  0.00    +0.000 OA
ATOM     10  C   UNL     1      -0.661  11.343  21.933  0.00  0.00    +0.000 C 
ATOM     11  N   UNL     1      -1.163  12.265  21.029  0.00  0.00    +0.000 N 
ATOM     12  H   UNL     1      -0.568  12.591  20.279  0.00  0.00    +0.000 HD
BRANCH  11  13
ATOM     13  C   UNL     1      -2.510  12.797  21.044  0.00  0.00    +0.000 C 
BRANCH  13  14
ATOM     14  C   UNL     1      -3.250  12.356  19.802  0.00  0.00    +0.000 A 
ATOM     15  C   UNL     1      -2.538  11.805  18.726  0.00  0.00    +0.000 A 
ATOM     16  C   UNL     1      -3.197  11.410  17.559  0.00  0.00    +0.000 A 
ATOM     17  C   UNL     1      -4.578  11.557  17.455  0.00  0.00    +0.000 A 
ATOM     18  C   UNL     1      -5.300  12.098  18.517  0.00  0.00    +0.000 A 
ATOM     19  C   UNL     1      -4.642  12.499  19.685  0.00  0.00    +0.000 A 
ENDBRANCH  13  14
ENDBRANCH  11  13
ENDBRANCH   1  10
BRANCH   5  20
ATOM     20  C   UNL     1       2.940   6.811  19.467  0.00  0.00    +0.000 C 
BRANCH  20  21
ATOM     21  C   UNL     1       2.232   5.478  19.362  0.00  0.00    +0.000 A 
ATOM     22  C   UNL     1       1.691   4.862  20.497  0.00  0.00    +0.000 A 
ATOM     23  C   UNL     1       1.060   3.619  20.396  0.00  0.00    +0.000 A 
ATOM     24  C   UNL     1       0.952   2.985  19.160  0.00  0.00    +0.000 A 
ATOM     25  C   UNL     1       1.460   3.601  18.018  0.00  0.00    +0.000 A 
ATOM     26  C   UNL     1       2.090   4.843  18.118  0.00  0.00    +0.000 A 
ENDBRANCH  20  21
ENDBRANCH   5  20
TORSDOF 5
ENDMDL
MODEL 6
REMARK VINA RESULT:      -7.2      4.552     10.397
REMARK  Name = 
REMARK  5 active torsions:
REMARK  status: ('A' for Active; 'I' for Inactive)
REMARK    1  A    between atoms: C_2  and  C_11
REMARK    2  A    between atoms: N_3  and  C_4
REMARK    3  A    between atoms: C_4  and  C_5
REMARK    4  A    between atoms: C_15  and  C_17
REMARK    5  A    between atoms: C_17  and  C_18
REMARK                            x       y       z     vdW  Elec       q    Type
REMARK                         _______ _______ _______ _____ _____    ______ ____
ROOT
ATOM      1  C   UNL     1       0.329  10.017  18.941  0.00  0.00    +0.000 C 
ATOM      2  C   UNL     1       0.602  11.519  18.767  0.00  0.00    +0.000 C 
ATOM      3  C   UNL     1       1.292  12.118  19.985  0.00  0.00    +0.000 C 
ATOM      4  N   UNL     1       0.468  11.881  21.162  0.00  0.00    +0.000 N 
ATOM      5  C   UNL     1      -0.173  12.961  21.757  0.00  0.00    +0.000 C 
ATOM      6  O   UNL     1      -0.020  14.113  21.330  0.00  0.00    +0.000 OA
ATOM      7  C   UNL     1       0.353  10.471  21.515  0.00  0.00    +0.000 C 
ATOM      8  C   UNL     1      -0.166   9.628  20.346  0.00  0.00    +0.000 C 
ENDROOT
BRANCH   1  10
ATOM      9  O   UNL     1       2.160   9.490  17.425  0.00  0.00    +0.000 OA
ATOM     10  C   UNL     1       1.543   9.223  18.449  0.00  0.00    +0.000 C 
ATOM     11  N   UNL     1       1.802   8.129  19.258  0.00  0.00    +0.000 N 
ATOM     12  H   UNL     1       1.261   8.004  20.103  0.00  0.00    +0.000 HD
BRANCH  11  13
ATOM     13  C   UNL     1       2.785   7.103  18.980  0.00  0.00    +0.000 C 
BRANCH  13  14
ATOM     14  C   UNL     1       2.166   5.736  19.159  0.00  0.00    +0.000 A 
ATOM     15  C   UNL     1       1.801   5.299  20.442  0.00  0.00    +0.000 A 
ATOM     16  C   UNL     1       1.248   4.032  20.636  0.00  0.00    +0.000 A 
ATOM     17  C   UNL     1       1.046   3.186  19.549  0.00  0.00    +0.000 A 
ATOM     18  C   UNL     1       1.399   3.606  18.268  0.00  0.00    +0.000 A 
ATOM     19  C   UNL     1       1.958   4.873  18.072  0.00  0.00    +0.000 A 
ENDBRANCH  13  14
ENDBRANCH  11  13
ENDBRANCH   1  10
BRANCH   5  20
ATOM     20  C   UNL     1      -1.097  12.740  22.950  0.00  0.00    +0.000 C 
BRANCH  20  21
ATOM     21  C   UNL     1      -2.562  12.778  22.576  0.00  0.00    +0.000 A 
ATOM     22  C   UNL     1      -3.551  12.885  23.562  0.00  0.00    +0.000 A 
ATOM     23  C   UNL     1      -4.904  12.894  23.211  0.00  0.00    +0.000 A 
ATOM     24  C   UNL     1      -5.282  12.809  21.872  0.00  0.00    +0.000 A 
ATOM     25  C   UNL     1      -4.307  12.733  20.880  0.00  0.00    +0.000 A 
ATOM     26  C   UNL     1      -2.956  12.723  21.230  0.00  0.00    +0.000 A 
ENDBRANCH  20  21
ENDBRANCH   5  20
TORSDOF 5
ENDMDL
MODEL 7
REMARK VINA RESULT:      -7.2      4.436     10.491
REMARK  Name = 
REMARK  5 active torsions:
REMARK  status: ('A' for Active; 'I' for Inactive)
REMARK    1  A    between atoms: C_2  and  C_11
REMARK    2  A    between atoms: N_3  and  C_4
REMARK    3  A    between atoms: C_4  and  C_5
REMARK    4  A    between atoms: C_15  and  C_17
REMARK    5  A    between atoms: C_17  and  C_18
REMARK                            x       y       z     vdW  Elec       q    Type
REMARK                         _______ _______ _______ _____ _____    ______ ____
ROOT
ATOM      1  C   UNL     1       1.799   9.602  19.725  0.00  0.00    +0.000 C 
ATOM      2  C   UNL     1       1.437   8.920  21.053  0.00  0.00    +0.000 C 
ATOM      3  C   UNL     1      -0.061   8.956  21.324  0.00  0.00    +0.000 C 
ATOM      4  N   UNL     1      -0.511  10.341  21.322  0.00  0.00    +0.000 N 
ATOM      5  C   UNL     1      -0.900  10.918  22.525  0.00  0.00    +0.000 C 
ATOM      6  O   UNL     1      -0.910  10.266  23.577  0.00  0.00    +0.000 OA
ATOM      7  C   UNL     1      -0.401  10.984  20.019  0.00  0.00    +0.000 C 
ATOM      8  C   UNL     1       1.023  10.906  19.458  0.00  0.00    +0.000 C 
ENDROOT
BRANCH   1  10
ATOM      9  O   UNL     1       1.056   8.725  17.579  0.00  0.00    +0.000 OA
ATOM     10  C   UNL     1       1.727   8.574  18.593  0.00  0.00    +0.000 C 
ATOM     11  N   UNL     1       2.445   7.429  18.895  0.00  0.00    +0.000 N 
ATOM     12  H   UNL     1       2.996   7.403  19.742  0.00  0.00    +0.000 HD
BRANCH  11  13
ATOM     13  C   UNL     1       2.453   6.218  18.099  0.00  0.00    +0.000 C 
BRANCH  13  14
ATOM     14  C   UNL     1       2.031   5.042  18.948  0.00  0.00    +0.000 A 
ATOM     15  C   UNL     1       1.447   3.918  18.342  0.00  0.00    +0.000 A 
ATOM     16  C   UNL     1       1.029   2.828  19.107  0.00  0.00    +0.000 A 
ATOM     17  C   UNL     1       1.194   2.842  20.490  0.00  0.00    +0.000 A 
ATOM     18  C   UNL     1       1.776   3.949  21.107  0.00  0.00    +0.000 A 
ATOM     19  C   UNL     1       2.191   5.044  20.343  0.00  0.00    +0.000 A 
ENDBRANCH  13  14
ENDBRANCH  11  13
ENDBRANCH   1  10
BRANCH   5  20
ATOM     20  C   UNL     1      -1.312  12.386  22.571  0.00  0.00    +0.000 C 
BRANCH  20  21
ATOM     21  C   UNL     1      -2.810  12.574  22.677  0.00  0.00    +0.000 A 
ATOM     22  C   UNL     1      -3.596  12.723  21.528  0.00  0.00    +0.000 A 
ATOM     23  C   UNL     1      -4.976  12.921  21.634  0.00  0.00    +0.000 A 
ATOM     24  C   UNL     1      -5.585  12.962  22.887  0.00  0.00    +0.000 A 
ATOM     25  C   UNL     1      -4.818  12.785  24.037  0.00  0.00    +0.000 A 
ATOM     26  C   UNL     1      -3.439  12.587  23.932  0.00  0.00    +0.000 A 
ENDBRANCH  20  21
ENDBRANCH   5  20
TORSDOF 5
ENDMDL
MODEL 8
REMARK VINA RESULT:      -7.1      4.448     10.366
REMARK  Name = 
REMARK  5 active torsions:
REMARK  status: ('A' for Active; 'I' for Inactive)
REMARK    1  A    between atoms: C_2  and  C_11
REMARK    2  A    between atoms: N_3  and  C_4
REMARK    3  A    between atoms: C_4  and  C_5
REMARK    4  A    between atoms: C_15  and  C_17
REMARK    5  A    between atoms: C_17  and  C_18
REMARK                            x       y       z     vdW  Elec       q    Type
REMARK                         _______ _______ _______ _____ _____    ______ ____
ROOT
ATOM      1  C   UNL     1       1.887   9.555  19.774  0.00  0.00    +0.000 C 
ATOM      2  C   UNL     1       1.484   8.831  21.068  0.00  0.00    +0.000 C 
ATOM      3  C   UNL     1      -0.017   8.898  21.316  0.00  0.00    +0.000 C 
ATOM      4  N   UNL     1      -0.429  10.295  21.361  0.00  0.00    +0.000 N 
ATOM      5  C   UNL     1      -0.823  10.835  22.579  0.00  0.00    +0.000 C 
ATOM      6  O   UNL     1      -0.869  10.143  23.605  0.00  0.00    +0.000 OA
ATOM      7  C   UNL     1      -0.279  10.985  20.086  0.00  0.00    +0.000 C 
ATOM      8  C   UNL     1       1.151  10.888  19.546  0.00  0.00    +0.000 C 
ENDROOT
BRANCH   1  10
ATOM      9  O   UNL     1       1.217   8.813  17.555  0.00  0.00    +0.000 OA
ATOM     10  C   UNL     1       1.807   8.573  18.602  0.00  0.00    +0.000 C 
ATOM     11  N   UNL     1       2.409   7.363  18.904  0.00  0.00    +0.000 N 
ATOM     12  H   UNL     1       2.901   7.265  19.781  0.00  0.00    +0.000 HD
BRANCH  11  13
ATOM     13  C   UNL     1       2.372   6.183  18.065  0.00  0.00    +0.000 C 
BRANCH  13  14
ATOM     14  C   UNL     1       1.941   4.986  18.880  0.00  0.00    +0.000 A 
ATOM     15  C   UNL     1       2.012   5.035  20.281  0.00  0.00    +0.000 A 
ATOM     16  C   UNL     1       1.639   3.934  21.055  0.00  0.00    +0.000 A 
ATOM     17  C   UNL     1       1.186   2.771  20.440  0.00  0.00    +0.000 A 
ATOM     18  C   UNL     1       1.105   2.707  19.050  0.00  0.00    +0.000 A 
ATOM     19  C   UNL     1       1.482   3.807  18.272  0.00  0.00    +0.000 A 
ENDBRANCH  13  14
ENDBRANCH  11  13
ENDBRANCH   1  10
BRANCH   5  20
ATOM     20  C   UNL     1      -1.196  12.311  22.676  0.00  0.00    +0.000 C 
BRANCH  20  21
ATOM     21  C   UNL     1      -2.691  12.542  22.675  0.00  0.00    +0.000 A 
ATOM     22  C   UNL     1      -3.415  12.554  23.874  0.00  0.00    +0.000 A 
ATOM     23  C   UNL     1      -4.800  12.744  23.863  0.00  0.00    +0.000 A 
ATOM     24  C   UNL     1      -5.473  12.934  22.658  0.00  0.00    +0.000 A 
ATOM     25  C   UNL     1      -4.761  12.953  21.461  0.00  0.00    +0.000 A 
ATOM     26  C   UNL     1      -3.377  12.765  21.471  0.00  0.00    +0.000 A 
ENDBRANCH  20  21
ENDBRANCH   5  20
TORSDOF 5
ENDMDL
MODEL 9
REMARK VINA RESULT:      -7.1      1.194      1.940
REMARK  Name = 
REMARK  5 active torsions:
REMARK  status: ('A' for Active; 'I' for Inactive)
REMARK    1  A    between atoms: C_2  and  C_11
REMARK    2  A    between atoms: N_3  and  C_4
REMARK    3  A    between atoms: C_4  and  C_5
REMARK    4  A    between atoms: C_15  and  C_17
REMARK    5  A    between atoms: C_17  and  C_18
REMARK                            x       y       z     vdW  Elec       q    Type
REMARK                         _______ _______ _______ _____ _____    ______ ____
ROOT
ATOM      1  C   UNL     1       3.325   4.646  19.912  0.00  0.00    +0.000 C 
ATOM      2  C   UNL     1       4.303   5.758  19.504  0.00  0.00    +0.000 C 
ATOM      3  C   UNL     1       4.126   6.167  18.047  0.00  0.00    +0.000 C 
ATOM      4  N   UNL     1       4.301   4.995  17.201  0.00  0.00    +0.000 N 
ATOM      5  C   UNL     1       5.435   4.913  16.402  0.00  0.00    +0.000 C 
ATOM      6  O   UNL     1       6.266   5.830  16.368  0.00  0.00    +0.000 OA
ATOM      7  C   UNL     1       3.264   3.987  17.383  0.00  0.00    +0.000 C 
ATOM      8  C   UNL     1       3.141   3.550  18.847  0.00  0.00    +0.000 C 
ENDROOT
BRANCH   1  10
ATOM      9  O   UNL     1       0.954   4.679  20.464  0.00  0.00    +0.000 OA
ATOM     10  C   UNL     1       2.022   5.278  20.410  0.00  0.00    +0.000 C 
ATOM     11  N   UNL     1       2.185   6.619  20.712  0.00  0.00    +0.000 N 
ATOM     12  H   UNL     1       3.111   7.024  20.670  0.00  0.00    +0.000 HD
BRANCH  11  13
ATOM     13  C   UNL     1       1.114   7.529  21.064  0.00  0.00    +0.000 C 
BRANCH  13  14
ATOM     14  C   UNL     1       1.187   8.767  20.201  0.00  0.00    +0.000 A 
ATOM     15  C   UNL     1       1.695   8.678  18.896  0.00  0.00    +0.000 A 
ATOM     16  C   UNL     1       1.792   9.811  18.086  0.00  0.00    +0.000 A 
ATOM     17  C   UNL     1       1.378  11.050  18.569  0.00  0.00    +0.000 A 
ATOM     18  C   UNL     1       0.866  11.155  19.861  0.00  0.00    +0.000 A 
ATOM     19  C   UNL     1       0.772  10.022  20.676  0.00  0.00    +0.000 A 
ENDBRANCH  13  14
ENDBRANCH  11  13
ENDBRANCH   1  10
BRANCH   5  20
ATOM     20  C   UNL     1       5.684   3.670  15.553  0.00  0.00    +0.000 C 
BRANCH  20  21
ATOM     21  C   UNL     1       6.249   3.993  14.187  0.00  0.00    +0.000 A 
ATOM     22  C   UNL     1       5.728   3.389  13.036  0.00  0.00    +0.000 A 
ATOM     23  C   UNL     1       6.271   3.672  11.779  0.00  0.00    +0.000 A 
ATOM     24  C   UNL     1       7.329   4.571  11.659  0.00  0.00    +0.000 A 
ATOM     25  C   UNL     1       7.836   5.201  12.793  0.00  0.00    +0.000 A 
ATOM     26  C   UNL     1       7.295   4.918  14.048  0.00  0.00    +0.000 A 
ENDBRANCH  20  21
ENDBRANCH   5  20
TORSDOF 5
ENDMDL
