MODEL 1
REMARK VINA RESULT:      -7.4      0.000      0.000
REMARK  Name = 
REMARK  9 active torsions:
REMARK  status: ('A' for Active; 'I' for Inactive)
REMARK    1  A    between atoms: C_1  and  C_2
REMARK    2  A    between atoms: N_4  and  C_5
REMARK    3  A    between atoms: C_5  and  C_6
REMARK    4  A    between atoms: C_5  and  C_7
REMARK    5  A    between atoms: C_10  and  C_11
REMARK    6  A    between atoms: N_13  and  C_14
REMARK    7  A    between atoms: C_18  and  O_19
REMARK    8  A    between atoms: O_19  and  C_20
REMARK    9  A    between atoms: C_20  and  C_21
REMARK                            x       y       z     vdW  Elec       q    Type
REMARK                         _______ _______ _______ _____ _____    ______ ____
ROOT
ATOM      1  C   UNL     1       2.508   7.352  17.952  0.00  0.00    +0.000 C 
ATOM      2  C   UNL     1       3.864   7.765  17.347  0.00  0.00    +0.000 C 
ATOM      3  N   UNL     1       4.369   6.516  17.814  0.00  0.00    +0.000 N 
ATOM      4  C   UNL     1       3.312   6.305  18.747  0.00  0.00    +0.000 C 
ENDROOT
BRANCH   1   8
ATOM      5  C   UNL     1       0.017  10.458  19.918  0.00  0.00    +0.000 A 
ATOM      6  C   UNL     1       0.159  10.412  18.528  0.00  0.00    +0.000 A 
ATOM      7  C   UNL     1       0.944   9.425  17.931  0.00  0.00    +0.000 A 
ATOM      8  C   UNL     1       1.617   8.438  18.677  0.00  0.00    +0.000 A 
ATOM      9  C   UNL     1       1.458   8.502  20.073  0.00  0.00    +0.000 A 
ATOM     10  C   UNL     1       0.676   9.491  20.686  0.00  0.00    +0.000 A 
BRANCH   5  11
ATOM     11  C   UNL     1      -0.843  11.536  20.546  0.00  0.00    +0.000 C 
ATOM     12  C   UNL     1      -2.089  11.820  19.699  0.00  0.00    +0.000 C 
BRANCH  11  16
ATOM     13  C   UNL     1       0.873  14.602  21.960  0.00  0.00    +0.000 C 
ATOM     14  C   UNL     1       0.019  13.364  21.976  0.00  0.00    +0.000 C 
ATOM     15  O   UNL     1      -0.541  12.960  22.990  0.00  0.00    +0.000 OA
ATOM     16  N   UNL     1      -0.057  12.740  20.755  0.00  0.00    +0.000 N 
ATOM     17  H   UNL     1       0.478  13.108  19.981  0.00  0.00    +0.000 HD
ENDBRANCH  11  16
ENDBRANCH   5  11
ENDBRANCH   1   8
BRANCH   3  18
ATOM     18  C   UNL     1       5.470   5.747  17.427  0.00  0.00    +0.000 A 
ATOM     19  C   UNL     1       6.573   5.614  18.272  0.00  0.00    +0.000 A 
ATOM     20  C   UNL     1       7.650   4.849  17.861  0.00  0.00    +0.000 A 
ATOM     21  N   UNL     1       7.698   4.201  16.684  0.00  0.00    +0.000 NA
ATOM     22  C   UNL     1       6.626   4.335  15.875  0.00  0.00    +0.000 A 
ATOM     23  C   UNL     1       5.514   5.099  16.191  0.00  0.00    +0.000 A 
BRANCH  22  24
ATOM     24  O   UNL     1       6.626   3.702  14.646  0.00  0.00    +0.000 OA
BRANCH  24  25
ATOM     25  C   UNL     1       5.494   4.077  13.857  0.00  0.00    +0.000 C 
BRANCH  25  26
ATOM     26  C   UNL     1       5.775   3.763  12.416  0.00  0.00    +0.000 C 
ATOM     27  C   UNL     1       5.801   2.335  11.930  0.00  0.00    +0.000 C 
ATOM     28  C   UNL     1       4.664   3.237  11.536  0.00  0.00    +0.000 C 
ENDBRANCH  25  26
ENDBRANCH  24  25
ENDBRANCH  22  24
ENDBRANCH   3  18
TORSDOF 7
ENDMDL
MODEL 2
REMARK VINA RESULT:      -7.3      6.039      7.950
REMARK  Name = 
REMARK  9 active torsions:
REMARK  status: ('A' for Active; 'I' for Inactive)
REMARK    1  A    between atoms: C_1  and  C_2
REMARK    2  A    between atoms: N_4  and  C_5
REMARK    3  A    between atoms: C_5  and  C_6
REMARK    4  A    between atoms: C_5  and  C_7
REMARK    5  A    between atoms: C_10  and  C_11
REMARK    6  A    between atoms: N_13  and  C_14
REMARK    7  A    between atoms: C_18  and  O_19
REMARK    8  A    between atoms: O_19  and  C_20
REMARK    9  A    between atoms: C_20  and  C_21
REMARK                            x       y       z     vdW  Elec       q    Type
REMARK                         _______ _______ _______ _____ _____    ______ ____
ROOT
ATOM      1  C   UNL     1       7.968   8.271  17.594  0.00  0.00    +0.000 C 
ATOM      2  C   UNL     1       7.916   7.018  18.489  0.00  0.00    +0.000 C 
ATOM      3  N   UNL     1       6.655   6.731  17.890  0.00  0.00    +0.000 N 
ATOM      4  C   UNL     1       6.453   8.056  17.405  0.00  0.00    +0.000 C 
ENDROOT
BRANCH   1   8
ATOM      5  C   UNL     1       9.593  12.027  19.317  0.00  0.00    +0.000 A 
ATOM      6  C   UNL     1       9.777  10.795  19.953  0.00  0.00    +0.000 A 
ATOM      7  C   UNL     1       9.261   9.626  19.391  0.00  0.00    +0.000 A 
ATOM      8  C   UNL     1       8.546   9.621  18.178  0.00  0.00    +0.000 A 
ATOM      9  C   UNL     1       8.375  10.871  17.555  0.00  0.00    +0.000 A 
ATOM     10  C   UNL     1       8.884  12.052  18.111  0.00  0.00    +0.000 A 
BRANCH   5  11
ATOM     11  C   UNL     1      10.165  13.283  19.942  0.00  0.00    +0.000 C 
ATOM     12  C   UNL     1       9.721  13.432  21.402  0.00  0.00    +0.000 C 
BRANCH  11  16
ATOM     13  C   UNL     1      10.122  16.393  17.782  0.00  0.00    +0.000 C 
ATOM     14  C   UNL     1      10.727  15.237  18.530  0.00  0.00    +0.000 C 
ATOM     15  O   UNL     1      11.936  15.030  18.562  0.00  0.00    +0.000 OA
ATOM     16  N   UNL     1       9.794  14.445  19.153  0.00  0.00    +0.000 N 
ATOM     17  H   UNL     1       8.812  14.653  19.032  0.00  0.00    +0.000 HD
ENDBRANCH  11  16
ENDBRANCH   5  11
ENDBRANCH   1   8
BRANCH   3  18
ATOM     18  C   UNL     1       5.925   5.546  17.763  0.00  0.00    +0.000 A 
ATOM     19  C   UNL     1       5.714   4.976  16.506  0.00  0.00    +0.000 A 
ATOM     20  C   UNL     1       4.984   3.804  16.410  0.00  0.00    +0.000 A 
ATOM     21  N   UNL     1       4.469   3.158  17.472  0.00  0.00    +0.000 NA
ATOM     22  C   UNL     1       4.681   3.717  18.682  0.00  0.00    +0.000 A 
ATOM     23  C   UNL     1       5.377   4.900  18.872  0.00  0.00    +0.000 A 
BRANCH  22  24
ATOM     24  O   UNL     1       4.161   3.104  19.807  0.00  0.00    +0.000 OA
BRANCH  24  25
ATOM     25  C   UNL     1       2.993   2.338  19.502  0.00  0.00    +0.000 C 
BRANCH  25  26
ATOM     26  C   UNL     1       1.924   2.651  20.508  0.00  0.00    +0.000 C 
ATOM     27  C   UNL     1       2.043   3.856  21.408  0.00  0.00    +0.000 C 
ATOM     28  C   UNL     1       1.028   3.849  20.298  0.00  0.00    +0.000 C 
ENDBRANCH  25  26
ENDBRANCH  24  25
ENDBRANCH  22  24
ENDBRANCH   3  18
TORSDOF 7
ENDMDL
MODEL 3
REMARK VINA RESULT:      -7.2      2.544      3.950
REMARK  Name = 
REMARK  9 active torsions:
REMARK  status: ('A' for Active; 'I' for Inactive)
REMARK    1  A    between atoms: C_1  and  C_2
REMARK    2  A    between atoms: N_4  and  C_5
REMARK    3  A    between atoms: C_5  and  C_6
REMARK    4  A    between atoms: C_5  and  C_7
REMARK    5  A    between atoms: C_10  and  C_11
REMARK    6  A    between atoms: N_13  and  C_14
REMARK    7  A    between atoms: C_18  and  O_19
REMARK    8  A    between atoms: O_19  and  C_20
REMARK    9  A    between atoms: C_20  and  C_21
REMARK                            x       y       z     vdW  Elec       q    Type
REMARK                         _______ _______ _______ _____ _____    ______ ____
ROOT
ATOM      1  C   UNL     1       1.674   8.498  20.697  0.00  0.00    +0.000 C 
ATOM      2  C   UNL     1       1.344   7.047  21.097  0.00  0.00    +0.000 C 
ATOM      3  N   UNL     1       2.064   6.641  19.936  0.00  0.00    +0.000 N 
ATOM      4  C   UNL     1       2.001   7.918  19.306  0.00  0.00    +0.000 C 
ENDROOT
BRANCH   1   8
ATOM      5  C   UNL     1      -1.415  11.627  21.318  0.00  0.00    +0.000 A 
ATOM      6  C   UNL     1      -0.823  10.965  22.398  0.00  0.00    +0.000 A 
ATOM      7  C   UNL     1       0.149   9.987  22.179  0.00  0.00    +0.000 A 
ATOM      8  C   UNL     1       0.582   9.625  20.889  0.00  0.00    +0.000 A 
ATOM      9  C   UNL     1      -0.026  10.305  19.819  0.00  0.00    +0.000 A 
ATOM     10  C   UNL     1      -1.006  11.286  20.024  0.00  0.00    +0.000 A 
BRANCH   5  11
ATOM     11  C   UNL     1      -2.465  12.688  21.577  0.00  0.00    +0.000 C 
ATOM     12  C   UNL     1      -1.963  14.080  21.177  0.00  0.00    +0.000 C 
BRANCH  11  16
ATOM     13  C   UNL     1      -4.386  12.510  24.837  0.00  0.00    +0.000 C 
ATOM     14  C   UNL     1      -4.188  12.503  23.345  0.00  0.00    +0.000 C 
ATOM     15  O   UNL     1      -5.117  12.368  22.555  0.00  0.00    +0.000 OA
ATOM     16  N   UNL     1      -2.876  12.652  22.970  0.00  0.00    +0.000 N 
ATOM     17  H   UNL     1      -2.162  12.702  23.685  0.00  0.00    +0.000 HD
ENDBRANCH  11  16
ENDBRANCH   5  11
ENDBRANCH   1   8
BRANCH   3  18
ATOM     18  C   UNL     1       2.678   5.434  19.588  0.00  0.00    +0.000 A 
ATOM     19  C   UNL     1       1.918   4.277  19.415  0.00  0.00    +0.000 A 
ATOM     20  C   UNL     1       2.553   3.096  19.074  0.00  0.00    +0.000 A 
ATOM     21  N   UNL     1       3.880   2.993  18.880  0.00  0.00    +0.000 NA
ATOM     22  C   UNL     1       4.606   4.118  19.048  0.00  0.00    +0.000 A 
ATOM     23  C   UNL     1       4.060   5.339  19.413  0.00  0.00    +0.000 A 
BRANCH  22  24
ATOM     24  O   UNL     1       5.977   4.067  18.876  0.00  0.00    +0.000 OA
BRANCH  24  25
ATOM     25  C   UNL     1       6.410   4.928  17.820  0.00  0.00    +0.000 C 
BRANCH  25  26
ATOM     26  C   UNL     1       6.061   4.300  16.502  0.00  0.00    +0.000 C 
ATOM     27  C   UNL     1       5.545   5.141  15.361  0.00  0.00    +0.000 C 
ATOM     28  C   UNL     1       6.932   4.563  15.295  0.00  0.00    +0.000 C 
ENDBRANCH  25  26
ENDBRANCH  24  25
ENDBRANCH  22  24
ENDBRANCH   3  18
TORSDOF 7
ENDMDL
MODEL 4
REMARK VINA RESULT:      -7.2      3.000      4.815
REMARK  Name = 
REMARK  9 active torsions:
REMARK  status: ('A' for Active; 'I' for Inactive)
REMARK    1  A    between atoms: C_1  and  C_2
REMARK    2  A    between atoms: N_4  and  C_5
REMARK    3  A    between atoms: C_5  and  C_6
REMARK    4  A    between atoms: C_5  and  C_7
REMARK    5  A    between atoms: C_10  and  C_11
REMARK    6  A    between atoms: N_13  and  C_14
REMARK    7  A    between atoms: C_18  and  O_19
REMARK    8  A    between atoms: O_19  and  C_20
REMARK    9  A    between atoms: C_20  and  C_21
REMARK                            x       y       z     vdW  Elec       q    Type
REMARK                         _______ _______ _______ _____ _____    ______ ____
ROOT
ATOM      1  C   UNL     1       1.533   9.766  19.211  0.00  0.00    +0.000 C 
ATOM      2  C   UNL     1       1.706   8.356  19.807  0.00  0.00    +0.000 C 
ATOM      3  N   UNL     1       2.088   7.930  18.502  0.00  0.00    +0.000 N 
ATOM      4  C   UNL     1       1.521   9.059  17.841  0.00  0.00    +0.000 C 
ENDROOT
BRANCH   1   8
ATOM      5  C   UNL     1      -1.840  12.278  20.635  0.00  0.00    +0.000 A 
ATOM      6  C   UNL     1      -0.770  11.953  21.474  0.00  0.00    +0.000 A 
ATOM      7  C   UNL     1       0.281  11.165  21.004  0.00  0.00    +0.000 A 
ATOM      8  C   UNL     1       0.327  10.669  19.687  0.00  0.00    +0.000 A 
ATOM      9  C   UNL     1      -0.759  11.011  18.860  0.00  0.00    +0.000 A 
ATOM     10  C   UNL     1      -1.824  11.797  19.321  0.00  0.00    +0.000 A 
BRANCH   5  11
ATOM     11  C   UNL     1      -2.970  13.138  21.164  0.00  0.00    +0.000 C 
ATOM     12  C   UNL     1      -2.741  14.619  20.842  0.00  0.00    +0.000 C 
BRANCH  11  16
ATOM     13  C   UNL     1      -4.285  12.458  24.650  0.00  0.00    +0.000 C 
ATOM     14  C   UNL     1      -4.346  12.620  23.156  0.00  0.00    +0.000 C 
ATOM     15  O   UNL     1      -5.385  12.483  22.518  0.00  0.00    +0.000 OA
ATOM     16  N   UNL     1      -3.131  12.924  22.592  0.00  0.00    +0.000 N 
ATOM     17  H   UNL     1      -2.312  12.966  23.182  0.00  0.00    +0.000 HD
ENDBRANCH  11  16
ENDBRANCH   5  11
ENDBRANCH   1   8
BRANCH   3  18
ATOM     18  C   UNL     1       2.826   6.832  18.052  0.00  0.00    +0.000 A 
ATOM     19  C   UNL     1       4.075   7.014  17.455  0.00  0.00    +0.000 A 
ATOM     20  C   UNL     1       4.781   5.908  17.016  0.00  0.00    +0.000 A 
ATOM     21  N   UNL     1       4.341   4.644  17.144  0.00  0.00    +0.000 NA
ATOM     22  C   UNL     1       3.133   4.479  17.724  0.00  0.00    +0.000 A 
ATOM     23  C   UNL     1       2.344   5.527  18.171  0.00  0.00    +0.000 A 
BRANCH  22  24
ATOM     24  O   UNL     1       2.624   3.201  17.868  0.00  0.00    +0.000 OA
BRANCH  24  25
ATOM     25  C   UNL     1       1.464   3.185  18.704  0.00  0.00    +0.000 C 
BRANCH  25  26
ATOM     26  C   UNL     1       1.746   2.348  19.918  0.00  0.00    +0.000 C 
ATOM     27  C   UNL     1       2.741   2.806  20.955  0.00  0.00    +0.000 C 
ATOM     28  C   UNL     1       1.272   2.816  21.274  0.00  0.00    +0.000 C 
ENDBRANCH  25  26
ENDBRANCH  24  25
ENDBRANCH  22  24
ENDBRANCH   3  18
TORSDOF 7
ENDMDL
MODEL 5
REMARK VINA RESULT:      -7.2      6.073      7.906
REMARK  Name = 
REMARK  9 active torsions:
REMARK  status: ('A' for Active; 'I' for Inactive)
REMARK    1  A    between atoms: C_1  and  C_2
REMARK    2  A    between atoms: N_4  and  C_5
REMARK    3  A    between atoms: C_5  and  C_6
REMARK    4  A    between atoms: C_5  and  C_7
REMARK    5  A    between atoms: C_10  and  C_11
REMARK    6  A    between atoms: N_13  and  C_14
REMARK    7  A    between atoms: C_18  and  O_19
REMARK    8  A    between atoms: O_19  and  C_20
REMARK    9  A    between atoms: C_20  and  C_21
REMARK                            x       y       z     vdW  Elec       q    Type
REMARK                         _______ _______ _______ _____ _____    ______ ____
ROOT
ATOM      1  C   UNL     1       8.158   8.568  17.641  0.00  0.00    +0.000 C 
ATOM      2  C   UNL     1       8.025   7.257  18.442  0.00  0.00    +0.000 C 
ATOM      3  N   UNL     1       6.818   7.025  17.720  0.00  0.00    +0.000 N 
ATOM      4  C   UNL     1       6.664   8.382  17.310  0.00  0.00    +0.000 C 
ENDROOT
BRANCH   1   8
ATOM      5  C   UNL     1       9.668  12.262  19.586  0.00  0.00    +0.000 A 
ATOM      6  C   UNL     1       9.096  12.293  18.311  0.00  0.00    +0.000 A 
ATOM      7  C   UNL     1       8.625  11.120  17.720  0.00  0.00    +0.000 A 
ATOM      8  C   UNL     1       8.691   9.869  18.362  0.00  0.00    +0.000 A 
ATOM      9  C   UNL     1       9.269   9.862  19.645  0.00  0.00    +0.000 A 
ATOM     10  C   UNL     1       9.750  11.032  20.248  0.00  0.00    +0.000 A 
BRANCH   5  11
ATOM     11  C   UNL     1      10.171  13.549  20.211  0.00  0.00    +0.000 C 
ATOM     12  C   UNL     1       9.725  13.670  21.672  0.00  0.00    +0.000 C 
BRANCH  11  16
ATOM     13  C   UNL     1       9.940  16.676  18.086  0.00  0.00    +0.000 C 
ATOM     14  C   UNL     1      10.615  15.560  18.837  0.00  0.00    +0.000 C 
ATOM     15  O   UNL     1      11.835  15.449  18.902  0.00  0.00    +0.000 OA
ATOM     16  N   UNL     1       9.731  14.688  19.425  0.00  0.00    +0.000 N 
ATOM     17  H   UNL     1       8.739  14.820  19.279  0.00  0.00    +0.000 HD
ENDBRANCH  11  16
ENDBRANCH   5  11
ENDBRANCH   1   8
BRANCH   3  18
ATOM     18  C   UNL     1       6.096   5.859  17.451  0.00  0.00    +0.000 A 
ATOM     19  C   UNL     1       6.442   5.046  16.370  0.00  0.00    +0.000 A 
ATOM     20  C   UNL     1       5.707   3.899  16.126  0.00  0.00    +0.000 A 
ATOM     21  N   UNL     1       4.671   3.501  16.886  0.00  0.00    +0.000 NA
ATOM     22  C   UNL     1       4.347   4.293  17.929  0.00  0.00    +0.000 A 
ATOM     23  C   UNL     1       5.009   5.472  18.236  0.00  0.00    +0.000 A 
BRANCH  22  24
ATOM     24  O   UNL     1       3.281   3.941  18.737  0.00  0.00    +0.000 OA
BRANCH  24  25
ATOM     25  C   UNL     1       3.204   4.767  19.901  0.00  0.00    +0.000 C 
BRANCH  25  26
ATOM     26  C   UNL     1       1.929   4.463  20.634  0.00  0.00    +0.000 C 
ATOM     27  C   UNL     1       1.142   3.214  20.326  0.00  0.00    +0.000 C 
ATOM     28  C   UNL     1       1.891   3.323  21.625  0.00  0.00    +0.000 C 
ENDBRANCH  25  26
ENDBRANCH  24  25
ENDBRANCH  22  24
ENDBRANCH   3  18
TORSDOF 7
ENDMDL
MODEL 6
REMARK VINA RESULT:      -7.2      1.176      1.787
REMARK  Name = 
REMARK  9 active torsions:
REMARK  status: ('A' for Active; 'I' for Inactive)
REMARK    1  A    between atoms: C_1  and  C_2
REMARK    2  A    between atoms: N_4  and  C_5
REMARK    3  A    between atoms: C_5  and  C_6
REMARK    4  A    between atoms: C_5  and  C_7
REMARK    5  A    between atoms: C_10  and  C_11
REMARK    6  A    between atoms: N_13  and  C_14
REMARK    7  A    between atoms: C_18  and  O_19
REMARK    8  A    between atoms: O_19  and  C_20
REMARK    9  A    between atoms: C_20  and  C_21
REMARK                            x       y       z     vdW  Elec       q    Type
REMARK                         _______ _______ _______ _____ _____    ______ ____
ROOT
ATOM      1  C   UNL     1       2.597   7.173  18.393  0.00  0.00    +0.000 C 
ATOM      2  C   UNL     1       3.843   7.601  17.593  0.00  0.00    +0.000 C 
ATOM      3  N   UNL     1       4.456   6.397  18.045  0.00  0.00    +0.000 N 
ATOM      4  C   UNL     1       3.542   6.197  19.121  0.00  0.00    +0.000 C 
ENDROOT
BRANCH   1   8
ATOM      5  C   UNL     1       0.234  10.171  20.662  0.00  0.00    +0.000 A 
ATOM      6  C   UNL     1       0.701   9.001  21.269  0.00  0.00    +0.000 A 
ATOM      7  C   UNL     1       1.445   8.074  20.538  0.00  0.00    +0.000 A 
ATOM      8  C   UNL     1       1.766   8.263  19.180  0.00  0.00    +0.000 A 
ATOM      9  C   UNL     1       1.288   9.447  18.590  0.00  0.00    +0.000 A 
ATOM     10  C   UNL     1       0.535  10.384  19.312  0.00  0.00    +0.000 A 
BRANCH   5  11
ATOM     11  C   UNL     1      -0.568  11.166  21.475  0.00  0.00    +0.000 C 
ATOM     12  C   UNL     1      -0.857  10.632  22.883  0.00  0.00    +0.000 C 
BRANCH  11  16
ATOM     13  C   UNL     1      -3.731  12.810  20.194  0.00  0.00    +0.000 C 
ATOM     14  C   UNL     1      -2.481  12.671  21.019  0.00  0.00    +0.000 C 
ATOM     15  O   UNL     1      -2.119  13.526  21.821  0.00  0.00    +0.000 OA
ATOM     16  N   UNL     1      -1.795  11.507  20.774  0.00  0.00    +0.000 N 
ATOM     17  H   UNL     1      -2.131  10.879  20.057  0.00  0.00    +0.000 HD
ENDBRANCH  11  16
ENDBRANCH   5  11
ENDBRANCH   1   8
BRANCH   3  18
ATOM     18  C   UNL     1       5.527   5.647  17.550  0.00  0.00    +0.000 A 
ATOM     19  C   UNL     1       6.681   5.470  18.316  0.00  0.00    +0.000 A 
ATOM     20  C   UNL     1       7.727   4.726  17.798  0.00  0.00    +0.000 A 
ATOM     21  N   UNL     1       7.697   4.139  16.588  0.00  0.00    +0.000 NA
ATOM     22  C   UNL     1       6.577   4.316  15.858  0.00  0.00    +0.000 A 
ATOM     23  C   UNL     1       5.490   5.064  16.283  0.00  0.00    +0.000 A 
BRANCH  22  24
ATOM     24  O   UNL     1       6.496   3.747  14.599  0.00  0.00    +0.000 OA
BRANCH  24  25
ATOM     25  C   UNL     1       5.269   4.080  13.945  0.00  0.00    +0.000 C 
BRANCH  25  26
ATOM     26  C   UNL     1       5.462   3.978  12.460  0.00  0.00    +0.000 C 
ATOM     27  C   UNL     1       6.563   3.125  11.883  0.00  0.00    +0.000 C 
ATOM     28  C   UNL     1       5.131   2.685  11.751  0.00  0.00    +0.000 C 
ENDBRANCH  25  26
ENDBRANCH  24  25
ENDBRANCH  22  24
ENDBRANCH   3  18
TORSDOF 7
ENDMDL
MODEL 7
REMARK VINA RESULT:      -7.2      1.992     10.284
REMARK  Name = 
REMARK  9 active torsions:
REMARK  status: ('A' for Active; 'I' for Inactive)
REMARK    1  A    between atoms: C_1  and  C_2
REMARK    2  A    between atoms: N_4  and  C_5
REMARK    3  A    between atoms: C_5  and  C_6
REMARK    4  A    between atoms: C_5  and  C_7
REMARK    5  A    between atoms: C_10  and  C_11
REMARK    6  A    between atoms: N_13  and  C_14
REMARK    7  A    between atoms: C_18  and  O_19
REMARK    8  A    between atoms: O_19  and  C_20
REMARK    9  A    between atoms: C_20  and  C_21
REMARK                            x       y       z     vdW  Elec       q    Type
REMARK                         _______ _______ _______ _____ _____    ______ ____
ROOT
ATOM      1  C   UNL     1       2.072   7.529  18.299  0.00  0.00    +0.000 C 
ATOM      2  C   UNL     1       1.891   7.819  19.802  0.00  0.00    +0.000 C 
ATOM      3  N   UNL     1       1.344   9.078  19.418  0.00  0.00    +0.000 N 
ATOM      4  C   UNL     1       1.892   9.047  18.103  0.00  0.00    +0.000 C 
ENDROOT
BRANCH   1   8
ATOM      5  C   UNL     1       5.714   5.362  16.976  0.00  0.00    +0.000 A 
ATOM      6  C   UNL     1       4.753   4.744  17.783  0.00  0.00    +0.000 A 
ATOM      7  C   UNL     1       3.614   5.443  18.184  0.00  0.00    +0.000 A 
ATOM      8  C   UNL     1       3.370   6.777  17.803  0.00  0.00    +0.000 A 
ATOM      9  C   UNL     1       4.350   7.377  16.990  0.00  0.00    +0.000 A 
ATOM     10  C   UNL     1       5.501   6.688  16.584  0.00  0.00    +0.000 A 
BRANCH   5  11
ATOM     11  C   UNL     1       6.943   4.584  16.549  0.00  0.00    +0.000 C 
ATOM     12  C   UNL     1       7.989   4.535  17.668  0.00  0.00    +0.000 C 
BRANCH  11  16
ATOM     13  C   UNL     1       7.876   5.393  12.969  0.00  0.00    +0.000 C 
ATOM     14  C   UNL     1       7.180   4.664  14.086  0.00  0.00    +0.000 C 
ATOM     15  O   UNL     1       6.405   3.735  13.888  0.00  0.00    +0.000 OA
ATOM     16  N   UNL     1       7.493   5.153  15.331  0.00  0.00    +0.000 N 
ATOM     17  H   UNL     1       8.100   5.958  15.405  0.00  0.00    +0.000 HD
ENDBRANCH  11  16
ENDBRANCH   5  11
ENDBRANCH   1   8
BRANCH   3  18
ATOM     18  C   UNL     1       0.502   9.975  20.082  0.00  0.00    +0.000 A 
ATOM     19  C   UNL     1       0.654  10.209  21.450  0.00  0.00    +0.000 A 
ATOM     20  C   UNL     1      -0.196  11.100  22.081  0.00  0.00    +0.000 A 
ATOM     21  N   UNL     1      -1.167  11.780  21.446  0.00  0.00    +0.000 NA
ATOM     22  C   UNL     1      -1.305  11.548  20.125  0.00  0.00    +0.000 A 
ATOM     23  C   UNL     1      -0.517  10.655  19.414  0.00  0.00    +0.000 A 
BRANCH  22  24
ATOM     24  O   UNL     1      -2.297  12.208  19.424  0.00  0.00    +0.000 OA
BRANCH  24  25
ATOM     25  C   UNL     1      -2.520  11.620  18.140  0.00  0.00    +0.000 C 
BRANCH  25  26
ATOM     26  C   UNL     1      -3.951  11.176  18.046  0.00  0.00    +0.000 C 
ATOM     27  C   UNL     1      -5.066  12.059  18.548  0.00  0.00    +0.000 C 
ATOM     28  C   UNL     1      -4.882  11.858  17.069  0.00  0.00    +0.000 C 
ENDBRANCH  25  26
ENDBRANCH  24  25
ENDBRANCH  22  24
ENDBRANCH   3  18
TORSDOF 7
ENDMDL
MODEL 8
REMARK VINA RESULT:      -7.1      1.967     10.269
REMARK  Name = 
REMARK  9 active torsions:
REMARK  status: ('A' for Active; 'I' for Inactive)
REMARK    1  A    between atoms: C_1  and  C_2
REMARK    2  A    between atoms: N_4  and  C_5
REMARK    3  A    between atoms: C_5  and  C_6
REMARK    4  A    between atoms: C_5  and  C_7
REMARK    5  A    between atoms: C_10  and  C_11
REMARK    6  A    between atoms: N_13  and  C_14
REMARK    7  A    between atoms: C_18  and  O_19
REMARK    8  A    between atoms: O_19  and  C_20
REMARK    9  A    between atoms: C_20  and  C_21
REMARK                            x       y       z     vdW  Elec       q    Type
REMARK                         _______ _______ _______ _____ _____    ______ ____
ROOT
ATOM      1  C   UNL     1       2.003   7.996  18.091  0.00  0.00    +0.000 C 
ATOM      2  C   UNL     1       1.774   8.363  19.570  0.00  0.00    +0.000 C 
ATOM      3  N   UNL     1       1.418   9.666  19.115  0.00  0.00    +0.000 N 
ATOM      4  C   UNL     1       2.033   9.516  17.838  0.00  0.00    +0.000 C 
ENDROOT
BRANCH   1   8
ATOM      5  C   UNL     1       5.444   5.443  16.927  0.00  0.00    +0.000 A 
ATOM      6  C   UNL     1       5.437   6.817  16.668  0.00  0.00    +0.000 A 
ATOM      7  C   UNL     1       4.346   7.601  17.046  0.00  0.00    +0.000 A 
ATOM      8  C   UNL     1       3.220   7.066  17.700  0.00  0.00    +0.000 A 
ATOM      9  C   UNL     1       3.250   5.683  17.952  0.00  0.00    +0.000 A 
ATOM     10  C   UNL     1       4.337   4.883  17.574  0.00  0.00    +0.000 A 
BRANCH   5  11
ATOM     11  C   UNL     1       6.641   4.611  16.512  0.00  0.00    +0.000 C 
ATOM     12  C   UNL     1       7.657   4.488  17.652  0.00  0.00    +0.000 C 
BRANCH  11  16
ATOM     13  C   UNL     1       7.762   5.384  12.977  0.00  0.00    +0.000 C 
ATOM     14  C   UNL     1       7.019   4.657  14.065  0.00  0.00    +0.000 C 
ATOM     15  O   UNL     1       6.280   3.705  13.839  0.00  0.00    +0.000 OA
ATOM     16  N   UNL     1       7.247   5.173  15.317  0.00  0.00    +0.000 N 
ATOM     17  H   UNL     1       7.829   5.995  15.412  0.00  0.00    +0.000 HD
ENDBRANCH  11  16
ENDBRANCH   5  11
ENDBRANCH   1   8
BRANCH   3  18
ATOM     18  C   UNL     1       0.663  10.688  19.697  0.00  0.00    +0.000 A 
ATOM     19  C   UNL     1       1.261  11.606  20.563  0.00  0.00    +0.000 A 
ATOM     20  C   UNL     1       0.488  12.605  21.127  0.00  0.00    +0.000 A 
ATOM     21  N   UNL     1      -0.824  12.761  20.880  0.00  0.00    +0.000 NA
ATOM     22  C   UNL     1      -1.393  11.870  20.041  0.00  0.00    +0.000 A 
ATOM     23  C   UNL     1      -0.704  10.823  19.449  0.00  0.00    +0.000 A 
BRANCH  22  24
ATOM     24  O   UNL     1      -2.743  11.974  19.762  0.00  0.00    +0.000 OA
BRANCH  24  25
ATOM     25  C   UNL     1      -3.078  11.344  18.523  0.00  0.00    +0.000 C 
BRANCH  25  26
ATOM     26  C   UNL     1      -4.392  11.882  18.038  0.00  0.00    +0.000 C 
ATOM     27  C   UNL     1      -4.898  11.549  16.657  0.00  0.00    +0.000 C 
ATOM     28  C   UNL     1      -5.564  10.945  17.862  0.00  0.00    +0.000 C 
ENDBRANCH  25  26
ENDBRANCH  24  25
ENDBRANCH  22  24
ENDBRANCH   3  18
TORSDOF 7
ENDMDL
MODEL 9
REMARK VINA RESULT:      -7.1      3.017      4.321
REMARK  Name = 
REMARK  9 active torsions:
REMARK  status: ('A' for Active; 'I' for Inactive)
REMARK    1  A    between atoms: C_1  and  C_2
REMARK    2  A    between atoms: N_4  and  C_5
REMARK    3  A    between atoms: C_5  and  C_6
REMARK    4  A    between atoms: C_5  and  C_7
REMARK    5  A    between atoms: C_10  and  C_11
REMARK    6  A    between atoms: N_13  and  C_14
REMARK    7  A    between atoms: C_18  and  O_19
REMARK    8  A    between atoms: O_19  and  C_20
REMARK    9  A    between atoms: C_20  and  C_21
REMARK                            x       y       z     vdW  Elec       q    Type
REMARK                         _______ _______ _______ _____ _____    ______ ____
ROOT
ATOM      1  C   UNL     1       1.579   7.941  20.946  0.00  0.00    +0.000 C 
ATOM      2  C   UNL     1       0.952   6.566  20.642  0.00  0.00    +0.000 C 
ATOM      3  N   UNL     1       1.885   6.460  19.570  0.00  0.00    +0.000 N 
ATOM      4  C   UNL     1       2.172   7.855  19.526  0.00  0.00    +0.000 C 
ENDROOT
BRANCH   1   8
ATOM      5  C   UNL     1      -0.996  11.364  22.116  0.00  0.00    +0.000 A 
ATOM      6  C   UNL     1      -0.427  11.284  20.841  0.00  0.00    +0.000 A 
ATOM      7  C   UNL     1       0.376  10.196  20.494  0.00  0.00    +0.000 A 
ATOM      8  C   UNL     1       0.648   9.140  21.385  0.00  0.00    +0.000 A 
ATOM      9  C   UNL     1       0.064   9.241  22.660  0.00  0.00    +0.000 A 
ATOM     10  C   UNL     1      -0.741  10.329  23.024  0.00  0.00    +0.000 A 
BRANCH   5  11
ATOM     11  C   UNL     1      -1.868  12.551  22.471  0.00  0.00    +0.000 C 
ATOM     12  C   UNL     1      -1.022  13.776  22.835  0.00  0.00    +0.000 C 
BRANCH  11  16
ATOM     13  C   UNL     1      -4.803  12.228  24.844  0.00  0.00    +0.000 C 
ATOM     14  C   UNL     1      -4.043  12.721  23.643  0.00  0.00    +0.000 C 
ATOM     15  O   UNL     1      -4.523  13.508  22.833  0.00  0.00    +0.000 OA
ATOM     16  N   UNL     1      -2.778  12.195  23.547  0.00  0.00    +0.000 N 
ATOM     17  H   UNL     1      -2.477  11.510  24.227  0.00  0.00    +0.000 HD
ENDBRANCH  11  16
ENDBRANCH   5  11
ENDBRANCH   1   8
BRANCH   3  18
ATOM     18  C   UNL     1       2.390   5.358  18.873  0.00  0.00    +0.000 A 
ATOM     19  C   UNL     1       1.601   4.224  18.674  0.00  0.00    +0.000 A 
ATOM     20  C   UNL     1       2.129   3.147  17.983  0.00  0.00    +0.000 A 
ATOM     21  N   UNL     1       3.371   3.129  17.468  0.00  0.00    +0.000 NA
ATOM     22  C   UNL     1       4.124   4.231  17.664  0.00  0.00    +0.000 A 
ATOM     23  C   UNL     1       3.690   5.346  18.364  0.00  0.00    +0.000 A 
BRANCH  22  24
ATOM     24  O   UNL     1       5.415   4.262  17.168  0.00  0.00    +0.000 OA
BRANCH  24  25
ATOM     25  C   UNL     1       6.363   4.602  18.182  0.00  0.00    +0.000 C 
BRANCH  25  26
ATOM     26  C   UNL     1       7.345   5.590  17.623  0.00  0.00    +0.000 C 
ATOM     27  C   UNL     1       6.946   7.025  17.389  0.00  0.00    +0.000 C 
ATOM     28  C   UNL     1       7.889   6.687  18.510  0.00  0.00    +0.000 C 
ENDBRANCH  25  26
ENDBRANCH  24  25
ENDBRANCH  22  24
ENDBRANCH   3  18
TORSDOF 7
ENDMDL
