MODEL 1
REMARK VINA RESULT:      -7.4      0.000      0.000
REMARK  Name = 
REMARK  2 active torsions:
REMARK  status: ('A' for Active; 'I' for Inactive)
REMARK    1  A    between atoms: N_10  and  C_11
REMARK    2  A    between atoms: C_14  and  O_15
REMARK                            x       y       z     vdW  Elec       q    Type
REMARK                         _______ _______ _______ _____ _____    ______ ____
ROOT
ATOM      1  O   UNL     1       5.521   3.247  19.659  0.00  0.00    +0.000 OA
ATOM      2  C   UNL     1       4.461   3.522  19.123  0.00  0.00    +0.000 C 
ATOM      3  C   UNL     1       3.183   3.303  19.799  0.00  0.00    +0.000 A 
ATOM      4  C   UNL     1       2.957   2.790  21.062  0.00  0.00    +0.000 A 
ATOM      5  C   UNL     1       1.631   2.673  21.477  0.00  0.00    +0.000 A 
ATOM      6  C   UNL     1       0.582   3.065  20.625  0.00  0.00    +0.000 A 
ATOM      7  C   UNL     1       0.841   3.587  19.350  0.00  0.00    +0.000 A 
ATOM      8  C   UNL     1       2.159   3.705  18.949  0.00  0.00    +0.000 A 
ATOM      9  C   UNL     1       2.740   4.233  17.680  0.00  0.00    +0.000 C 
ATOM     10  N   UNL     1       4.176   4.067  17.867  0.00  0.00    +0.000 N 
ENDROOT
BRANCH  10  11
ATOM     11  C   UNL     1       5.127   4.429  16.876  0.00  0.00    +0.000 A 
ATOM     12  C   UNL     1       5.163   3.785  15.630  0.00  0.00    +0.000 A 
ATOM     13  C   UNL     1       6.100   4.136  14.651  0.00  0.00    +0.000 A 
ATOM     14  C   UNL     1       7.021   5.137  14.917  0.00  0.00    +0.000 A 
ATOM     15  C   UNL     1       7.011   5.796  16.138  0.00  0.00    +0.000 A 
ATOM     16  C   UNL     1       6.065   5.447  17.110  0.00  0.00    +0.000 A 
BRANCH  14  17
ATOM     17  O   UNL     1       7.957   5.502  13.997  0.00  0.00    +0.000 OA
ATOM     18  H   UNL     1       8.448   4.706  13.730  0.00  0.00    +0.000 HD
ENDBRANCH  14  17
ENDBRANCH  10  11
TORSDOF 2
ENDMDL
MODEL 2
REMARK VINA RESULT:      -7.4      0.214      1.185
REMARK  Name = 
REMARK  2 active torsions:
REMARK  status: ('A' for Active; 'I' for Inactive)
REMARK    1  A    between atoms: N_10  and  C_11
REMARK    2  A    between atoms: C_14  and  O_15
REMARK                            x       y       z     vdW  Elec       q    Type
REMARK                         _______ _______ _______ _____ _____    ______ ____
ROOT
ATOM      1  O   UNL     1       5.555   3.630  19.664  0.00  0.00    +0.000 OA
ATOM      2  C   UNL     1       4.503   3.717  19.055  0.00  0.00    +0.000 C 
ATOM      3  C   UNL     1       3.221   3.431  19.699  0.00  0.00    +0.000 A 
ATOM      4  C   UNL     1       2.984   3.046  21.006  0.00  0.00    +0.000 A 
ATOM      5  C   UNL     1       1.659   2.825  21.377  0.00  0.00    +0.000 A 
ATOM      6  C   UNL     1       0.621   2.991  20.441  0.00  0.00    +0.000 A 
ATOM      7  C   UNL     1       0.890   3.388  19.124  0.00  0.00    +0.000 A 
ATOM      8  C   UNL     1       2.207   3.611  18.766  0.00  0.00    +0.000 A 
ATOM      9  C   UNL     1       2.795   4.051  17.467  0.00  0.00    +0.000 C 
ATOM     10  N   UNL     1       4.228   4.075  17.732  0.00  0.00    +0.000 N 
ENDROOT
BRANCH  10  11
ATOM     11  C   UNL     1       5.187   4.427  16.744  0.00  0.00    +0.000 A 
ATOM     12  C   UNL     1       6.148   5.420  16.981  0.00  0.00    +0.000 A 
ATOM     13  C   UNL     1       7.093   5.772  16.010  0.00  0.00    +0.000 A 
ATOM     14  C   UNL     1       7.077   5.133  14.781  0.00  0.00    +0.000 A 
ATOM     15  C   UNL     1       6.141   4.144  14.514  0.00  0.00    +0.000 A 
ATOM     16  C   UNL     1       5.203   3.790  15.493  0.00  0.00    +0.000 A 
BRANCH  14  17
ATOM     17  O   UNL     1       7.970   5.453  13.804  0.00  0.00    +0.000 OA
ATOM     18  H   UNL     1       8.828   5.634  14.223  0.00  0.00    +0.000 HD
ENDBRANCH  14  17
ENDBRANCH  10  11
TORSDOF 2
ENDMDL
MODEL 3
REMARK VINA RESULT:      -7.2      1.646      6.267
REMARK  Name = 
REMARK  2 active torsions:
REMARK  status: ('A' for Active; 'I' for Inactive)
REMARK    1  A    between atoms: N_10  and  C_11
REMARK    2  A    between atoms: C_14  and  O_15
REMARK                            x       y       z     vdW  Elec       q    Type
REMARK                         _______ _______ _______ _____ _____    ______ ____
ROOT
ATOM      1  O   UNL     1       6.152   4.718  19.362  0.00  0.00    +0.000 OA
ATOM      2  C   UNL     1       5.490   4.394  18.391  0.00  0.00    +0.000 C 
ATOM      3  C   UNL     1       5.996   4.568  17.030  0.00  0.00    +0.000 A 
ATOM      4  C   UNL     1       7.212   5.085  16.625  0.00  0.00    +0.000 A 
ATOM      5  C   UNL     1       7.454   5.153  15.254  0.00  0.00    +0.000 A 
ATOM      6  C   UNL     1       6.483   4.710  14.338  0.00  0.00    +0.000 A 
ATOM      7  C   UNL     1       5.259   4.185  14.777  0.00  0.00    +0.000 A 
ATOM      8  C   UNL     1       5.030   4.116  16.138  0.00  0.00    +0.000 A 
ATOM      9  C   UNL     1       3.853   3.599  16.896  0.00  0.00    +0.000 C 
ATOM     10  N   UNL     1       4.217   3.825  18.289  0.00  0.00    +0.000 N 
ENDROOT
BRANCH  10  11
ATOM     11  C   UNL     1       3.360   3.492  19.372  0.00  0.00    +0.000 A 
ATOM     12  C   UNL     1       3.766   2.601  20.376  0.00  0.00    +0.000 A 
ATOM     13  C   UNL     1       2.924   2.268  21.444  0.00  0.00    +0.000 A 
ATOM     14  C   UNL     1       1.656   2.822  21.510  0.00  0.00    +0.000 A 
ATOM     15  C   UNL     1       1.224   3.707  20.534  0.00  0.00    +0.000 A 
ATOM     16  C   UNL     1       2.073   4.045  19.473  0.00  0.00    +0.000 A 
BRANCH  14  17
ATOM     17  O   UNL     1       0.801   2.515  22.525  0.00  0.00    +0.000 OA
ATOM     18  H   UNL     1       1.018   1.625  22.849  0.00  0.00    +0.000 HD
ENDBRANCH  14  17
ENDBRANCH  10  11
TORSDOF 2
ENDMDL
MODEL 4
REMARK VINA RESULT:      -7.2      1.671      6.268
REMARK  Name = 
REMARK  2 active torsions:
REMARK  status: ('A' for Active; 'I' for Inactive)
REMARK    1  A    between atoms: N_10  and  C_11
REMARK    2  A    between atoms: C_14  and  O_15
REMARK                            x       y       z     vdW  Elec       q    Type
REMARK                         _______ _______ _______ _____ _____    ______ ____
ROOT
ATOM      1  O   UNL     1       6.000   4.866  19.447  0.00  0.00    +0.000 OA
ATOM      2  C   UNL     1       5.383   4.481  18.470  0.00  0.00    +0.000 C 
ATOM      3  C   UNL     1       5.916   4.640  17.117  0.00  0.00    +0.000 A 
ATOM      4  C   UNL     1       7.117   5.204  16.729  0.00  0.00    +0.000 A 
ATOM      5  C   UNL     1       7.394   5.244  15.363  0.00  0.00    +0.000 A 
ATOM      6  C   UNL     1       6.471   4.726  14.436  0.00  0.00    +0.000 A 
ATOM      7  C   UNL     1       5.263   4.154  14.858  0.00  0.00    +0.000 A 
ATOM      8  C   UNL     1       4.999   4.114  16.215  0.00  0.00    +0.000 A 
ATOM      9  C   UNL     1       3.828   3.561  16.956  0.00  0.00    +0.000 C 
ATOM     10  N   UNL     1       4.142   3.846  18.351  0.00  0.00    +0.000 N 
ENDROOT
BRANCH  10  11
ATOM     11  C   UNL     1       3.273   3.502  19.421  0.00  0.00    +0.000 A 
ATOM     12  C   UNL     1       1.982   4.044  19.514  0.00  0.00    +0.000 A 
ATOM     13  C   UNL     1       1.123   3.710  20.567  0.00  0.00    +0.000 A 
ATOM     14  C   UNL     1       1.555   2.831  21.547  0.00  0.00    +0.000 A 
ATOM     15  C   UNL     1       2.824   2.275  21.483  0.00  0.00    +0.000 A 
ATOM     16  C   UNL     1       3.677   2.605  20.422  0.00  0.00    +0.000 A 
BRANCH  14  17
ATOM     17  O   UNL     1       0.754   2.488  22.595  0.00  0.00    +0.000 OA
ATOM     18  H   UNL     1       0.334   1.636  22.392  0.00  0.00    +0.000 HD
ENDBRANCH  14  17
ENDBRANCH  10  11
TORSDOF 2
ENDMDL
MODEL 5
REMARK VINA RESULT:      -7.2      1.132      2.139
REMARK  Name = 
REMARK  2 active torsions:
REMARK  status: ('A' for Active; 'I' for Inactive)
REMARK    1  A    between atoms: N_10  and  C_11
REMARK    2  A    between atoms: C_14  and  O_15
REMARK                            x       y       z     vdW  Elec       q    Type
REMARK                         _______ _______ _______ _____ _____    ______ ____
ROOT
ATOM      1  O   UNL     1       2.343   5.264  17.580  0.00  0.00    +0.000 OA
ATOM      2  C   UNL     1       3.005   4.512  18.275  0.00  0.00    +0.000 C 
ATOM      3  C   UNL     1       2.443   3.882  19.469  0.00  0.00    +0.000 A 
ATOM      4  C   UNL     1       1.168   4.008  19.987  0.00  0.00    +0.000 A 
ATOM      5  C   UNL     1       0.878   3.302  21.154  0.00  0.00    +0.000 A 
ATOM      6  C   UNL     1       1.862   2.502  21.763  0.00  0.00    +0.000 A 
ATOM      7  C   UNL     1       3.146   2.388  21.213  0.00  0.00    +0.000 A 
ATOM      8  C   UNL     1       3.423   3.087  20.053  0.00  0.00    +0.000 A 
ATOM      9  C   UNL     1       4.670   3.149  19.236  0.00  0.00    +0.000 C 
ATOM     10  N   UNL     1       4.327   4.070  18.158  0.00  0.00    +0.000 N 
ENDROOT
BRANCH  10  11
ATOM     11  C   UNL     1       5.247   4.440  17.141  0.00  0.00    +0.000 A 
ATOM     12  C   UNL     1       6.256   5.385  17.379  0.00  0.00    +0.000 A 
ATOM     13  C   UNL     1       7.163   5.755  16.380  0.00  0.00    +0.000 A 
ATOM     14  C   UNL     1       7.061   5.184  15.121  0.00  0.00    +0.000 A 
ATOM     15  C   UNL     1       6.075   4.245  14.853  0.00  0.00    +0.000 A 
ATOM     16  C   UNL     1       5.176   3.871  15.860  0.00  0.00    +0.000 A 
BRANCH  14  17
ATOM     17  O   UNL     1       7.915   5.524  14.116  0.00  0.00    +0.000 OA
ATOM     18  H   UNL     1       8.318   4.710  13.770  0.00  0.00    +0.000 HD
ENDBRANCH  14  17
ENDBRANCH  10  11
TORSDOF 2
ENDMDL
MODEL 6
REMARK VINA RESULT:      -7.1      1.166      1.783
REMARK  Name = 
REMARK  2 active torsions:
REMARK  status: ('A' for Active; 'I' for Inactive)
REMARK    1  A    between atoms: N_10  and  C_11
REMARK    2  A    between atoms: C_14  and  O_15
REMARK                            x       y       z     vdW  Elec       q    Type
REMARK                         _______ _______ _______ _____ _____    ______ ____
ROOT
ATOM      1  O   UNL     1       2.491   5.614  17.718  0.00  0.00    +0.000 OA
ATOM      2  C   UNL     1       3.099   4.742  18.313  0.00  0.00    +0.000 C 
ATOM      3  C   UNL     1       2.532   4.082  19.488  0.00  0.00    +0.000 A 
ATOM      4  C   UNL     1       1.307   4.302  20.090  0.00  0.00    +0.000 A 
ATOM      5  C   UNL     1       1.001   3.539  21.216  0.00  0.00    +0.000 A 
ATOM      6  C   UNL     1       1.919   2.592  21.704  0.00  0.00    +0.000 A 
ATOM      7  C   UNL     1       3.152   2.385  21.071  0.00  0.00    +0.000 A 
ATOM      8  C   UNL     1       3.446   3.141  19.951  0.00  0.00    +0.000 A 
ATOM      9  C   UNL     1       4.648   3.135  19.068  0.00  0.00    +0.000 C 
ATOM     10  N   UNL     1       4.355   4.171  18.085  0.00  0.00    +0.000 N 
ENDROOT
BRANCH  10  11
ATOM     11  C   UNL     1       5.257   4.521  17.045  0.00  0.00    +0.000 A 
ATOM     12  C   UNL     1       5.088   4.039  15.739  0.00  0.00    +0.000 A 
ATOM     13  C   UNL     1       5.975   4.379  14.711  0.00  0.00    +0.000 A 
ATOM     14  C   UNL     1       7.053   5.205  14.988  0.00  0.00    +0.000 A 
ATOM     15  C   UNL     1       7.249   5.701  16.268  0.00  0.00    +0.000 A 
ATOM     16  C   UNL     1       6.352   5.365  17.290  0.00  0.00    +0.000 A 
BRANCH  14  17
ATOM     17  O   UNL     1       7.947   5.551  14.020  0.00  0.00    +0.000 OA
ATOM     18  H   UNL     1       7.743   6.455  13.726  0.00  0.00    +0.000 HD
ENDBRANCH  14  17
ENDBRANCH  10  11
TORSDOF 2
ENDMDL
MODEL 7
REMARK VINA RESULT:      -7.0      1.372      1.537
REMARK  Name = 
REMARK  2 active torsions:
REMARK  status: ('A' for Active; 'I' for Inactive)
REMARK    1  A    between atoms: N_10  and  C_11
REMARK    2  A    between atoms: C_14  and  O_15
REMARK                            x       y       z     vdW  Elec       q    Type
REMARK                         _______ _______ _______ _____ _____    ______ ____
ROOT
ATOM      1  O   UNL     1       3.740   6.345  18.327  0.00  0.00    +0.000 OA
ATOM      2  C   UNL     1       3.625   5.136  18.231  0.00  0.00    +0.000 C 
ATOM      3  C   UNL     1       2.692   4.388  19.073  0.00  0.00    +0.000 A 
ATOM      4  C   UNL     1       1.839   4.871  20.047  0.00  0.00    +0.000 A 
ATOM      5  C   UNL     1       1.047   3.942  20.721  0.00  0.00    +0.000 A 
ATOM      6  C   UNL     1       1.132   2.574  20.407  0.00  0.00    +0.000 A 
ATOM      7  C   UNL     1       2.003   2.112  19.410  0.00  0.00    +0.000 A 
ATOM      8  C   UNL     1       2.781   3.040  18.743  0.00  0.00    +0.000 A 
ATOM      9  C   UNL     1       3.770   2.859  17.640  0.00  0.00    +0.000 C 
ATOM     10  N   UNL     1       4.259   4.211  17.394  0.00  0.00    +0.000 N 
ENDROOT
BRANCH  10  11
ATOM     11  C   UNL     1       5.248   4.505  16.419  0.00  0.00    +0.000 A 
ATOM     12  C   UNL     1       5.078   4.143  15.075  0.00  0.00    +0.000 A 
ATOM     13  C   UNL     1       6.052   4.428  14.111  0.00  0.00    +0.000 A 
ATOM     14  C   UNL     1       7.216   5.076  14.489  0.00  0.00    +0.000 A 
ATOM     15  C   UNL     1       7.415   5.450  15.810  0.00  0.00    +0.000 A 
ATOM     16  C   UNL     1       6.434   5.170  16.769  0.00  0.00    +0.000 A 
BRANCH  14  17
ATOM     17  O   UNL     1       8.194   5.362  13.585  0.00  0.00    +0.000 OA
ATOM     18  H   UNL     1       7.772   5.583  12.738  0.00  0.00    +0.000 HD
ENDBRANCH  14  17
ENDBRANCH  10  11
TORSDOF 2
ENDMDL
MODEL 8
REMARK VINA RESULT:      -6.9      1.973      6.469
REMARK  Name = 
REMARK  2 active torsions:
REMARK  status: ('A' for Active; 'I' for Inactive)
REMARK    1  A    between atoms: N_10  and  C_11
REMARK    2  A    between atoms: C_14  and  O_15
REMARK                            x       y       z     vdW  Elec       q    Type
REMARK                         _______ _______ _______ _____ _____    ______ ____
ROOT
ATOM      1  O   UNL     1       2.783   3.268  16.424  0.00  0.00    +0.000 OA
ATOM      2  C   UNL     1       3.787   3.662  16.990  0.00  0.00    +0.000 C 
ATOM      3  C   UNL     1       4.957   4.119  16.240  0.00  0.00    +0.000 A 
ATOM      4  C   UNL     1       5.126   4.186  14.870  0.00  0.00    +0.000 A 
ATOM      5  C   UNL     1       6.351   4.657  14.399  0.00  0.00    +0.000 A 
ATOM      6  C   UNL     1       7.360   5.039  15.301  0.00  0.00    +0.000 A 
ATOM      7  C   UNL     1       7.160   4.966  16.686  0.00  0.00    +0.000 A 
ATOM      8  C   UNL     1       5.940   4.504  17.145  0.00  0.00    +0.000 A 
ATOM      9  C   UNL     1       5.432   4.333  18.538  0.00  0.00    +0.000 C 
ATOM     10  N   UNL     1       4.092   3.791  18.349  0.00  0.00    +0.000 N 
ENDROOT
BRANCH  10  11
ATOM     11  C   UNL     1       3.239   3.453  19.434  0.00  0.00    +0.000 A 
ATOM     12  C   UNL     1       1.939   3.970  19.527  0.00  0.00    +0.000 A 
ATOM     13  C   UNL     1       1.095   3.643  20.595  0.00  0.00    +0.000 A 
ATOM     14  C   UNL     1       1.554   2.794  21.590  0.00  0.00    +0.000 A 
ATOM     15  C   UNL     1       2.834   2.264  21.527  0.00  0.00    +0.000 A 
ATOM     16  C   UNL     1       3.671   2.587  20.451  0.00  0.00    +0.000 A 
BRANCH  14  17
ATOM     17  O   UNL     1       0.771   2.459  22.653  0.00  0.00    +0.000 OA
ATOM     18  H   UNL     1      -0.117   2.244  22.321  0.00  0.00    +0.000 HD
ENDBRANCH  14  17
ENDBRANCH  10  11
TORSDOF 2
ENDMDL
MODEL 9
REMARK VINA RESULT:      -6.9      1.272      1.695
REMARK  Name = 
REMARK  2 active torsions:
REMARK  status: ('A' for Active; 'I' for Inactive)
REMARK    1  A    between atoms: N_10  and  C_11
REMARK    2  A    between atoms: C_14  and  O_15
REMARK                            x       y       z     vdW  Elec       q    Type
REMARK                         _______ _______ _______ _____ _____    ______ ____
ROOT
ATOM      1  O   UNL     1       3.814   1.793  17.554  0.00  0.00    +0.000 OA
ATOM      2  C   UNL     1       3.747   2.851  18.155  0.00  0.00    +0.000 C 
ATOM      3  C   UNL     1       2.900   3.005  19.337  0.00  0.00    +0.000 A 
ATOM      4  C   UNL     1       2.091   2.062  19.943  0.00  0.00    +0.000 A 
ATOM      5  C   UNL     1       1.370   2.463  21.067  0.00  0.00    +0.000 A 
ATOM      6  C   UNL     1       1.476   3.782  21.544  0.00  0.00    +0.000 A 
ATOM      7  C   UNL     1       2.308   4.717  20.914  0.00  0.00    +0.000 A 
ATOM      8  C   UNL     1       3.024   4.309  19.804  0.00  0.00    +0.000 A 
ATOM      9  C   UNL     1       3.988   5.058  18.946  0.00  0.00    +0.000 C 
ATOM     10  N   UNL     1       4.377   4.080  17.936  0.00  0.00    +0.000 N 
ENDROOT
BRANCH  10  11
ATOM     11  C   UNL     1       5.285   4.380  16.885  0.00  0.00    +0.000 A 
ATOM     12  C   UNL     1       6.639   4.640  17.143  0.00  0.00    +0.000 A 
ATOM     13  C   UNL     1       7.537   4.939  16.112  0.00  0.00    +0.000 A 
ATOM     14  C   UNL     1       7.080   4.987  14.804  0.00  0.00    +0.000 A 
ATOM     15  C   UNL     1       5.748   4.733  14.514  0.00  0.00    +0.000 A 
ATOM     16  C   UNL     1       4.856   4.426  15.549  0.00  0.00    +0.000 A 
BRANCH  14  17
ATOM     17  O   UNL     1       7.918   5.285  13.772  0.00  0.00    +0.000 OA
ATOM     18  H   UNL     1       8.242   6.194  13.894  0.00  0.00    +0.000 HD
ENDBRANCH  14  17
ENDBRANCH  10  11
TORSDOF 2
ENDMDL
