MODEL 1
REMARK VINA RESULT:      -8.7      0.000      0.000
REMARK  Name = 
REMARK  6 active torsions:
REMARK  status: ('A' for Active; 'I' for Inactive)
REMARK    1  A    between atoms: N_1  and  S_2
REMARK    2  A    between atoms: S_2  and  C_5
REMARK    3  A    between atoms: C_8  and  C_9
REMARK    4  A    between atoms: N_12  and  C_13
REMARK    5  A    between atoms: C_13  and  C_14
REMARK    6  A    between atoms: C_20  and  C_21
REMARK                            x       y       z     vdW  Elec       q    Type
REMARK                         _______ _______ _______ _____ _____    ______ ____
ROOT
ATOM      1  C   UNL     1       2.778   5.905  19.445  0.00  0.00    +0.000 A 
ATOM      2  N   UNL     1       4.093   5.711  19.227  0.00  0.00    +0.000 NA
ATOM      3  C   UNL     1       4.562   4.464  19.364  0.00  0.00    +0.000 A 
ATOM      4  N   UNL     1       5.879   4.147  19.041  0.00  0.00    +0.000 N 
ATOM      5  C   UNL     1       3.744   3.417  19.739  0.00  0.00    +0.000 A 
ATOM      6  C   UNL     1       2.399   3.681  19.906  0.00  0.00    +0.000 A 
ATOM      7  N   UNL     1       1.903   4.934  19.764  0.00  0.00    +0.000 NA
ATOM      8  H   UNL     1       6.367   3.687  19.802  0.00  0.00    +0.000 HD
ENDROOT
BRANCH   1  12
ATOM      9  C   UNL     1       1.181   9.883  19.169  0.00  0.00    +0.000 A 
ATOM     10  C   UNL     1       1.816   9.318  18.061  0.00  0.00    +0.000 A 
ATOM     11  C   UNL     1       2.339   8.022  18.156  0.00  0.00    +0.000 A 
ATOM     12  C   UNL     1       2.255   7.280  19.354  0.00  0.00    +0.000 A 
ATOM     13  C   UNL     1       1.632   7.891  20.456  0.00  0.00    +0.000 A 
ATOM     14  C   UNL     1       1.093   9.177  20.370  0.00  0.00    +0.000 A 
BRANCH   9  15
ATOM     15  S   UNL     1       0.451  11.490  19.049  0.00  0.00    +0.000 S 
ATOM     16  O   UNL     1       0.524  12.131  20.338  0.00  0.00    +0.000 OA
ATOM     17  O   UNL     1      -0.770  11.402  18.286  0.00  0.00    +0.000 OA
BRANCH  15  18
ATOM     18  N   UNL     1       1.536  12.297  18.050  0.00  0.00    +0.000 NA
ATOM     19  H   UNL     1       1.809  11.681  17.280  0.00  0.00    +0.000 HD
ATOM     20  H   UNL     1       2.325  12.642  18.597  0.00  0.00    +0.000 HD
ENDBRANCH  15  18
ENDBRANCH   9  15
ENDBRANCH   1  12
BRANCH   6  21
ATOM     21  C   UNL     1       1.447   2.539  20.209  0.00  0.00    +0.000 C 
ATOM     22  F   UNL     1       1.424   2.192  21.531  0.00  0.00    +0.000 F 
ATOM     23  F   UNL     1       0.152   2.818  19.886  0.00  0.00    +0.000 F 
ATOM     24  F   UNL     1       1.765   1.393  19.541  0.00  0.00    +0.000 F 
ENDBRANCH   6  21
BRANCH   4  25
ATOM     25  C   UNL     1       6.689   5.155  18.377  0.00  0.00    +0.000 C 
BRANCH  25  26
ATOM     26  C   UNL     1       6.485   5.133  16.883  0.00  0.00    +0.000 A 
ATOM     27  C   UNL     1       5.560   5.986  16.191  0.00  0.00    +0.000 A 
ATOM     28  C   UNL     1       5.523   5.744  14.835  0.00  0.00    +0.000 A 
ATOM     29  S   UNL     1       6.592   4.491  14.382  0.00  0.00    +0.000 S 
ATOM     30  C   UNL     1       7.106   4.268  16.000  0.00  0.00    +0.000 A 
ENDBRANCH  25  26
ENDBRANCH   4  25
TORSDOF 6
ENDMDL
MODEL 2
REMARK VINA RESULT:      -8.7      0.648      1.036
REMARK  Name = 
REMARK  6 active torsions:
REMARK  status: ('A' for Active; 'I' for Inactive)
REMARK    1  A    between atoms: N_1  and  S_2
REMARK    2  A    between atoms: S_2  and  C_5
REMARK    3  A    between atoms: C_8  and  C_9
REMARK    4  A    between atoms: N_12  and  C_13
REMARK    5  A    between atoms: C_13  and  C_14
REMARK    6  A    between atoms: C_20  and  C_21
REMARK                            x       y       z     vdW  Elec       q    Type
REMARK                         _______ _______ _______ _____ _____    ______ ____
ROOT
ATOM      1  C   UNL     1       2.783   5.896  19.451  0.00  0.00    +0.000 A 
ATOM      2  N   UNL     1       4.098   5.711  19.231  0.00  0.00    +0.000 NA
ATOM      3  C   UNL     1       4.577   4.467  19.370  0.00  0.00    +0.000 A 
ATOM      4  N   UNL     1       5.895   4.158  19.044  0.00  0.00    +0.000 N 
ATOM      5  C   UNL     1       3.766   3.416  19.749  0.00  0.00    +0.000 A 
ATOM      6  C   UNL     1       2.419   3.671  19.918  0.00  0.00    +0.000 A 
ATOM      7  N   UNL     1       1.915   4.921  19.775  0.00  0.00    +0.000 NA
ATOM      8  H   UNL     1       6.387   3.704  19.805  0.00  0.00    +0.000 HD
ENDROOT
BRANCH   1  12
ATOM      9  C   UNL     1       1.159   9.863  19.171  0.00  0.00    +0.000 A 
ATOM     10  C   UNL     1       1.782   9.295  18.058  0.00  0.00    +0.000 A 
ATOM     11  C   UNL     1       2.314   8.003  18.155  0.00  0.00    +0.000 A 
ATOM     12  C   UNL     1       2.251   7.268  19.359  0.00  0.00    +0.000 A 
ATOM     13  C   UNL     1       1.638   7.883  20.465  0.00  0.00    +0.000 A 
ATOM     14  C   UNL     1       1.090   9.164  20.377  0.00  0.00    +0.000 A 
BRANCH   9  15
ATOM     15  S   UNL     1       0.417  11.465  19.050  0.00  0.00    +0.000 S 
ATOM     16  O   UNL     1       1.392  12.390  18.527  0.00  0.00    +0.000 OA
ATOM     17  O   UNL     1      -0.350  11.727  20.243  0.00  0.00    +0.000 OA
BRANCH  15  18
ATOM     18  N   UNL     1      -0.723  11.235  17.836  0.00  0.00    +0.000 NA
ATOM     19  H   UNL     1      -1.415  10.548  18.148  0.00  0.00    +0.000 HD
ATOM     20  H   UNL     1      -0.259  10.980  16.964  0.00  0.00    +0.000 HD
ENDBRANCH  15  18
ENDBRANCH   9  15
ENDBRANCH   1  12
BRANCH   6  21
ATOM     21  C   UNL     1       1.476   2.523  20.226  0.00  0.00    +0.000 C 
ATOM     22  F   UNL     1       1.763   1.387  19.522  0.00  0.00    +0.000 F 
ATOM     23  F   UNL     1       1.493   2.151  21.537  0.00  0.00    +0.000 F 
ATOM     24  F   UNL     1       0.176   2.811  19.930  0.00  0.00    +0.000 F 
ENDBRANCH   6  21
BRANCH   4  25
ATOM     25  C   UNL     1       6.696   5.170  18.376  0.00  0.00    +0.000 C 
BRANCH  25  26
ATOM     26  C   UNL     1       6.493   5.140  16.882  0.00  0.00    +0.000 A 
ATOM     27  C   UNL     1       5.570   5.992  16.184  0.00  0.00    +0.000 A 
ATOM     28  C   UNL     1       5.533   5.742  14.831  0.00  0.00    +0.000 A 
ATOM     29  S   UNL     1       6.599   4.484  14.385  0.00  0.00    +0.000 S 
ATOM     30  C   UNL     1       7.111   4.269  16.004  0.00  0.00    +0.000 A 
ENDBRANCH  25  26
ENDBRANCH   4  25
TORSDOF 6
ENDMDL
MODEL 3
REMARK VINA RESULT:      -8.7      0.177      1.175
REMARK  Name = 
REMARK  6 active torsions:
REMARK  status: ('A' for Active; 'I' for Inactive)
REMARK    1  A    between atoms: N_1  and  S_2
REMARK    2  A    between atoms: S_2  and  C_5
REMARK    3  A    between atoms: C_8  and  C_9
REMARK    4  A    between atoms: N_12  and  C_13
REMARK    5  A    between atoms: C_13  and  C_14
REMARK    6  A    between atoms: C_20  and  C_21
REMARK                            x       y       z     vdW  Elec       q    Type
REMARK                         _______ _______ _______ _____ _____    ______ ____
ROOT
ATOM      1  C   UNL     1       2.755   5.891  19.425  0.00  0.00    +0.000 A 
ATOM      2  N   UNL     1       4.073   5.700  19.224  0.00  0.00    +0.000 NA
ATOM      3  C   UNL     1       4.544   4.454  19.366  0.00  0.00    +0.000 A 
ATOM      4  N   UNL     1       5.865   4.140  19.059  0.00  0.00    +0.000 N 
ATOM      5  C   UNL     1       3.723   3.405  19.729  0.00  0.00    +0.000 A 
ATOM      6  C   UNL     1       2.375   3.667  19.879  0.00  0.00    +0.000 A 
ATOM      7  N   UNL     1       1.878   4.918  19.732  0.00  0.00    +0.000 NA
ATOM      8  H   UNL     1       6.344   3.681  19.826  0.00  0.00    +0.000 HD
ENDROOT
BRANCH   1  12
ATOM      9  C   UNL     1       1.301   9.924  19.159  0.00  0.00    +0.000 A 
ATOM     10  C   UNL     1       1.139   9.211  20.350  0.00  0.00    +0.000 A 
ATOM     11  C   UNL     1       1.610   7.895  20.431  0.00  0.00    +0.000 A 
ATOM     12  C   UNL     1       2.231   7.265  19.329  0.00  0.00    +0.000 A 
ATOM     13  C   UNL     1       2.354   8.006  18.141  0.00  0.00    +0.000 A 
ATOM     14  C   UNL     1       1.901   9.324  18.051  0.00  0.00    +0.000 A 
BRANCH   9  15
ATOM     15  S   UNL     1       0.777  11.611  19.058  0.00  0.00    +0.000 S 
ATOM     16  O   UNL     1       1.076  12.265  20.308  0.00  0.00    +0.000 OA
ATOM     17  O   UNL     1      -0.522  11.671  18.435  0.00  0.00    +0.000 OA
BRANCH  15  18
ATOM     18  N   UNL     1       1.841  12.244  17.921  0.00  0.00    +0.000 NA
ATOM     19  H   UNL     1       2.467  12.911  18.378  0.00  0.00    +0.000 HD
ATOM     20  H   UNL     1       1.322  12.641  17.138  0.00  0.00    +0.000 HD
ENDBRANCH  15  18
ENDBRANCH   9  15
ENDBRANCH   1  12
BRANCH   6  21
ATOM     21  C   UNL     1       1.422   2.522  20.169  0.00  0.00    +0.000 C 
ATOM     22  F   UNL     1       1.816   1.338  19.610  0.00  0.00    +0.000 F 
ATOM     23  F   UNL     1       1.281   2.264  21.500  0.00  0.00    +0.000 F 
ATOM     24  F   UNL     1       0.164   2.745  19.690  0.00  0.00    +0.000 F 
ENDBRANCH   6  21
BRANCH   4  25
ATOM     25  C   UNL     1       6.681   5.151  18.406  0.00  0.00    +0.000 C 
BRANCH  25  26
ATOM     26  C   UNL     1       6.482   5.142  16.912  0.00  0.00    +0.000 A 
ATOM     27  C   UNL     1       5.553   5.996  16.224  0.00  0.00    +0.000 A 
ATOM     28  C   UNL     1       5.522   5.767  14.867  0.00  0.00    +0.000 A 
ATOM     29  S   UNL     1       6.601   4.526  14.404  0.00  0.00    +0.000 S 
ATOM     30  C   UNL     1       7.111   4.291  16.022  0.00  0.00    +0.000 A 
ENDBRANCH  25  26
ENDBRANCH   4  25
TORSDOF 6
ENDMDL
MODEL 4
REMARK VINA RESULT:      -8.6      0.662      1.436
REMARK  Name = 
REMARK  6 active torsions:
REMARK  status: ('A' for Active; 'I' for Inactive)
REMARK    1  A    between atoms: N_1  and  S_2
REMARK    2  A    between atoms: S_2  and  C_5
REMARK    3  A    between atoms: C_8  and  C_9
REMARK    4  A    between atoms: N_12  and  C_13
REMARK    5  A    between atoms: C_13  and  C_14
REMARK    6  A    between atoms: C_20  and  C_21
REMARK                            x       y       z     vdW  Elec       q    Type
REMARK                         _______ _______ _______ _____ _____    ______ ____
ROOT
ATOM      1  C   UNL     1       2.668   6.032  19.520  0.00  0.00    +0.000 A 
ATOM      2  N   UNL     1       3.991   5.851  19.338  0.00  0.00    +0.000 NA
ATOM      3  C   UNL     1       4.471   4.611  19.501  0.00  0.00    +0.000 A 
ATOM      4  N   UNL     1       5.799   4.306  19.215  0.00  0.00    +0.000 N 
ATOM      5  C   UNL     1       3.655   3.560  19.867  0.00  0.00    +0.000 A 
ATOM      6  C   UNL     1       2.303   3.810  19.997  0.00  0.00    +0.000 A 
ATOM      7  N   UNL     1       1.797   5.055  19.829  0.00  0.00    +0.000 NA
ATOM      8  H   UNL     1       6.272   3.861  19.994  0.00  0.00    +0.000 HD
ENDROOT
BRANCH   1  12
ATOM      9  C   UNL     1       1.180  10.047  19.184  0.00  0.00    +0.000 A 
ATOM     10  C   UNL     1       1.026   9.355  20.388  0.00  0.00    +0.000 A 
ATOM     11  C   UNL     1       1.509   8.044  20.491  0.00  0.00    +0.000 A 
ATOM     12  C   UNL     1       2.132   7.400  19.400  0.00  0.00    +0.000 A 
ATOM     13  C   UNL     1       2.247   8.120  18.199  0.00  0.00    +0.000 A 
ATOM     14  C   UNL     1       1.783   9.433  18.086  0.00  0.00    +0.000 A 
BRANCH   9  15
ATOM     15  S   UNL     1       0.642  11.728  19.054  0.00  0.00    +0.000 S 
ATOM     16  O   UNL     1       1.667  12.493  18.388  0.00  0.00    +0.000 OA
ATOM     17  O   UNL     1       0.048  12.136  20.303  0.00  0.00    +0.000 OA
BRANCH  15  18
ATOM     18  N   UNL     1      -0.641  11.605  17.974  0.00  0.00    +0.000 NA
ATOM     19  H   UNL     1      -0.654  10.665  17.571  0.00  0.00    +0.000 HD
ATOM     20  H   UNL     1      -0.585  12.348  17.278  0.00  0.00    +0.000 HD
ENDBRANCH  15  18
ENDBRANCH   9  15
ENDBRANCH   1  12
BRANCH   6  21
ATOM     21  C   UNL     1       1.357   2.659  20.289  0.00  0.00    +0.000 C 
ATOM     22  F   UNL     1       0.114   2.834  19.749  0.00  0.00    +0.000 F 
ATOM     23  F   UNL     1       1.798   1.465  19.803  0.00  0.00    +0.000 F 
ATOM     24  F   UNL     1       1.147   2.471  21.624  0.00  0.00    +0.000 F 
ENDBRANCH   6  21
BRANCH   4  25
ATOM     25  C   UNL     1       6.613   5.316  18.560  0.00  0.00    +0.000 C 
BRANCH  25  26
ATOM     26  C   UNL     1       6.468   5.257  17.060  0.00  0.00    +0.000 A 
ATOM     27  C   UNL     1       5.542   6.064  16.315  0.00  0.00    +0.000 A 
ATOM     28  C   UNL     1       5.566   5.794  14.965  0.00  0.00    +0.000 A 
ATOM     29  S   UNL     1       6.693   4.569  14.579  0.00  0.00    +0.000 S 
ATOM     30  C   UNL     1       7.151   4.397  16.220  0.00  0.00    +0.000 A 
ENDBRANCH  25  26
ENDBRANCH   4  25
TORSDOF 6
ENDMDL
MODEL 5
REMARK VINA RESULT:      -8.6      0.687      1.148
REMARK  Name = 
REMARK  6 active torsions:
REMARK  status: ('A' for Active; 'I' for Inactive)
REMARK    1  A    between atoms: N_1  and  S_2
REMARK    2  A    between atoms: S_2  and  C_5
REMARK    3  A    between atoms: C_8  and  C_9
REMARK    4  A    between atoms: N_12  and  C_13
REMARK    5  A    between atoms: C_13  and  C_14
REMARK    6  A    between atoms: C_20  and  C_21
REMARK                            x       y       z     vdW  Elec       q    Type
REMARK                         _______ _______ _______ _____ _____    ______ ____
ROOT
ATOM      1  C   UNL     1       2.812   5.888  19.429  0.00  0.00    +0.000 A 
ATOM      2  N   UNL     1       4.128   5.695  19.220  0.00  0.00    +0.000 NA
ATOM      3  C   UNL     1       4.599   4.450  19.369  0.00  0.00    +0.000 A 
ATOM      4  N   UNL     1       5.919   4.132  19.055  0.00  0.00    +0.000 N 
ATOM      5  C   UNL     1       3.781   3.405  19.749  0.00  0.00    +0.000 A 
ATOM      6  C   UNL     1       2.435   3.668  19.907  0.00  0.00    +0.000 A 
ATOM      7  N   UNL     1       1.937   4.919  19.753  0.00  0.00    +0.000 NA
ATOM      8  H   UNL     1       6.403   3.680  19.822  0.00  0.00    +0.000 HD
ENDROOT
BRANCH   1  12
ATOM      9  C   UNL     1       1.210   9.861  19.113  0.00  0.00    +0.000 A 
ATOM     10  C   UNL     1       1.855   9.290  18.014  0.00  0.00    +0.000 A 
ATOM     11  C   UNL     1       2.380   7.996  18.123  0.00  0.00    +0.000 A 
ATOM     12  C   UNL     1       2.287   7.262  19.325  0.00  0.00    +0.000 A 
ATOM     13  C   UNL     1       1.652   7.879  20.417  0.00  0.00    +0.000 A 
ATOM     14  C   UNL     1       1.111   9.163  20.317  0.00  0.00    +0.000 A 
BRANCH   9  15
ATOM     15  S   UNL     1       0.477  11.465  18.975  0.00  0.00    +0.000 S 
ATOM     16  O   UNL     1      -0.788  11.341  18.293  0.00  0.00    +0.000 OA
ATOM     17  O   UNL     1       1.486  12.418  18.585  0.00  0.00    +0.000 OA
BRANCH  15  18
ATOM     18  N   UNL     1       0.122  11.831  20.578  0.00  0.00    +0.000 NA
ATOM     19  H   UNL     1       0.152  10.972  21.134  0.00  0.00    +0.000 HD
ATOM     20  H   UNL     1      -0.768  12.324  20.636  0.00  0.00    +0.000 HD
ENDBRANCH  15  18
ENDBRANCH   9  15
ENDBRANCH   1  12
BRANCH   6  21
ATOM     21  C   UNL     1       1.483   2.526  20.215  0.00  0.00    +0.000 C 
ATOM     22  F   UNL     1       0.185   2.805  19.891  0.00  0.00    +0.000 F 
ATOM     23  F   UNL     1       1.786   1.379  19.542  0.00  0.00    +0.000 F 
ATOM     24  F   UNL     1       1.462   2.195  21.538  0.00  0.00    +0.000 F 
ENDBRANCH   6  21
BRANCH   4  25
ATOM     25  C   UNL     1       6.729   5.137  18.387  0.00  0.00    +0.000 C 
BRANCH  25  26
ATOM     26  C   UNL     1       6.499   5.132  16.897  0.00  0.00    +0.000 A 
ATOM     27  C   UNL     1       5.604   6.033  16.224  0.00  0.00    +0.000 A 
ATOM     28  C   UNL     1       5.531   5.800  14.869  0.00  0.00    +0.000 A 
ATOM     29  S   UNL     1       6.532   4.500  14.391  0.00  0.00    +0.000 S 
ATOM     30  C   UNL     1       7.062   4.244  15.999  0.00  0.00    +0.000 A 
ENDBRANCH  25  26
ENDBRANCH   4  25
TORSDOF 6
ENDMDL
MODEL 6
REMARK VINA RESULT:      -8.4      0.774      1.243
REMARK  Name = 
REMARK  6 active torsions:
REMARK  status: ('A' for Active; 'I' for Inactive)
REMARK    1  A    between atoms: N_1  and  S_2
REMARK    2  A    between atoms: S_2  and  C_5
REMARK    3  A    between atoms: C_8  and  C_9
REMARK    4  A    between atoms: N_12  and  C_13
REMARK    5  A    between atoms: C_13  and  C_14
REMARK    6  A    between atoms: C_20  and  C_21
REMARK                            x       y       z     vdW  Elec       q    Type
REMARK                         _______ _______ _______ _____ _____    ______ ____
ROOT
ATOM      1  C   UNL     1       2.658   5.985  19.629  0.00  0.00    +0.000 A 
ATOM      2  N   UNL     1       3.976   5.824  19.403  0.00  0.00    +0.000 NA
ATOM      3  C   UNL     1       4.469   4.582  19.492  0.00  0.00    +0.000 A 
ATOM      4  N   UNL     1       5.791   4.302  19.155  0.00  0.00    +0.000 N 
ATOM      5  C   UNL     1       3.670   3.507  19.828  0.00  0.00    +0.000 A 
ATOM      6  C   UNL     1       2.321   3.739  20.007  0.00  0.00    +0.000 A 
ATOM      7  N   UNL     1       1.802   4.987  19.913  0.00  0.00    +0.000 NA
ATOM      8  H   UNL     1       6.288   3.824  19.898  0.00  0.00    +0.000 HD
ENDROOT
BRANCH   1  12
ATOM      9  C   UNL     1       1.132  10.000  19.534  0.00  0.00    +0.000 A 
ATOM     10  C   UNL     1       0.991   9.237  20.696  0.00  0.00    +0.000 A 
ATOM     11  C   UNL     1       1.486   7.927  20.721  0.00  0.00    +0.000 A 
ATOM     12  C   UNL     1       2.109   7.353  19.592  0.00  0.00    +0.000 A 
ATOM     13  C   UNL     1       2.211   8.142  18.433  0.00  0.00    +0.000 A 
ATOM     14  C   UNL     1       1.735   9.455  18.399  0.00  0.00    +0.000 A 
BRANCH   9  15
ATOM     15  S   UNL     1       0.579  11.680  19.504  0.00  0.00    +0.000 S 
ATOM     16  O   UNL     1      -0.860  11.696  19.588  0.00  0.00    +0.000 OA
ATOM     17  O   UNL     1       1.313  12.405  18.496  0.00  0.00    +0.000 OA
BRANCH  15  18
ATOM     18  N   UNL     1       1.151  12.266  20.972  0.00  0.00    +0.000 NA
ATOM     19  H   UNL     1       2.154  12.452  20.894  0.00  0.00    +0.000 HD
ATOM     20  H   UNL     1       0.913  11.620  21.724  0.00  0.00    +0.000 HD
ENDBRANCH  15  18
ENDBRANCH   9  15
ENDBRANCH   1  12
BRANCH   6  21
ATOM     21  C   UNL     1       1.391   2.568  20.267  0.00  0.00    +0.000 C 
ATOM     22  F   UNL     1       1.344   2.201  21.583  0.00  0.00    +0.000 F 
ATOM     23  F   UNL     1       0.099   2.820  19.914  0.00  0.00    +0.000 F 
ATOM     24  F   UNL     1       1.756   1.441  19.591  0.00  0.00    +0.000 F 
ENDBRANCH   6  21
BRANCH   4  25
ATOM     25  C   UNL     1       6.580   5.350  18.529  0.00  0.00    +0.000 C 
BRANCH  25  26
ATOM     26  C   UNL     1       6.445   5.322  17.028  0.00  0.00    +0.000 A 
ATOM     27  C   UNL     1       5.507   6.126  16.294  0.00  0.00    +0.000 A 
ATOM     28  C   UNL     1       5.544   5.886  14.939  0.00  0.00    +0.000 A 
ATOM     29  S   UNL     1       6.700   4.695  14.533  0.00  0.00    +0.000 S 
ATOM     30  C   UNL     1       7.151   4.496  16.172  0.00  0.00    +0.000 A 
ENDBRANCH  25  26
ENDBRANCH   4  25
TORSDOF 6
ENDMDL
MODEL 7
REMARK VINA RESULT:      -8.3      1.349      1.872
REMARK  Name = 
REMARK  6 active torsions:
REMARK  status: ('A' for Active; 'I' for Inactive)
REMARK    1  A    between atoms: N_1  and  S_2
REMARK    2  A    between atoms: S_2  and  C_5
REMARK    3  A    between atoms: C_8  and  C_9
REMARK    4  A    between atoms: N_12  and  C_13
REMARK    5  A    between atoms: C_13  and  C_14
REMARK    6  A    between atoms: C_20  and  C_21
REMARK                            x       y       z     vdW  Elec       q    Type
REMARK                         _______ _______ _______ _____ _____    ______ ____
ROOT
ATOM      1  C   UNL     1       2.827   5.887  19.246  0.00  0.00    +0.000 A 
ATOM      2  N   UNL     1       3.950   5.627  18.549  0.00  0.00    +0.000 NA
ATOM      3  C   UNL     1       4.465   4.395  18.648  0.00  0.00    +0.000 A 
ATOM      4  N   UNL     1       5.551   4.000  17.870  0.00  0.00    +0.000 N 
ATOM      5  C   UNL     1       3.890   3.430  19.451  0.00  0.00    +0.000 A 
ATOM      6  C   UNL     1       2.718   3.754  20.105  0.00  0.00    +0.000 A 
ATOM      7  N   UNL     1       2.176   4.992  20.012  0.00  0.00    +0.000 NA
ATOM      8  H   UNL     1       6.313   3.628  18.426  0.00  0.00    +0.000 HD
ENDROOT
BRANCH   1  12
ATOM      9  C   UNL     1       1.154   9.840  19.084  0.00  0.00    +0.000 A 
ATOM     10  C   UNL     1       1.757   9.301  17.945  0.00  0.00    +0.000 A 
ATOM     11  C   UNL     1       2.305   8.013  18.004  0.00  0.00    +0.000 A 
ATOM     12  C   UNL     1       2.278   7.254  19.194  0.00  0.00    +0.000 A 
ATOM     13  C   UNL     1       1.685   7.839  20.326  0.00  0.00    +0.000 A 
ATOM     14  C   UNL     1       1.121   9.117  20.277  0.00  0.00    +0.000 A 
BRANCH   9  15
ATOM     15  S   UNL     1       0.392  11.435  19.012  0.00  0.00    +0.000 S 
ATOM     16  O   UNL     1       0.419  12.022  20.329  0.00  0.00    +0.000 OA
ATOM     17  O   UNL     1      -0.807  11.355  18.215  0.00  0.00    +0.000 OA
BRANCH  15  18
ATOM     18  N   UNL     1       1.485  12.306  18.078  0.00  0.00    +0.000 NA
ATOM     19  H   UNL     1       1.082  13.219  17.850  0.00  0.00    +0.000 HD
ATOM     20  H   UNL     1       1.755  11.764  17.258  0.00  0.00    +0.000 HD
ENDBRANCH  15  18
ENDBRANCH   9  15
ENDBRANCH   1  12
BRANCH   6  21
ATOM     21  C   UNL     1       1.995   2.688  20.909  0.00  0.00    +0.000 C 
ATOM     22  F   UNL     1       0.810   3.122  21.435  0.00  0.00    +0.000 F 
ATOM     23  F   UNL     1       1.681   1.583  20.175  0.00  0.00    +0.000 F 
ATOM     24  F   UNL     1       2.721   2.243  21.974  0.00  0.00    +0.000 F 
ENDBRANCH   6  21
BRANCH   4  25
ATOM     25  C   UNL     1       6.002   4.890  16.813  0.00  0.00    +0.000 C 
BRANCH  25  26
ATOM     26  C   UNL     1       6.836   6.020  17.361  0.00  0.00    +0.000 A 
ATOM     27  C   UNL     1       7.707   5.893  18.497  0.00  0.00    +0.000 A 
ATOM     28  C   UNL     1       8.325   7.078  18.831  0.00  0.00    +0.000 A 
ATOM     29  S   UNL     1       7.865   8.352  17.790  0.00  0.00    +0.000 S 
ATOM     30  C   UNL     1       6.835   7.321  16.891  0.00  0.00    +0.000 A 
ENDBRANCH  25  26
ENDBRANCH   4  25
TORSDOF 6
ENDMDL
MODEL 8
REMARK VINA RESULT:      -8.2      1.356      2.173
REMARK  Name = 
REMARK  6 active torsions:
REMARK  status: ('A' for Active; 'I' for Inactive)
REMARK    1  A    between atoms: N_1  and  S_2
REMARK    2  A    between atoms: S_2  and  C_5
REMARK    3  A    between atoms: C_8  and  C_9
REMARK    4  A    between atoms: N_12  and  C_13
REMARK    5  A    between atoms: C_13  and  C_14
REMARK    6  A    between atoms: C_20  and  C_21
REMARK                            x       y       z     vdW  Elec       q    Type
REMARK                         _______ _______ _______ _____ _____    ______ ____
ROOT
ATOM      1  C   UNL     1       2.823   5.879  19.301  0.00  0.00    +0.000 A 
ATOM      2  N   UNL     1       3.945   5.616  18.603  0.00  0.00    +0.000 NA
ATOM      3  C   UNL     1       4.469   4.389  18.719  0.00  0.00    +0.000 A 
ATOM      4  N   UNL     1       5.553   3.989  17.942  0.00  0.00    +0.000 N 
ATOM      5  C   UNL     1       3.904   3.434  19.540  0.00  0.00    +0.000 A 
ATOM      6  C   UNL     1       2.733   3.760  20.195  0.00  0.00    +0.000 A 
ATOM      7  N   UNL     1       2.182   4.993  20.083  0.00  0.00    +0.000 NA
ATOM      8  H   UNL     1       6.321   3.631  18.501  0.00  0.00    +0.000 HD
ENDROOT
BRANCH   1  12
ATOM      9  C   UNL     1       1.270   9.880  19.104  0.00  0.00    +0.000 A 
ATOM     10  C   UNL     1       1.143   9.149  20.289  0.00  0.00    +0.000 A 
ATOM     11  C   UNL     1       1.647   7.844  20.347  0.00  0.00    +0.000 A 
ATOM     12  C   UNL     1       2.265   7.242  19.229  0.00  0.00    +0.000 A 
ATOM     13  C   UNL     1       2.352   7.999  18.048  0.00  0.00    +0.000 A 
ATOM     14  C   UNL     1       1.867   9.307  17.981  0.00  0.00    +0.000 A 
BRANCH   9  15
ATOM     15  S   UNL     1       0.705  11.555  19.031  0.00  0.00    +0.000 S 
ATOM     16  O   UNL     1       0.957  12.185  20.304  0.00  0.00    +0.000 OA
ATOM     17  O   UNL     1      -0.579  11.596  18.377  0.00  0.00    +0.000 OA
BRANCH  15  18
ATOM     18  N   UNL     1       1.780  12.242  17.936  0.00  0.00    +0.000 NA
ATOM     19  H   UNL     1       1.253  12.676  17.174  0.00  0.00    +0.000 HD
ATOM     20  H   UNL     1       2.453  11.544  17.621  0.00  0.00    +0.000 HD
ENDBRANCH  15  18
ENDBRANCH   9  15
ENDBRANCH   1  12
BRANCH   6  21
ATOM     21  C   UNL     1       2.020   2.703  21.018  0.00  0.00    +0.000 C 
ATOM     22  F   UNL     1       1.577   1.647  20.272  0.00  0.00    +0.000 F 
ATOM     23  F   UNL     1       2.808   2.156  21.987  0.00  0.00    +0.000 F 
ATOM     24  F   UNL     1       0.914   3.184  21.655  0.00  0.00    +0.000 F 
ENDBRANCH   6  21
BRANCH   4  25
ATOM     25  C   UNL     1       5.994   4.864  16.869  0.00  0.00    +0.000 C 
BRANCH  25  26
ATOM     26  C   UNL     1       6.831   6.004  17.394  0.00  0.00    +0.000 A 
ATOM     27  C   UNL     1       7.704   5.897  18.530  0.00  0.00    +0.000 A 
ATOM     28  C   UNL     1       8.324   7.087  18.840  0.00  0.00    +0.000 A 
ATOM     29  S   UNL     1       7.864   8.342  17.776  0.00  0.00    +0.000 S 
ATOM     30  C   UNL     1       6.831   7.295  16.899  0.00  0.00    +0.000 A 
ENDBRANCH  25  26
ENDBRANCH   4  25
TORSDOF 6
ENDMDL
MODEL 9
REMARK VINA RESULT:      -8.2      1.495      2.165
REMARK  Name = 
REMARK  6 active torsions:
REMARK  status: ('A' for Active; 'I' for Inactive)
REMARK    1  A    between atoms: N_1  and  S_2
REMARK    2  A    between atoms: S_2  and  C_5
REMARK    3  A    between atoms: C_8  and  C_9
REMARK    4  A    between atoms: N_12  and  C_13
REMARK    5  A    between atoms: C_13  and  C_14
REMARK    6  A    between atoms: C_20  and  C_21
REMARK                            x       y       z     vdW  Elec       q    Type
REMARK                         _______ _______ _______ _____ _____    ______ ____
ROOT
ATOM      1  C   UNL     1       2.807   5.900  19.250  0.00  0.00    +0.000 A 
ATOM      2  N   UNL     1       3.933   5.645  18.556  0.00  0.00    +0.000 NA
ATOM      3  C   UNL     1       4.459   4.418  18.666  0.00  0.00    +0.000 A 
ATOM      4  N   UNL     1       5.550   4.026  17.894  0.00  0.00    +0.000 N 
ATOM      5  C   UNL     1       3.892   3.455  19.477  0.00  0.00    +0.000 A 
ATOM      6  C   UNL     1       2.716   3.774  20.126  0.00  0.00    +0.000 A 
ATOM      7  N   UNL     1       2.163   5.006  20.021  0.00  0.00    +0.000 NA
ATOM      8  H   UNL     1       6.314   3.666  18.454  0.00  0.00    +0.000 HD
ENDROOT
BRANCH   1  12
ATOM      9  C   UNL     1       1.247   9.898  19.074  0.00  0.00    +0.000 A 
ATOM     10  C   UNL     1       1.121   9.162  20.254  0.00  0.00    +0.000 A 
ATOM     11  C   UNL     1       1.627   7.857  20.306  0.00  0.00    +0.000 A 
ATOM     12  C   UNL     1       2.247   7.262  19.185  0.00  0.00    +0.000 A 
ATOM     13  C   UNL     1       2.333   8.025  18.008  0.00  0.00    +0.000 A 
ATOM     14  C   UNL     1       1.846   9.333  17.948  0.00  0.00    +0.000 A 
BRANCH   9  15
ATOM     15  S   UNL     1       0.679  11.573  19.010  0.00  0.00    +0.000 S 
ATOM     16  O   UNL     1       1.694  12.383  18.383  0.00  0.00    +0.000 OA
ATOM     17  O   UNL     1       0.070  11.918  20.270  0.00  0.00    +0.000 OA
BRANCH  15  18
ATOM     18  N   UNL     1      -0.595  11.472  17.917  0.00  0.00    +0.000 NA
ATOM     19  H   UNL     1      -0.627  10.529  17.522  0.00  0.00    +0.000 HD
ATOM     20  H   UNL     1      -0.513  12.206  17.215  0.00  0.00    +0.000 HD
ENDBRANCH  15  18
ENDBRANCH   9  15
ENDBRANCH   1  12
BRANCH   6  21
ATOM     21  C   UNL     1       2.000   2.709  20.938  0.00  0.00    +0.000 C 
ATOM     22  F   UNL     1       2.754   2.219  21.967  0.00  0.00    +0.000 F 
ATOM     23  F   UNL     1       0.848   3.156  21.513  0.00  0.00    +0.000 F 
ATOM     24  F   UNL     1       1.655   1.619  20.194  0.00  0.00    +0.000 F 
ENDBRANCH   6  21
BRANCH   4  25
ATOM     25  C   UNL     1       5.995   4.911  16.830  0.00  0.00    +0.000 C 
BRANCH  25  26
ATOM     26  C   UNL     1       6.832   6.044  17.368  0.00  0.00    +0.000 A 
ATOM     27  C   UNL     1       7.697   5.926  18.510  0.00  0.00    +0.000 A 
ATOM     28  C   UNL     1       8.319   7.112  18.832  0.00  0.00    +0.000 A 
ATOM     29  S   UNL     1       7.871   8.376  17.772  0.00  0.00    +0.000 S 
ATOM     30  C   UNL     1       6.841   7.338  16.881  0.00  0.00    +0.000 A 
ENDBRANCH  25  26
ENDBRANCH   4  25
TORSDOF 6
ENDMDL
