MODEL 1
REMARK VINA RESULT:      -8.0      0.000      0.000
REMARK  Name = 
REMARK  7 active torsions:
REMARK  status: ('A' for Active; 'I' for Inactive)
REMARK    1  A    between atoms: C_2  and  C_3
REMARK    2  A    between atoms: C_9  and  N_10
REMARK    3  A    between atoms: N_10  and  C_11
REMARK    4  A    between atoms: C_11  and  C_12
REMARK    5  A    between atoms: C_12  and  N_13
REMARK    6  A    between atoms: C_21  and  O_22
REMARK    7  A    between atoms: O_22  and  C_23
REMARK                            x       y       z     vdW  Elec       q    Type
REMARK                         _______ _______ _______ _____ _____    ______ ____
ROOT
ATOM      1  C   UNL     1       3.183   4.337  18.306  0.00  0.00    +0.000 A 
ATOM      2  C   UNL     1       4.082   3.389  18.759  0.00  0.00    +0.000 A 
ATOM      3  N   UNL     1       5.392   3.625  18.953  0.00  0.00    +0.000 NA
ATOM      4  C   UNL     1       5.868   4.832  18.623  0.00  0.00    +0.000 A 
ATOM      5  C   UNL     1       7.231   5.008  18.711  0.00  0.00    +0.000 A 
ATOM      6  C   UNL     1       7.844   6.190  18.301  0.00  0.00    +0.000 A 
ATOM      7  C   UNL     1       7.104   7.240  17.752  0.00  0.00    +0.000 A 
ATOM      8  C   UNL     1       5.704   7.113  17.772  0.00  0.00    +0.000 A 
ATOM      9  C   UNL     1       5.059   5.898  18.175  0.00  0.00    +0.000 A 
ATOM     10  C   UNL     1       3.655   5.644  18.112  0.00  0.00    +0.000 A 
ENDROOT
BRANCH   1  12
ATOM     11  N   UNL     1       0.782   3.500  17.818  0.00  0.00    +0.000 NA
ATOM     12  C   UNL     1       1.859   3.887  18.014  0.00  0.00    +0.000 C 
ENDBRANCH   1  12
BRANCH   7  13
ATOM     13  N   UNL     1       7.732   8.418  17.272  0.00  0.00    +0.000 N 
ATOM     14  H   UNL     1       8.233   8.234  16.403  0.00  0.00    +0.000 HD
BRANCH  13  15
ATOM     15  C   UNL     1       8.609   9.063  18.276  0.00  0.00    +0.000 C 
BRANCH  15  16
ATOM     16  C   UNL     1       8.690  10.606  18.176  0.00  0.00    +0.000 C 
BRANCH  16  17
ATOM     17  N   UNL     1       9.967  11.075  18.732  0.00  0.00    +0.000 NA
ATOM     18  C   UNL     1       9.929  11.699  20.065  0.00  0.00    +0.000 C 
ATOM     19  C   UNL     1      10.246  13.206  20.161  0.00  0.00    +0.000 C 
ATOM     20  O   UNL     1      11.282  13.622  19.271  0.00  0.00    +0.000 OA
ATOM     21  C   UNL     1      10.941  13.255  17.932  0.00  0.00    +0.000 C 
ATOM     22  C   UNL     1      10.888  11.731  17.805  0.00  0.00    +0.000 C 
ENDBRANCH  16  17
ENDBRANCH  15  16
ENDBRANCH  13  15
ENDBRANCH   7  13
BRANCH  10  23
ATOM     23  O   UNL     1       2.859   6.720  17.750  0.00  0.00    +0.000 OA
BRANCH  23  24
ATOM     24  C   UNL     1       2.272   7.528  18.704  0.00  0.00    +0.000 A 
ATOM     25  C   UNL     1       2.117   7.200  20.057  0.00  0.00    +0.000 A 
ATOM     26  C   UNL     1       1.378   8.039  20.897  0.00  0.00    +0.000 A 
ATOM     27  C   UNL     1       0.872   9.240  20.408  0.00  0.00    +0.000 A 
ATOM     28  F   UNL     1       0.155  10.022  21.229  0.00  0.00    +0.000 F 
ATOM     29  C   UNL     1       1.118   9.623  19.092  0.00  0.00    +0.000 A 
ATOM     30 CL   UNL     1       0.559  11.140  18.499  0.00  0.00    +0.000 Cl
ATOM     31  C   UNL     1       1.817   8.767  18.238  0.00  0.00    +0.000 A 
ENDBRANCH  23  24
ENDBRANCH  10  23
TORSDOF 7
ENDMDL
MODEL 2
REMARK VINA RESULT:      -7.7      1.484      1.752
REMARK  Name = 
REMARK  7 active torsions:
REMARK  status: ('A' for Active; 'I' for Inactive)
REMARK    1  A    between atoms: C_2  and  C_3
REMARK    2  A    between atoms: C_9  and  N_10
REMARK    3  A    between atoms: N_10  and  C_11
REMARK    4  A    between atoms: C_11  and  C_12
REMARK    5  A    between atoms: C_12  and  N_13
REMARK    6  A    between atoms: C_21  and  O_22
REMARK    7  A    between atoms: O_22  and  C_23
REMARK                            x       y       z     vdW  Elec       q    Type
REMARK                         _______ _______ _______ _____ _____    ______ ____
ROOT
ATOM      1  C   UNL     1       2.908   4.008  18.696  0.00  0.00    +0.000 A 
ATOM      2  C   UNL     1       3.307   2.972  17.872  0.00  0.00    +0.000 A 
ATOM      3  N   UNL     1       4.445   2.976  17.154  0.00  0.00    +0.000 NA
ATOM      4  C   UNL     1       5.204   4.078  17.186  0.00  0.00    +0.000 A 
ATOM      5  C   UNL     1       6.294   4.107  16.345  0.00  0.00    +0.000 A 
ATOM      6  C   UNL     1       7.096   5.240  16.226  0.00  0.00    +0.000 A 
ATOM      7  C   UNL     1       6.809   6.412  16.931  0.00  0.00    +0.000 A 
ATOM      8  C   UNL     1       5.771   6.348  17.878  0.00  0.00    +0.000 A 
ATOM      9  C   UNL     1       4.927   5.197  18.002  0.00  0.00    +0.000 A 
ATOM     10  C   UNL     1       3.783   5.094  18.849  0.00  0.00    +0.000 A 
ENDROOT
BRANCH   1  12
ATOM     11  N   UNL     1       0.555   3.788  19.755  0.00  0.00    +0.000 NA
ATOM     12  C   UNL     1       1.606   3.910  19.274  0.00  0.00    +0.000 C 
ENDBRANCH   1  12
BRANCH   7  13
ATOM     13  N   UNL     1       7.584   7.588  16.761  0.00  0.00    +0.000 N 
ATOM     14  H   UNL     1       8.332   7.435  16.086  0.00  0.00    +0.000 HD
BRANCH  13  15
ATOM     15  C   UNL     1       8.105   8.133  18.035  0.00  0.00    +0.000 C 
BRANCH  15  16
ATOM     16  C   UNL     1       8.044   9.675  18.159  0.00  0.00    +0.000 C 
BRANCH  16  17
ATOM     17  N   UNL     1       9.291  10.178  18.751  0.00  0.00    +0.000 NA
ATOM     18  C   UNL     1       9.229  10.656  20.142  0.00  0.00    +0.000 C 
ATOM     19  C   UNL     1       9.435  12.164  20.393  0.00  0.00    +0.000 C 
ATOM     20  O   UNL     1      10.424  12.746  19.544  0.00  0.00    +0.000 OA
ATOM     21  C   UNL     1      10.090  12.496  18.176  0.00  0.00    +0.000 C 
ATOM     22  C   UNL     1      10.147  10.994  17.890  0.00  0.00    +0.000 C 
ENDBRANCH  16  17
ENDBRANCH  15  16
ENDBRANCH  13  15
ENDBRANCH   7  13
BRANCH  10  23
ATOM     23  O   UNL     1       3.566   6.162  19.707  0.00  0.00    +0.000 OA
BRANCH  23  24
ATOM     24  C   UNL     1       2.701   7.184  19.372  0.00  0.00    +0.000 A 
ATOM     25  C   UNL     1       2.560   7.737  18.093  0.00  0.00    +0.000 A 
ATOM     26  C   UNL     1       1.755   8.866  17.906  0.00  0.00    +0.000 A 
ATOM     27  C   UNL     1       1.029   9.384  18.975  0.00  0.00    +0.000 A 
ATOM     28  F   UNL     1       0.275  10.476  18.775  0.00  0.00    +0.000 F 
ATOM     29  C   UNL     1       1.080   8.771  20.223  0.00  0.00    +0.000 A 
ATOM     30 CL   UNL     1       0.128   9.361  21.531  0.00  0.00    +0.000 Cl
ATOM     31  C   UNL     1       1.917   7.672  20.424  0.00  0.00    +0.000 A 
ENDBRANCH  23  24
ENDBRANCH  10  23
TORSDOF 7
ENDMDL
MODEL 3
REMARK VINA RESULT:      -7.7      1.133      1.445
REMARK  Name = 
REMARK  7 active torsions:
REMARK  status: ('A' for Active; 'I' for Inactive)
REMARK    1  A    between atoms: C_2  and  C_3
REMARK    2  A    between atoms: C_9  and  N_10
REMARK    3  A    between atoms: N_10  and  C_11
REMARK    4  A    between atoms: C_11  and  C_12
REMARK    5  A    between atoms: C_12  and  N_13
REMARK    6  A    between atoms: C_21  and  O_22
REMARK    7  A    between atoms: O_22  and  C_23
REMARK                            x       y       z     vdW  Elec       q    Type
REMARK                         _______ _______ _______ _____ _____    ______ ____
ROOT
ATOM      1  C   UNL     1       3.729   4.565  18.118  0.00  0.00    +0.000 A 
ATOM      2  C   UNL     1       4.570   3.744  18.845  0.00  0.00    +0.000 A 
ATOM      3  N   UNL     1       5.808   4.094  19.240  0.00  0.00    +0.000 NA
ATOM      4  C   UNL     1       6.279   5.284  18.848  0.00  0.00    +0.000 A 
ATOM      5  C   UNL     1       7.592   5.565  19.156  0.00  0.00    +0.000 A 
ATOM      6  C   UNL     1       8.214   6.730  18.714  0.00  0.00    +0.000 A 
ATOM      7  C   UNL     1       7.541   7.652  17.908  0.00  0.00    +0.000 A 
ATOM      8  C   UNL     1       6.170   7.429  17.692  0.00  0.00    +0.000 A 
ATOM      9  C   UNL     1       5.519   6.229  18.126  0.00  0.00    +0.000 A 
ATOM     10  C   UNL     1       4.166   5.870  17.844  0.00  0.00    +0.000 A 
ENDROOT
BRANCH   1  12
ATOM     11  N   UNL     1       1.536   3.490  17.256  0.00  0.00    +0.000 NA
ATOM     12  C   UNL     1       2.506   3.991  17.653  0.00  0.00    +0.000 C 
ENDBRANCH   1  12
BRANCH   7  13
ATOM     13  N   UNL     1       8.192   8.807  17.401  0.00  0.00    +0.000 N 
ATOM     14  H   UNL     1       8.944   8.548  16.764  0.00  0.00    +0.000 HD
BRANCH  13  15
ATOM     15  C   UNL     1       8.671   9.721  18.462  0.00  0.00    +0.000 C 
BRANCH  15  16
ATOM     16  C   UNL     1       9.340  11.021  17.951  0.00  0.00    +0.000 C 
BRANCH  16  17
ATOM     17  N   UNL     1      10.556  11.295  18.729  0.00  0.00    +0.000 NA
ATOM     18  C   UNL     1      10.376  11.745  20.118  0.00  0.00    +0.000 C 
ATOM     19  C   UNL     1      10.786  13.192  20.463  0.00  0.00    +0.000 C 
ATOM     20  O   UNL     1      11.966  13.621  19.783  0.00  0.00    +0.000 OA
ATOM     21  C   UNL     1      11.792  13.460  18.372  0.00  0.00    +0.000 C 
ATOM     22  C   UNL     1      11.645  11.976  18.030  0.00  0.00    +0.000 C 
ENDBRANCH  16  17
ENDBRANCH  15  16
ENDBRANCH  13  15
ENDBRANCH   7  13
BRANCH  10  23
ATOM     23  O   UNL     1       3.402   6.837  17.208  0.00  0.00    +0.000 OA
BRANCH  23  24
ATOM     24  C   UNL     1       2.625   7.722  17.928  0.00  0.00    +0.000 A 
ATOM     25  C   UNL     1       2.163   8.958  17.458  0.00  0.00    +0.000 A 
ATOM     26  C   UNL     1       1.504   9.832  18.330  0.00  0.00    +0.000 A 
ATOM     27  C   UNL     1       1.235   9.436  19.637  0.00  0.00    +0.000 A 
ATOM     28  F   UNL     1       0.615  10.297  20.458  0.00  0.00    +0.000 F 
ATOM     29  C   UNL     1       1.596   8.166  20.076  0.00  0.00    +0.000 A 
ATOM     30 CL   UNL     1       1.201   7.641  21.667  0.00  0.00    +0.000 Cl
ATOM     31  C   UNL     1       2.293   7.307  19.223  0.00  0.00    +0.000 A 
ENDBRANCH  23  24
ENDBRANCH  10  23
TORSDOF 7
ENDMDL
MODEL 4
REMARK VINA RESULT:      -7.6      1.151      1.671
REMARK  Name = 
REMARK  7 active torsions:
REMARK  status: ('A' for Active; 'I' for Inactive)
REMARK    1  A    between atoms: C_2  and  C_3
REMARK    2  A    between atoms: C_9  and  N_10
REMARK    3  A    between atoms: N_10  and  C_11
REMARK    4  A    between atoms: C_11  and  C_12
REMARK    5  A    between atoms: C_12  and  N_13
REMARK    6  A    between atoms: C_21  and  O_22
REMARK    7  A    between atoms: O_22  and  C_23
REMARK                            x       y       z     vdW  Elec       q    Type
REMARK                         _______ _______ _______ _____ _____    ______ ____
ROOT
ATOM      1  C   UNL     1       3.574   4.637  18.212  0.00  0.00    +0.000 A 
ATOM      2  C   UNL     1       4.396   3.800  18.945  0.00  0.00    +0.000 A 
ATOM      3  N   UNL     1       5.651   4.113  19.315  0.00  0.00    +0.000 NA
ATOM      4  C   UNL     1       6.160   5.276  18.890  0.00  0.00    +0.000 A 
ATOM      5  C   UNL     1       7.486   5.515  19.174  0.00  0.00    +0.000 A 
ATOM      6  C   UNL     1       8.143   6.647  18.698  0.00  0.00    +0.000 A 
ATOM      7  C   UNL     1       7.493   7.576  17.882  0.00  0.00    +0.000 A 
ATOM      8  C   UNL     1       6.111   7.399  17.690  0.00  0.00    +0.000 A 
ATOM      9  C   UNL     1       5.424   6.233  18.159  0.00  0.00    +0.000 A 
ATOM     10  C   UNL     1       4.055   5.918  17.905  0.00  0.00    +0.000 A 
ENDROOT
BRANCH   1  12
ATOM     11  N   UNL     1       1.293   3.702  17.420  0.00  0.00    +0.000 NA
ATOM     12  C   UNL     1       2.324   4.098  17.778  0.00  0.00    +0.000 C 
ENDBRANCH   1  12
BRANCH   7  13
ATOM     13  N   UNL     1       8.178   8.694  17.340  0.00  0.00    +0.000 N 
ATOM     14  H   UNL     1       8.991   8.396  16.804  0.00  0.00    +0.000 HD
BRANCH  13  15
ATOM     15  C   UNL     1       8.541   9.706  18.359  0.00  0.00    +0.000 C 
BRANCH  15  16
ATOM     16  C   UNL     1       9.530  10.794  17.874  0.00  0.00    +0.000 C 
BRANCH  16  17
ATOM     17  N   UNL     1       9.270  12.055  18.582  0.00  0.00    +0.000 NA
ATOM     18  C   UNL     1       9.710  13.296  17.926  0.00  0.00    +0.000 C 
ATOM     19  C   UNL     1      10.860  14.088  18.582  0.00  0.00    +0.000 C 
ATOM     20  O   UNL     1      10.803  14.086  20.008  0.00  0.00    +0.000 OA
ATOM     21  C   UNL     1      10.771  12.738  20.486  0.00  0.00    +0.000 C 
ATOM     22  C   UNL     1       9.481  12.053  20.030  0.00  0.00    +0.000 C 
ENDBRANCH  16  17
ENDBRANCH  15  16
ENDBRANCH  13  15
ENDBRANCH   7  13
BRANCH  10  23
ATOM     23  O   UNL     1       3.317   6.899  17.258  0.00  0.00    +0.000 OA
BRANCH  23  24
ATOM     24  C   UNL     1       2.556   7.806  17.969  0.00  0.00    +0.000 A 
ATOM     25  C   UNL     1       2.100   9.037  17.480  0.00  0.00    +0.000 A 
ATOM     26  C   UNL     1       1.460   9.934  18.342  0.00  0.00    +0.000 A 
ATOM     27  C   UNL     1       1.200   9.566  19.659  0.00  0.00    +0.000 A 
ATOM     28  F   UNL     1       0.598  10.449  20.470  0.00  0.00    +0.000 F 
ATOM     29  C   UNL     1       1.554   8.301  20.119  0.00  0.00    +0.000 A 
ATOM     30 CL   UNL     1       1.171   7.811  21.724  0.00  0.00    +0.000 Cl
ATOM     31  C   UNL     1       2.234   7.419  19.275  0.00  0.00    +0.000 A 
ENDBRANCH  23  24
ENDBRANCH  10  23
TORSDOF 7
ENDMDL
MODEL 5
REMARK VINA RESULT:      -7.4      0.973      1.118
REMARK  Name = 
REMARK  7 active torsions:
REMARK  status: ('A' for Active; 'I' for Inactive)
REMARK    1  A    between atoms: C_2  and  C_3
REMARK    2  A    between atoms: C_9  and  N_10
REMARK    3  A    between atoms: N_10  and  C_11
REMARK    4  A    between atoms: C_11  and  C_12
REMARK    5  A    between atoms: C_12  and  N_13
REMARK    6  A    between atoms: C_21  and  O_22
REMARK    7  A    between atoms: O_22  and  C_23
REMARK                            x       y       z     vdW  Elec       q    Type
REMARK                         _______ _______ _______ _____ _____    ______ ____
ROOT
ATOM      1  C   UNL     1       3.730   4.666  18.092  0.00  0.00    +0.000 A 
ATOM      2  C   UNL     1       4.673   3.780  18.579  0.00  0.00    +0.000 A 
ATOM      3  N   UNL     1       5.942   4.118  18.876  0.00  0.00    +0.000 NA
ATOM      4  C   UNL     1       6.333   5.372  18.620  0.00  0.00    +0.000 A 
ATOM      5  C   UNL     1       7.667   5.658  18.811  0.00  0.00    +0.000 A 
ATOM      6  C   UNL     1       8.202   6.902  18.484  0.00  0.00    +0.000 A 
ATOM      7  C   UNL     1       7.415   7.906  17.916  0.00  0.00    +0.000 A 
ATOM      8  C   UNL     1       6.033   7.661  17.830  0.00  0.00    +0.000 A 
ATOM      9  C   UNL     1       5.468   6.382  18.146  0.00  0.00    +0.000 A 
ATOM     10  C   UNL     1       4.100   6.014  17.974  0.00  0.00    +0.000 A 
ENDROOT
BRANCH   1  12
ATOM     11  N   UNL     1       1.467   3.630  17.378  0.00  0.00    +0.000 NA
ATOM     12  C   UNL     1       2.474   4.117  17.691  0.00  0.00    +0.000 C 
ENDBRANCH   1  12
BRANCH   7  13
ATOM     13  N   UNL     1       7.971   9.150  17.519  0.00  0.00    +0.000 N 
ATOM     14  H   UNL     1       8.534   9.043  16.676  0.00  0.00    +0.000 HD
BRANCH  13  15
ATOM     15  C   UNL     1       8.734   9.818  18.598  0.00  0.00    +0.000 C 
BRANCH  15  16
ATOM     16  C   UNL     1       9.833  10.795  18.112  0.00  0.00    +0.000 C 
BRANCH  16  17
ATOM     17  N   UNL     1      10.164  11.745  19.183  0.00  0.00    +0.000 NA
ATOM     18  C   UNL     1       9.825  11.350  20.560  0.00  0.00    +0.000 C 
ATOM     19  C   UNL     1       8.719  12.145  21.283  0.00  0.00    +0.000 C 
ATOM     20  O   UNL     1       8.746  13.542  20.991  0.00  0.00    +0.000 OA
ATOM     21  C   UNL     1       8.675  13.738  19.576  0.00  0.00    +0.000 C 
ATOM     22  C   UNL     1       9.924  13.161  18.905  0.00  0.00    +0.000 C 
ENDBRANCH  16  17
ENDBRANCH  15  16
ENDBRANCH  13  15
ENDBRANCH   7  13
BRANCH  10  23
ATOM     23  O   UNL     1       3.241   7.033  17.589  0.00  0.00    +0.000 OA
BRANCH  23  24
ATOM     24  C   UNL     1       2.502   7.734  18.520  0.00  0.00    +0.000 A 
ATOM     25  C   UNL     1       2.345   7.375  19.865  0.00  0.00    +0.000 A 
ATOM     26  C   UNL     1       1.454   8.086  20.676  0.00  0.00    +0.000 A 
ATOM     27  C   UNL     1       0.792   9.201  20.169  0.00  0.00    +0.000 A 
ATOM     28  F   UNL     1      -0.068   9.858  20.962  0.00  0.00    +0.000 F 
ATOM     29  C   UNL     1       1.028   9.627  18.865  0.00  0.00    +0.000 A 
ATOM     30 CL   UNL     1       0.270  11.046  18.254  0.00  0.00    +0.000 Cl
ATOM     31  C   UNL     1       1.882   8.893  18.038  0.00  0.00    +0.000 A 
ENDBRANCH  23  24
ENDBRANCH  10  23
TORSDOF 7
ENDMDL
MODEL 6
REMARK VINA RESULT:      -7.4      1.184      1.521
REMARK  Name = 
REMARK  7 active torsions:
REMARK  status: ('A' for Active; 'I' for Inactive)
REMARK    1  A    between atoms: C_2  and  C_3
REMARK    2  A    between atoms: C_9  and  N_10
REMARK    3  A    between atoms: N_10  and  C_11
REMARK    4  A    between atoms: C_11  and  C_12
REMARK    5  A    between atoms: C_12  and  N_13
REMARK    6  A    between atoms: C_21  and  O_22
REMARK    7  A    between atoms: O_22  and  C_23
REMARK                            x       y       z     vdW  Elec       q    Type
REMARK                         _______ _______ _______ _____ _____    ______ ____
ROOT
ATOM      1  C   UNL     1       3.250   4.029  18.649  0.00  0.00    +0.000 A 
ATOM      2  C   UNL     1       4.154   3.304  19.403  0.00  0.00    +0.000 A 
ATOM      3  N   UNL     1       5.408   3.711  19.670  0.00  0.00    +0.000 NA
ATOM      4  C   UNL     1       5.830   4.853  19.116  0.00  0.00    +0.000 A 
ATOM      5  C   UNL     1       7.155   5.182  19.299  0.00  0.00    +0.000 A 
ATOM      6  C   UNL     1       7.724   6.297  18.687  0.00  0.00    +0.000 A 
ATOM      7  C   UNL     1       6.981   7.115  17.832  0.00  0.00    +0.000 A 
ATOM      8  C   UNL     1       5.603   6.853  17.737  0.00  0.00    +0.000 A 
ATOM      9  C   UNL     1       5.005   5.702  18.346  0.00  0.00    +0.000 A 
ATOM     10  C   UNL     1       3.643   5.299  18.201  0.00  0.00    +0.000 A 
ENDROOT
BRANCH   1  12
ATOM     11  N   UNL     1       1.022   2.835  18.086  0.00  0.00    +0.000 NA
ATOM     12  C   UNL     1       2.010   3.393  18.336  0.00  0.00    +0.000 C 
ENDBRANCH   1  12
BRANCH   7  13
ATOM     13  N   UNL     1       7.574   8.211  17.154  0.00  0.00    +0.000 N 
ATOM     14  H   UNL     1       8.022   7.905  16.291  0.00  0.00    +0.000 HD
BRANCH  13  15
ATOM     15  C   UNL     1       8.508   8.986  18.003  0.00  0.00    +0.000 C 
BRANCH  15  16
ATOM     16  C   UNL     1       8.379  10.524  17.879  0.00  0.00    +0.000 C 
BRANCH  16  17
ATOM     17  N   UNL     1       9.456  11.177  18.637  0.00  0.00    +0.000 NA
ATOM     18  C   UNL     1       9.499  10.932  20.087  0.00  0.00    +0.000 C 
ATOM     19  C   UNL     1       9.200  12.119  21.026  0.00  0.00    +0.000 C 
ATOM     20  O   UNL     1       9.730  13.357  20.555  0.00  0.00    +0.000 OA
ATOM     21  C   UNL     1       9.248  13.615  19.233  0.00  0.00    +0.000 C 
ATOM     22  C   UNL     1       9.779  12.554  18.267  0.00  0.00    +0.000 C 
ENDBRANCH  16  17
ENDBRANCH  15  16
ENDBRANCH  13  15
ENDBRANCH   7  13
BRANCH  10  23
ATOM     23  O   UNL     1       2.820   6.180  17.515  0.00  0.00    +0.000 OA
BRANCH  23  24
ATOM     24  C   UNL     1       2.323   7.315  18.123  0.00  0.00    +0.000 A 
ATOM     25  C   UNL     1       2.132   8.551  17.492  0.00  0.00    +0.000 A 
ATOM     26  C   UNL     1       1.757   9.668  18.248  0.00  0.00    +0.000 A 
ATOM     27  C   UNL     1       1.493   9.529  19.608  0.00  0.00    +0.000 A 
ATOM     28  F   UNL     1       1.149  10.616  20.314  0.00  0.00    +0.000 F 
ATOM     29  C   UNL     1       1.575   8.279  20.216  0.00  0.00    +0.000 A 
ATOM     30 CL   UNL     1       1.178   8.085  21.880  0.00  0.00    +0.000 Cl
ATOM     31  C   UNL     1       1.992   7.171  19.475  0.00  0.00    +0.000 A 
ENDBRANCH  23  24
ENDBRANCH  10  23
TORSDOF 7
ENDMDL
MODEL 7
REMARK VINA RESULT:      -7.3      5.527      8.739
REMARK  Name = 
REMARK  7 active torsions:
REMARK  status: ('A' for Active; 'I' for Inactive)
REMARK    1  A    between atoms: C_2  and  C_3
REMARK    2  A    between atoms: C_9  and  N_10
REMARK    3  A    between atoms: N_10  and  C_11
REMARK    4  A    between atoms: C_11  and  C_12
REMARK    5  A    between atoms: C_12  and  N_13
REMARK    6  A    between atoms: C_21  and  O_22
REMARK    7  A    between atoms: O_22  and  C_23
REMARK                            x       y       z     vdW  Elec       q    Type
REMARK                         _______ _______ _______ _____ _____    ______ ____
ROOT
ATOM      1  C   UNL     1      -1.677  11.806  21.773  0.00  0.00    +0.000 A 
ATOM      2  C   UNL     1      -1.399  11.264  23.015  0.00  0.00    +0.000 A 
ATOM      3  N   UNL     1      -0.451  10.336  23.237  0.00  0.00    +0.000 NA
ATOM      4  C   UNL     1       0.219   9.858  22.181  0.00  0.00    +0.000 A 
ATOM      5  C   UNL     1       1.092   8.820  22.417  0.00  0.00    +0.000 A 
ATOM      6  C   UNL     1       1.768   8.182  21.380  0.00  0.00    +0.000 A 
ATOM      7  C   UNL     1       1.565   8.547  20.047  0.00  0.00    +0.000 A 
ATOM      8  C   UNL     1       0.768   9.681  19.811  0.00  0.00    +0.000 A 
ATOM      9  C   UNL     1       0.053  10.339  20.864  0.00  0.00    +0.000 A 
ATOM     10  C   UNL     1      -0.867  11.417  20.696  0.00  0.00    +0.000 A 
ENDROOT
BRANCH   1  12
ATOM     11  N   UNL     1      -3.749  13.354  21.647  0.00  0.00    +0.000 NA
ATOM     12  C   UNL     1      -2.810  12.671  21.683  0.00  0.00    +0.000 C 
ENDBRANCH   1  12
BRANCH   7  13
ATOM     13  N   UNL     1       2.200   7.855  18.983  0.00  0.00    +0.000 N 
ATOM     14  H   UNL     1       1.705   8.007  18.105  0.00  0.00    +0.000 HD
BRANCH  13  15
ATOM     15  C   UNL     1       2.389   6.412  19.256  0.00  0.00    +0.000 C 
BRANCH  15  16
ATOM     16  C   UNL     1       3.628   5.777  18.578  0.00  0.00    +0.000 C 
BRANCH  16  17
ATOM     17  N   UNL     1       3.226   4.580  17.826  0.00  0.00    +0.000 NA
ATOM     18  C   UNL     1       1.787   4.277  17.766  0.00  0.00    +0.000 C 
ATOM     19  C   UNL     1       1.287   3.014  18.496  0.00  0.00    +0.000 C 
ATOM     20  O   UNL     1       2.192   1.914  18.403  0.00  0.00    +0.000 OA
ATOM     21  C   UNL     1       3.479   2.309  18.885  0.00  0.00    +0.000 C 
ATOM     22  C   UNL     1       4.067   3.393  17.979  0.00  0.00    +0.000 C 
ENDBRANCH  16  17
ENDBRANCH  15  16
ENDBRANCH  13  15
ENDBRANCH   7  13
BRANCH  10  23
ATOM     23  O   UNL     1      -0.962  11.939  19.414  0.00  0.00    +0.000 OA
BRANCH  23  24
ATOM     24  C   UNL     1      -1.767  11.349  18.460  0.00  0.00    +0.000 A 
ATOM     25  C   UNL     1      -1.406  10.258  17.661  0.00  0.00    +0.000 A 
ATOM     26  C   UNL     1      -2.253   9.839  16.629  0.00  0.00    +0.000 A 
ATOM     27  C   UNL     1      -3.491  10.453  16.455  0.00  0.00    +0.000 A 
ATOM     28  F   UNL     1      -4.280  10.044  15.451  0.00  0.00    +0.000 F 
ATOM     29  C   UNL     1      -3.900  11.466  17.318  0.00  0.00    +0.000 A 
ATOM     30 CL   UNL     1      -5.459  12.180  17.156  0.00  0.00    +0.000 Cl
ATOM     31  C   UNL     1      -3.039  11.917  18.320  0.00  0.00    +0.000 A 
ENDBRANCH  23  24
ENDBRANCH  10  23
TORSDOF 7
ENDMDL
MODEL 8
REMARK VINA RESULT:      -7.2      4.642      6.581
REMARK  Name = 
REMARK  7 active torsions:
REMARK  status: ('A' for Active; 'I' for Inactive)
REMARK    1  A    between atoms: C_2  and  C_3
REMARK    2  A    between atoms: C_9  and  N_10
REMARK    3  A    between atoms: N_10  and  C_11
REMARK    4  A    between atoms: C_11  and  C_12
REMARK    5  A    between atoms: C_12  and  N_13
REMARK    6  A    between atoms: C_21  and  O_22
REMARK    7  A    between atoms: O_22  and  C_23
REMARK                            x       y       z     vdW  Elec       q    Type
REMARK                         _______ _______ _______ _____ _____    ______ ____
ROOT
ATOM      1  C   UNL     1       2.590   5.334  19.654  0.00  0.00    +0.000 A 
ATOM      2  C   UNL     1       1.928   5.633  20.830  0.00  0.00    +0.000 A 
ATOM      3  N   UNL     1       1.347   6.820  21.086  0.00  0.00    +0.000 NA
ATOM      4  C   UNL     1       1.478   7.792  20.175  0.00  0.00    +0.000 A 
ATOM      5  C   UNL     1       0.986   9.033  20.516  0.00  0.00    +0.000 A 
ATOM      6  C   UNL     1       1.154  10.139  19.686  0.00  0.00    +0.000 A 
ATOM      7  C   UNL     1       1.858  10.046  18.483  0.00  0.00    +0.000 A 
ATOM      8  C   UNL     1       2.256   8.760  18.075  0.00  0.00    +0.000 A 
ATOM      9  C   UNL     1       2.106   7.615  18.924  0.00  0.00    +0.000 A 
ATOM     10  C   UNL     1       2.588   6.302  18.639  0.00  0.00    +0.000 A 
ENDROOT
BRANCH   1  12
ATOM     11  N   UNL     1       3.857   3.076  19.589  0.00  0.00    +0.000 NA
ATOM     12  C   UNL     1       3.275   4.081  19.598  0.00  0.00    +0.000 C 
ENDBRANCH   1  12
BRANCH   7  13
ATOM     13  N   UNL     1       2.088  11.184  17.668  0.00  0.00    +0.000 N 
ATOM     14  H   UNL     1       2.766  10.975  16.936  0.00  0.00    +0.000 HD
BRANCH  13  15
ATOM     15  C   UNL     1       2.478  12.385  18.440  0.00  0.00    +0.000 C 
BRANCH  15  16
ATOM     16  C   UNL     1       1.459  13.550  18.393  0.00  0.00    +0.000 C 
BRANCH  16  17
ATOM     17  N   UNL     1       2.059  14.760  18.974  0.00  0.00    +0.000 NA
ATOM     18  C   UNL     1       1.392  16.041  18.690  0.00  0.00    +0.000 C 
ATOM     19  C   UNL     1       2.139  17.059  17.803  0.00  0.00    +0.000 C 
ATOM     20  O   UNL     1       3.545  17.091  18.044  0.00  0.00    +0.000 OA
ATOM     21  C   UNL     1       4.090  15.778  17.887  0.00  0.00    +0.000 C 
ATOM     22  C   UNL     1       3.519  14.844  18.957  0.00  0.00    +0.000 C 
ENDBRANCH  16  17
ENDBRANCH  15  16
ENDBRANCH  13  15
ENDBRANCH   7  13
BRANCH  10  23
ATOM     23  O   UNL     1       3.129   6.115  17.375  0.00  0.00    +0.000 OA
BRANCH  23  24
ATOM     24  C   UNL     1       4.408   5.623  17.210  0.00  0.00    +0.000 A 
ATOM     25  C   UNL     1       4.747   4.488  16.461  0.00  0.00    +0.000 A 
ATOM     26  C   UNL     1       6.059   4.004  16.486  0.00  0.00    +0.000 A 
ATOM     27  C   UNL     1       7.042   4.699  17.185  0.00  0.00    +0.000 A 
ATOM     28  F   UNL     1       8.290   4.207  17.206  0.00  0.00    +0.000 F 
ATOM     29  C   UNL     1       6.733   5.887  17.841  0.00  0.00    +0.000 A 
ATOM     30 CL   UNL     1       7.957   6.792  18.645  0.00  0.00    +0.000 Cl
ATOM     31  C   UNL     1       5.415   6.350  17.856  0.00  0.00    +0.000 A 
ENDBRANCH  23  24
ENDBRANCH  10  23
TORSDOF 7
ENDMDL
MODEL 9
REMARK VINA RESULT:      -7.2      5.479      7.371
REMARK  Name = 
REMARK  7 active torsions:
REMARK  status: ('A' for Active; 'I' for Inactive)
REMARK    1  A    between atoms: C_2  and  C_3
REMARK    2  A    between atoms: C_9  and  N_10
REMARK    3  A    between atoms: N_10  and  C_11
REMARK    4  A    between atoms: C_11  and  C_12
REMARK    5  A    between atoms: C_12  and  N_13
REMARK    6  A    between atoms: C_21  and  O_22
REMARK    7  A    between atoms: O_22  and  C_23
REMARK                            x       y       z     vdW  Elec       q    Type
REMARK                         _______ _______ _______ _____ _____    ______ ____
ROOT
ATOM      1  C   UNL     1       3.026   3.306  19.407  0.00  0.00    +0.000 A 
ATOM      2  C   UNL     1       2.596   3.532  20.701  0.00  0.00    +0.000 A 
ATOM      3  N   UNL     1       2.095   4.704  21.134  0.00  0.00    +0.000 NA
ATOM      4  C   UNL     1       2.076   5.733  20.279  0.00  0.00    +0.000 A 
ATOM      5  C   UNL     1       1.680   6.952  20.782  0.00  0.00    +0.000 A 
ATOM      6  C   UNL     1       1.714   8.109  20.008  0.00  0.00    +0.000 A 
ATOM      7  C   UNL     1       2.184   8.090  18.692  0.00  0.00    +0.000 A 
ATOM      8  C   UNL     1       2.476   6.832  18.138  0.00  0.00    +0.000 A 
ATOM      9  C   UNL     1       2.461   5.634  18.925  0.00  0.00    +0.000 A 
ATOM     10  C   UNL     1       2.858   4.339  18.473  0.00  0.00    +0.000 A 
ENDROOT
BRANCH   1  12
ATOM     11  N   UNL     1       4.222   1.061  18.923  0.00  0.00    +0.000 NA
ATOM     12  C   UNL     1       3.665   2.055  19.146  0.00  0.00    +0.000 C 
ENDBRANCH   1  12
BRANCH   7  13
ATOM     13  N   UNL     1       2.283   9.278  17.923  0.00  0.00    +0.000 N 
ATOM     14  H   UNL     1       3.225   9.664  17.972  0.00  0.00    +0.000 HD
BRANCH  13  15
ATOM     15  C   UNL     1       1.264  10.291  18.279  0.00  0.00    +0.000 C 
BRANCH  15  16
ATOM     16  C   UNL     1       1.826  11.698  18.600  0.00  0.00    +0.000 C 
BRANCH  16  17
ATOM     17  N   UNL     1       0.911  12.405  19.507  0.00  0.00    +0.000 NA
ATOM     18  C   UNL     1       0.683  11.805  20.832  0.00  0.00    +0.000 C 
ATOM     19  C   UNL     1      -0.723  11.245  21.134  0.00  0.00    +0.000 C 
ATOM     20  O   UNL     1      -1.775  12.036  20.583  0.00  0.00    +0.000 OA
ATOM     21  C   UNL     1      -1.576  12.187  19.175  0.00  0.00    +0.000 C 
ATOM     22  C   UNL     1      -0.294  12.980  18.910  0.00  0.00    +0.000 C 
ENDBRANCH  16  17
ENDBRANCH  15  16
ENDBRANCH  13  15
ENDBRANCH   7  13
BRANCH  10  23
ATOM     23  O   UNL     1       3.154   4.233  17.122  0.00  0.00    +0.000 OA
BRANCH  23  24
ATOM     24  C   UNL     1       4.445   4.393  16.659  0.00  0.00    +0.000 A 
ATOM     25  C   UNL     1       5.514   4.904  17.405  0.00  0.00    +0.000 A 
ATOM     26  C   UNL     1       6.742   5.153  16.783  0.00  0.00    +0.000 A 
ATOM     27  C   UNL     1       6.924   4.812  15.445  0.00  0.00    +0.000 A 
ATOM     28  F   UNL     1       8.106   5.074  14.867  0.00  0.00    +0.000 F 
ATOM     29  C   UNL     1       5.898   4.202  14.729  0.00  0.00    +0.000 A 
ATOM     30 CL   UNL     1       6.138   3.710  13.097  0.00  0.00    +0.000 Cl
ATOM     31  C   UNL     1       4.656   3.993  15.334  0.00  0.00    +0.000 A 
ENDBRANCH  23  24
ENDBRANCH  10  23
TORSDOF 7
ENDMDL
