MODEL 1
REMARK VINA RESULT:      -9.3      0.000      0.000
REMARK  Name = 
REMARK  7 active torsions:
REMARK  status: ('A' for Active; 'I' for Inactive)
REMARK    1  A    between atoms: C_1  and  C_2
REMARK    2  A    between atoms: C_5  and  N_6
REMARK    3  A    between atoms: N_6  and  C_7
REMARK    4  A    between atoms: C_7  and  C_8
REMARK    5  A    between atoms: C_14  and  C_16
REMARK    6  A    between atoms: C_19  and  S_20
REMARK    7  A    between atoms: S_20  and  N_23
REMARK                            x       y       z     vdW  Elec       q    Type
REMARK                         _______ _______ _______ _____ _____    ______ ____
ROOT
ATOM      1  N   UNL     1       0.531  10.249  20.513  0.00  0.00    +0.000 N 
ATOM      2  C   UNL     1       1.082   9.043  21.014  0.00  0.00    +0.000 C 
ATOM      3  O   UNL     1       1.158   8.826  22.229  0.00  0.00    +0.000 OA
ENDROOT
BRANCH   1   8
ATOM      4  C   UNL     1      -1.791  14.422  23.668  0.00  0.00    +0.000 C 
ATOM      5  C   UNL     1      -1.111  13.317  22.913  0.00  0.00    +0.000 A 
ATOM      6  C   UNL     1      -0.087  13.595  21.999  0.00  0.00    +0.000 A 
ATOM      7  C   UNL     1       0.500  12.565  21.255  0.00  0.00    +0.000 A 
ATOM      8  C   UNL     1       0.065  11.245  21.412  0.00  0.00    +0.000 A 
ATOM      9  C   UNL     1      -0.940  10.955  22.339  0.00  0.00    +0.000 A 
ATOM     10  C   UNL     1      -1.524  11.989  23.081  0.00  0.00    +0.000 A 
ENDBRANCH   1   8
BRANCH   2  11
ATOM     11  C   UNL     1       1.706   7.978  20.099  0.00  0.00    +0.000 A 
ATOM     12  C   UNL     1       2.234   8.172  18.810  0.00  0.00    +0.000 A 
ATOM     13  C   UNL     1       2.967   7.189  18.138  0.00  0.00    +0.000 A 
ATOM     14  C   UNL     1       3.118   5.938  18.710  0.00  0.00    +0.000 A 
ATOM     15  C   UNL     1       2.486   5.650  19.920  0.00  0.00    +0.000 A 
ATOM     16  C   UNL     1       1.796   6.667  20.608  0.00  0.00    +0.000 A 
BRANCH  14  17
ATOM     17  S   UNL     1       4.070   4.704  17.862  0.00  0.00    +0.000 S 
ATOM     18  O   UNL     1       4.747   3.945  18.882  0.00  0.00    +0.000 OA
ATOM     19  O   UNL     1       3.215   4.067  16.884  0.00  0.00    +0.000 OA
BRANCH  17  20
ATOM     20  N   UNL     1       5.212   5.636  17.018  0.00  0.00    +0.000 NA
ATOM     21  C   UNL     1       5.475   5.278  15.589  0.00  0.00    +0.000 C 
ATOM     22  C   UNL     1       6.543   4.179  15.455  0.00  0.00    +0.000 C 
ATOM     23  O   UNL     1       7.737   4.481  16.193  0.00  0.00    +0.000 OA
ATOM     24  C   UNL     1       7.448   4.706  17.580  0.00  0.00    +0.000 C 
ATOM     25  C   UNL     1       6.494   5.887  17.738  0.00  0.00    +0.000 C 
ENDBRANCH  17  20
ENDBRANCH  14  17
ENDBRANCH   2  11
BRANCH   1  26
ATOM     26  C   UNL     1       0.278  10.463  19.104  0.00  0.00    +0.000 C 
BRANCH  26  27
ATOM     27  C   UNL     1      -1.088  10.455  18.483  0.00  0.00    +0.000 A 
ATOM     28  C   UNL     1      -2.053  11.382  18.901  0.00  0.00    +0.000 A 
ATOM     29  C   UNL     1      -3.213  11.566  18.157  0.00  0.00    +0.000 A 
ATOM     30  C   UNL     1      -3.425  10.820  16.998  0.00  0.00    +0.000 A 
ATOM     31  C   UNL     1      -2.489   9.868  16.597  0.00  0.00    +0.000 A 
ATOM     32  C   UNL     1      -1.329   9.678  17.341  0.00  0.00    +0.000 A 
ENDBRANCH  26  27
ENDBRANCH   1  26
TORSDOF 6
ENDMDL
MODEL 2
REMARK VINA RESULT:      -9.3      2.356      3.351
REMARK  Name = 
REMARK  7 active torsions:
REMARK  status: ('A' for Active; 'I' for Inactive)
REMARK    1  A    between atoms: C_1  and  C_2
REMARK    2  A    between atoms: C_5  and  N_6
REMARK    3  A    between atoms: N_6  and  C_7
REMARK    4  A    between atoms: C_7  and  C_8
REMARK    5  A    between atoms: C_14  and  C_16
REMARK    6  A    between atoms: C_19  and  S_20
REMARK    7  A    between atoms: S_20  and  N_23
REMARK                            x       y       z     vdW  Elec       q    Type
REMARK                         _______ _______ _______ _____ _____    ______ ____
ROOT
ATOM      1  N   UNL     1      -0.498  11.632  19.418  0.00  0.00    +0.000 N 
ATOM      2  C   UNL     1       0.767  11.155  19.840  0.00  0.00    +0.000 C 
ATOM      3  O   UNL     1       1.631  11.923  20.277  0.00  0.00    +0.000 OA
ENDROOT
BRANCH   1   8
ATOM      4  C   UNL     1      -1.173  17.276  20.088  0.00  0.00    +0.000 C 
ATOM      5  C   UNL     1      -1.081  15.796  19.857  0.00  0.00    +0.000 A 
ATOM      6  C   UNL     1      -1.695  14.892  20.733  0.00  0.00    +0.000 A 
ATOM      7  C   UNL     1      -1.554  13.513  20.544  0.00  0.00    +0.000 A 
ATOM      8  C   UNL     1      -0.792  13.021  19.479  0.00  0.00    +0.000 A 
ATOM      9  C   UNL     1      -0.195  13.916  18.586  0.00  0.00    +0.000 A 
ATOM     10  C   UNL     1      -0.339  15.295  18.779  0.00  0.00    +0.000 A 
ENDBRANCH   1   8
BRANCH   2  11
ATOM     11  C   UNL     1       1.185   9.684  19.693  0.00  0.00    +0.000 A 
ATOM     12  C   UNL     1       1.730   9.067  18.552  0.00  0.00    +0.000 A 
ATOM     13  C   UNL     1       2.272   7.778  18.576  0.00  0.00    +0.000 A 
ATOM     14  C   UNL     1       2.203   7.029  19.737  0.00  0.00    +0.000 A 
ATOM     15  C   UNL     1       1.539   7.541  20.852  0.00  0.00    +0.000 A 
ATOM     16  C   UNL     1       1.045   8.859  20.828  0.00  0.00    +0.000 A 
BRANCH  14  17
ATOM     17  S   UNL     1       2.915   5.404  19.765  0.00  0.00    +0.000 S 
ATOM     18  O   UNL     1       4.334   5.582  19.596  0.00  0.00    +0.000 OA
ATOM     19  O   UNL     1       2.370   4.691  20.900  0.00  0.00    +0.000 OA
BRANCH  17  20
ATOM     20  N   UNL     1       2.276   4.698  18.359  0.00  0.00    +0.000 NA
ATOM     21  C   UNL     1       1.210   3.662  18.529  0.00  0.00    +0.000 C 
ATOM     22  C   UNL     1       1.799   2.257  18.748  0.00  0.00    +0.000 C 
ATOM     23  O   UNL     1       2.774   1.909  17.752  0.00  0.00    +0.000 OA
ATOM     24  C   UNL     1       3.834   2.874  17.705  0.00  0.00    +0.000 C 
ATOM     25  C   UNL     1       3.281   4.253  17.350  0.00  0.00    +0.000 C 
ENDBRANCH  17  20
ENDBRANCH  14  17
ENDBRANCH   2  11
BRANCH   1  26
ATOM     26  C   UNL     1      -1.585  10.745  19.058  0.00  0.00    +0.000 C 
BRANCH  26  27
ATOM     27  C   UNL     1      -2.314  10.798  17.747  0.00  0.00    +0.000 A 
ATOM     28  C   UNL     1      -1.924   9.959  16.694  0.00  0.00    +0.000 A 
ATOM     29  C   UNL     1      -2.747   9.800  15.585  0.00  0.00    +0.000 A 
ATOM     30  C   UNL     1      -3.961  10.484  15.514  0.00  0.00    +0.000 A 
ATOM     31  C   UNL     1      -4.339  11.350  16.538  0.00  0.00    +0.000 A 
ATOM     32  C   UNL     1      -3.514  11.515  17.647  0.00  0.00    +0.000 A 
ENDBRANCH  26  27
ENDBRANCH   1  26
TORSDOF 6
ENDMDL
MODEL 3
REMARK VINA RESULT:      -9.3      2.681      3.592
REMARK  Name = 
REMARK  7 active torsions:
REMARK  status: ('A' for Active; 'I' for Inactive)
REMARK    1  A    between atoms: C_1  and  C_2
REMARK    2  A    between atoms: C_5  and  N_6
REMARK    3  A    between atoms: N_6  and  C_7
REMARK    4  A    between atoms: C_7  and  C_8
REMARK    5  A    between atoms: C_14  and  C_16
REMARK    6  A    between atoms: C_19  and  S_20
REMARK    7  A    between atoms: S_20  and  N_23
REMARK                            x       y       z     vdW  Elec       q    Type
REMARK                         _______ _______ _______ _____ _____    ______ ____
ROOT
ATOM      1  N   UNL     1      -0.443  11.793  19.269  0.00  0.00    +0.000 N 
ATOM      2  C   UNL     1       0.904  11.359  19.331  0.00  0.00    +0.000 C 
ATOM      3  O   UNL     1       1.830  12.157  19.516  0.00  0.00    +0.000 OA
ENDROOT
BRANCH   1   8
ATOM      4  C   UNL     1      -1.180  17.384  20.240  0.00  0.00    +0.000 C 
ATOM      5  C   UNL     1      -1.072  15.919  19.931  0.00  0.00    +0.000 A 
ATOM      6  C   UNL     1      -1.659  14.964  20.770  0.00  0.00    +0.000 A 
ATOM      7  C   UNL     1      -1.503  13.598  20.508  0.00  0.00    +0.000 A 
ATOM      8  C   UNL     1      -0.753  13.172  19.406  0.00  0.00    +0.000 A 
ATOM      9  C   UNL     1      -0.185  14.120  18.550  0.00  0.00    +0.000 A 
ATOM     10  C   UNL     1      -0.344  15.485  18.817  0.00  0.00    +0.000 A 
ENDBRANCH   1   8
BRANCH   2  11
ATOM     11  C   UNL     1       1.314   9.900  19.076  0.00  0.00    +0.000 A 
ATOM     12  C   UNL     1       1.707   9.331  17.851  0.00  0.00    +0.000 A 
ATOM     13  C   UNL     1       2.261   8.050  17.756  0.00  0.00    +0.000 A 
ATOM     14  C   UNL     1       2.356   7.261  18.888  0.00  0.00    +0.000 A 
ATOM     15  C   UNL     1       1.842   7.724  20.100  0.00  0.00    +0.000 A 
ATOM     16  C   UNL     1       1.336   9.035  20.189  0.00  0.00    +0.000 A 
BRANCH  14  17
ATOM     17  S   UNL     1       3.082   5.646  18.763  0.00  0.00    +0.000 S 
ATOM     18  O   UNL     1       3.742   5.600  17.483  0.00  0.00    +0.000 OA
ATOM     19  O   UNL     1       3.792   5.373  19.993  0.00  0.00    +0.000 OA
BRANCH  17  20
ATOM     20  N   UNL     1       1.720   4.633  18.718  0.00  0.00    +0.000 NA
ATOM     21  C   UNL     1       1.254   4.045  20.013  0.00  0.00    +0.000 C 
ATOM     22  C   UNL     1       1.990   2.737  20.353  0.00  0.00    +0.000 C 
ATOM     23  O   UNL     1       1.972   1.800  19.265  0.00  0.00    +0.000 OA
ATOM     24  C   UNL     1       2.532   2.373  18.075  0.00  0.00    +0.000 C 
ATOM     25  C   UNL     1       1.725   3.596  17.646  0.00  0.00    +0.000 C 
ENDBRANCH  17  20
ENDBRANCH  14  17
ENDBRANCH   2  11
BRANCH   1  26
ATOM     26  C   UNL     1      -1.557  10.869  19.217  0.00  0.00    +0.000 C 
BRANCH  26  27
ATOM     27  C   UNL     1      -2.422  10.660  18.008  0.00  0.00    +0.000 A 
ATOM     28  C   UNL     1      -3.603  11.400  17.856  0.00  0.00    +0.000 A 
ATOM     29  C   UNL     1      -4.261  11.419  16.631  0.00  0.00    +0.000 A 
ATOM     30  C   UNL     1      -3.753  10.693  15.554  0.00  0.00    +0.000 A 
ATOM     31  C   UNL     1      -2.601   9.925  15.708  0.00  0.00    +0.000 A 
ATOM     32  C   UNL     1      -1.942   9.899  16.933  0.00  0.00    +0.000 A 
ENDBRANCH  26  27
ENDBRANCH   1  26
TORSDOF 6
ENDMDL
MODEL 4
REMARK VINA RESULT:      -9.1      2.280      3.215
REMARK  Name = 
REMARK  7 active torsions:
REMARK  status: ('A' for Active; 'I' for Inactive)
REMARK    1  A    between atoms: C_1  and  C_2
REMARK    2  A    between atoms: C_5  and  N_6
REMARK    3  A    between atoms: N_6  and  C_7
REMARK    4  A    between atoms: C_7  and  C_8
REMARK    5  A    between atoms: C_14  and  C_16
REMARK    6  A    between atoms: C_19  and  S_20
REMARK    7  A    between atoms: S_20  and  N_23
REMARK                            x       y       z     vdW  Elec       q    Type
REMARK                         _______ _______ _______ _____ _____    ______ ____
ROOT
ATOM      1  N   UNL     1      -0.714  11.303  19.747  0.00  0.00    +0.000 N 
ATOM      2  C   UNL     1       0.603  10.876  20.047  0.00  0.00    +0.000 C 
ATOM      3  O   UNL     1       1.391  11.604  20.661  0.00  0.00    +0.000 OA
ENDROOT
BRANCH   1   8
ATOM      4  C   UNL     1      -1.934  16.535  21.719  0.00  0.00    +0.000 C 
ATOM      5  C   UNL     1      -1.704  15.164  21.154  0.00  0.00    +0.000 A 
ATOM      6  C   UNL     1      -2.124  14.021  21.847  0.00  0.00    +0.000 A 
ATOM      7  C   UNL     1      -1.852  12.745  21.341  0.00  0.00    +0.000 A 
ATOM      8  C   UNL     1      -1.151  12.596  20.140  0.00  0.00    +0.000 A 
ATOM      9  C   UNL     1      -0.749  13.731  19.430  0.00  0.00    +0.000 A 
ATOM     10  C   UNL     1      -1.024  15.006  19.939  0.00  0.00    +0.000 A 
ENDBRANCH   1   8
BRANCH   2  11
ATOM     11  C   UNL     1       1.170   9.538  19.550  0.00  0.00    +0.000 A 
ATOM     12  C   UNL     1       1.581   9.224  18.242  0.00  0.00    +0.000 A 
ATOM     13  C   UNL     1       2.277   8.052  17.929  0.00  0.00    +0.000 A 
ATOM     14  C   UNL     1       2.505   7.109  18.915  0.00  0.00    +0.000 A 
ATOM     15  C   UNL     1       1.986   7.307  20.195  0.00  0.00    +0.000 A 
ATOM     16  C   UNL     1       1.335   8.515  20.506  0.00  0.00    +0.000 A 
BRANCH  14  17
ATOM     17  S   UNL     1       3.409   5.635  18.514  0.00  0.00    +0.000 S 
ATOM     18  O   UNL     1       4.136   5.925  17.304  0.00  0.00    +0.000 OA
ATOM     19  O   UNL     1       4.081   5.177  19.711  0.00  0.00    +0.000 OA
BRANCH  17  20
ATOM     20  N   UNL     1       2.171   4.528  18.163  0.00  0.00    +0.000 NA
ATOM     21  C   UNL     1       1.386   3.980  19.314  0.00  0.00    +0.000 C 
ATOM     22  C   UNL     1       2.062   2.748  19.941  0.00  0.00    +0.000 C 
ATOM     23  O   UNL     1       2.403   1.753  18.963  0.00  0.00    +0.000 OA
ATOM     24  C   UNL     1       3.249   2.298  17.940  0.00  0.00    +0.000 C 
ATOM     25  C   UNL     1       2.535   3.436  17.214  0.00  0.00    +0.000 C 
ENDBRANCH  17  20
ENDBRANCH  14  17
ENDBRANCH   2  11
BRANCH   1  26
ATOM     26  C   UNL     1      -1.709  10.418  19.176  0.00  0.00    +0.000 C 
BRANCH  26  27
ATOM     27  C   UNL     1      -2.365  10.638  17.844  0.00  0.00    +0.000 A 
ATOM     28  C   UNL     1      -1.947   9.899  16.728  0.00  0.00    +0.000 A 
ATOM     29  C   UNL     1      -2.716   9.890  15.569  0.00  0.00    +0.000 A 
ATOM     30  C   UNL     1      -3.900  10.625  15.511  0.00  0.00    +0.000 A 
ATOM     31  C   UNL     1      -4.302  11.393  16.603  0.00  0.00    +0.000 A 
ATOM     32  C   UNL     1      -3.533  11.408  17.762  0.00  0.00    +0.000 A 
ENDBRANCH  26  27
ENDBRANCH   1  26
TORSDOF 6
ENDMDL
MODEL 5
REMARK VINA RESULT:      -9.0      1.296      1.864
REMARK  Name = 
REMARK  7 active torsions:
REMARK  status: ('A' for Active; 'I' for Inactive)
REMARK    1  A    between atoms: C_1  and  C_2
REMARK    2  A    between atoms: C_5  and  N_6
REMARK    3  A    between atoms: N_6  and  C_7
REMARK    4  A    between atoms: C_7  and  C_8
REMARK    5  A    between atoms: C_14  and  C_16
REMARK    6  A    between atoms: C_19  and  S_20
REMARK    7  A    between atoms: S_20  and  N_23
REMARK                            x       y       z     vdW  Elec       q    Type
REMARK                         _______ _______ _______ _____ _____    ______ ____
ROOT
ATOM      1  N   UNL     1      -0.635  10.871  19.881  0.00  0.00    +0.000 N 
ATOM      2  C   UNL     1       0.689  10.479  20.200  0.00  0.00    +0.000 C 
ATOM      3  O   UNL     1       1.401  11.163  20.944  0.00  0.00    +0.000 OA
ENDROOT
BRANCH   1   8
ATOM      4  C   UNL     1      -2.221  15.776  22.368  0.00  0.00    +0.000 C 
ATOM      5  C   UNL     1      -1.896  14.486  21.672  0.00  0.00    +0.000 A 
ATOM      6  C   UNL     1      -2.175  13.254  22.277  0.00  0.00    +0.000 A 
ATOM      7  C   UNL     1      -1.815  12.057  21.647  0.00  0.00    +0.000 A 
ATOM      8  C   UNL     1      -1.166  12.079  20.409  0.00  0.00    +0.000 A 
ATOM      9  C   UNL     1      -0.906  13.303  19.787  0.00  0.00    +0.000 A 
ATOM     10  C   UNL     1      -1.268  14.498  20.420  0.00  0.00    +0.000 A 
ENDBRANCH   1   8
BRANCH   2  11
ATOM     11  C   UNL     1       1.358   9.247  19.572  0.00  0.00    +0.000 A 
ATOM     12  C   UNL     1       1.850   9.124  18.259  0.00  0.00    +0.000 A 
ATOM     13  C   UNL     1       2.628   8.040  17.842  0.00  0.00    +0.000 A 
ATOM     14  C   UNL     1       2.865   6.993  18.714  0.00  0.00    +0.000 A 
ATOM     15  C   UNL     1       2.274   6.998  19.978  0.00  0.00    +0.000 A 
ATOM     16  C   UNL     1       1.537   8.120  20.401  0.00  0.00    +0.000 A 
BRANCH  14  17
ATOM     17  S   UNL     1       3.873   5.632  18.183  0.00  0.00    +0.000 S 
ATOM     18  O   UNL     1       4.551   5.150  19.360  0.00  0.00    +0.000 OA
ATOM     19  O   UNL     1       3.060   4.759  17.366  0.00  0.00    +0.000 OA
BRANCH  17  20
ATOM     20  N   UNL     1       5.003   6.386  17.165  0.00  0.00    +0.000 NA
ATOM     21  C   UNL     1       5.188   5.814  15.795  0.00  0.00    +0.000 C 
ATOM     22  C   UNL     1       6.214   4.667  15.780  0.00  0.00    +0.000 C 
ATOM     23  O   UNL     1       7.450   5.029  16.416  0.00  0.00    +0.000 OA
ATOM     24  C   UNL     1       7.232   5.465  17.765  0.00  0.00    +0.000 C 
ATOM     25  C   UNL     1       6.324   6.692  17.786  0.00  0.00    +0.000 C 
ENDBRANCH  17  20
ENDBRANCH  14  17
ENDBRANCH   2  11
BRANCH   1  26
ATOM     26  C   UNL     1      -1.546  10.016  19.149  0.00  0.00    +0.000 C 
BRANCH  26  27
ATOM     27  C   UNL     1      -2.264  10.428  17.897  0.00  0.00    +0.000 A 
ATOM     28  C   UNL     1      -1.906   9.862  16.666  0.00  0.00    +0.000 A 
ATOM     29  C   UNL     1      -2.730  10.023  15.557  0.00  0.00    +0.000 A 
ATOM     30  C   UNL     1      -3.911  10.757  15.666  0.00  0.00    +0.000 A 
ATOM     31  C   UNL     1      -4.255  11.356  16.877  0.00  0.00    +0.000 A 
ATOM     32  C   UNL     1      -3.430  11.201  17.987  0.00  0.00    +0.000 A 
ENDBRANCH  26  27
ENDBRANCH   1  26
TORSDOF 6
ENDMDL
MODEL 6
REMARK VINA RESULT:      -8.9      2.456      3.204
REMARK  Name = 
REMARK  7 active torsions:
REMARK  status: ('A' for Active; 'I' for Inactive)
REMARK    1  A    between atoms: C_1  and  C_2
REMARK    2  A    between atoms: C_5  and  N_6
REMARK    3  A    between atoms: N_6  and  C_7
REMARK    4  A    between atoms: C_7  and  C_8
REMARK    5  A    between atoms: C_14  and  C_16
REMARK    6  A    between atoms: C_19  and  S_20
REMARK    7  A    between atoms: S_20  and  N_23
REMARK                            x       y       z     vdW  Elec       q    Type
REMARK                         _______ _______ _______ _____ _____    ______ ____
ROOT
ATOM      1  N   UNL     1      -0.701  11.104  20.041  0.00  0.00    +0.000 N 
ATOM      2  C   UNL     1       0.579  10.642  20.435  0.00  0.00    +0.000 C 
ATOM      3  O   UNL     1       1.325  11.335  21.137  0.00  0.00    +0.000 OA
ENDROOT
BRANCH   1   8
ATOM      4  C   UNL     1      -2.949  16.245  21.168  0.00  0.00    +0.000 C 
ATOM      5  C   UNL     1      -2.288  14.917  20.941  0.00  0.00    +0.000 A 
ATOM      6  C   UNL     1      -1.285  14.770  19.974  0.00  0.00    +0.000 A 
ATOM      7  C   UNL     1      -0.716  13.516  19.727  0.00  0.00    +0.000 A 
ATOM      8  C   UNL     1      -1.147  12.393  20.440  0.00  0.00    +0.000 A 
ATOM      9  C   UNL     1      -2.129  12.535  21.424  0.00  0.00    +0.000 A 
ATOM     10  C   UNL     1      -2.696  13.792  21.667  0.00  0.00    +0.000 A 
ENDBRANCH   1   8
BRANCH   2  11
ATOM     11  C   UNL     1       1.162   9.309  19.944  0.00  0.00    +0.000 A 
ATOM     12  C   UNL     1       1.633   9.014  18.651  0.00  0.00    +0.000 A 
ATOM     13  C   UNL     1       2.337   7.844  18.351  0.00  0.00    +0.000 A 
ATOM     14  C   UNL     1       2.514   6.883  19.332  0.00  0.00    +0.000 A 
ATOM     15  C   UNL     1       1.936   7.063  20.589  0.00  0.00    +0.000 A 
ATOM     16  C   UNL     1       1.277   8.269  20.889  0.00  0.00    +0.000 A 
BRANCH  14  17
ATOM     17  S   UNL     1       3.429   5.411  18.949  0.00  0.00    +0.000 S 
ATOM     18  O   UNL     1       3.162   5.120  17.564  0.00  0.00    +0.000 OA
ATOM     19  O   UNL     1       4.779   5.576  19.443  0.00  0.00    +0.000 OA
BRANCH  17  20
ATOM     20  N   UNL     1       2.666   4.242  19.916  0.00  0.00    +0.000 NA
ATOM     21  C   UNL     1       3.422   2.982  20.202  0.00  0.00    +0.000 C 
ATOM     22  C   UNL     1       3.232   1.929  19.097  0.00  0.00    +0.000 C 
ATOM     23  O   UNL     1       1.848   1.702  18.788  0.00  0.00    +0.000 OA
ATOM     24  C   UNL     1       1.193   2.922  18.410  0.00  0.00    +0.000 C 
ATOM     25  C   UNL     1       1.253   3.932  19.554  0.00  0.00    +0.000 C 
ENDBRANCH  17  20
ENDBRANCH  14  17
ENDBRANCH   2  11
BRANCH   1  26
ATOM     26  C   UNL     1      -1.660  10.258  19.362  0.00  0.00    +0.000 C 
BRANCH  26  27
ATOM     27  C   UNL     1      -2.309  10.604  18.053  0.00  0.00    +0.000 A 
ATOM     28  C   UNL     1      -1.924   9.936  16.883  0.00  0.00    +0.000 A 
ATOM     29  C   UNL     1      -2.694  10.046  15.730  0.00  0.00    +0.000 A 
ATOM     30  C   UNL     1      -3.847  10.831  15.734  0.00  0.00    +0.000 A 
ATOM     31  C   UNL     1      -4.216  11.529  16.883  0.00  0.00    +0.000 A 
ATOM     32  C   UNL     1      -3.445  11.425  18.036  0.00  0.00    +0.000 A 
ENDBRANCH  26  27
ENDBRANCH   1  26
TORSDOF 6
ENDMDL
MODEL 7
REMARK VINA RESULT:      -8.8      2.870      3.776
REMARK  Name = 
REMARK  7 active torsions:
REMARK  status: ('A' for Active; 'I' for Inactive)
REMARK    1  A    between atoms: C_1  and  C_2
REMARK    2  A    between atoms: C_5  and  N_6
REMARK    3  A    between atoms: N_6  and  C_7
REMARK    4  A    between atoms: C_7  and  C_8
REMARK    5  A    between atoms: C_14  and  C_16
REMARK    6  A    between atoms: C_19  and  S_20
REMARK    7  A    between atoms: S_20  and  N_23
REMARK                            x       y       z     vdW  Elec       q    Type
REMARK                         _______ _______ _______ _____ _____    ______ ____
ROOT
ATOM      1  N   UNL     1      -0.413  11.994  19.559  0.00  0.00    +0.000 N 
ATOM      2  C   UNL     1       0.884  11.464  19.768  0.00  0.00    +0.000 C 
ATOM      3  O   UNL     1       1.823  12.184  20.125  0.00  0.00    +0.000 OA
ENDROOT
BRANCH   1   8
ATOM      4  C   UNL     1      -1.888  17.514  19.890  0.00  0.00    +0.000 C 
ATOM      5  C   UNL     1      -1.420  16.088  19.861  0.00  0.00    +0.000 A 
ATOM      6  C   UNL     1      -0.547  15.638  18.862  0.00  0.00    +0.000 A 
ATOM      7  C   UNL     1      -0.164  14.294  18.807  0.00  0.00    +0.000 A 
ATOM      8  C   UNL     1      -0.654  13.381  19.747  0.00  0.00    +0.000 A 
ATOM      9  C   UNL     1      -1.507  13.826  20.761  0.00  0.00    +0.000 A 
ATOM     10  C   UNL     1      -1.888  15.172  20.813  0.00  0.00    +0.000 A 
ENDBRANCH   1   8
BRANCH   2  11
ATOM     11  C   UNL     1       1.234   9.998  19.472  0.00  0.00    +0.000 A 
ATOM     12  C   UNL     1       1.673   9.460  18.248  0.00  0.00    +0.000 A 
ATOM     13  C   UNL     1       2.166   8.158  18.127  0.00  0.00    +0.000 A 
ATOM     14  C   UNL     1       2.151   7.317  19.227  0.00  0.00    +0.000 A 
ATOM     15  C   UNL     1       1.587   7.756  20.425  0.00  0.00    +0.000 A 
ATOM     16  C   UNL     1       1.144   9.086  20.544  0.00  0.00    +0.000 A 
BRANCH  14  17
ATOM     17  S   UNL     1       2.801   5.673  19.071  0.00  0.00    +0.000 S 
ATOM     18  O   UNL     1       2.636   5.304  17.688  0.00  0.00    +0.000 OA
ATOM     19  O   UNL     1       4.094   5.635  19.717  0.00  0.00    +0.000 OA
BRANCH  17  20
ATOM     20  N   UNL     1       1.725   4.761  20.017  0.00  0.00    +0.000 NA
ATOM     21  C   UNL     1       2.257   4.154  21.277  0.00  0.00    +0.000 C 
ATOM     22  C   UNL     1       2.912   2.784  21.027  0.00  0.00    +0.000 C 
ATOM     23  O   UNL     1       2.062   1.897  20.285  0.00  0.00    +0.000 OA
ATOM     24  C   UNL     1       1.669   2.478  19.034  0.00  0.00    +0.000 C 
ATOM     25  C   UNL     1       0.894   3.772  19.272  0.00  0.00    +0.000 C 
ENDBRANCH  17  20
ENDBRANCH  14  17
ENDBRANCH   2  11
BRANCH   1  26
ATOM     26  C   UNL     1      -1.565  11.155  19.300  0.00  0.00    +0.000 C 
BRANCH  26  27
ATOM     27  C   UNL     1      -2.266  11.073  17.975  0.00  0.00    +0.000 A 
ATOM     28  C   UNL     1      -1.822  10.167  17.002  0.00  0.00    +0.000 A 
ATOM     29  C   UNL     1      -2.614   9.888  15.894  0.00  0.00    +0.000 A 
ATOM     30  C   UNL     1      -3.850  10.517  15.744  0.00  0.00    +0.000 A 
ATOM     31  C   UNL     1      -4.282  11.447  16.687  0.00  0.00    +0.000 A 
ATOM     32  C   UNL     1      -3.490  11.733  17.794  0.00  0.00    +0.000 A 
ENDBRANCH  26  27
ENDBRANCH   1  26
TORSDOF 6
ENDMDL
MODEL 8
REMARK VINA RESULT:      -8.7      2.208      2.781
REMARK  Name = 
REMARK  7 active torsions:
REMARK  status: ('A' for Active; 'I' for Inactive)
REMARK    1  A    between atoms: C_1  and  C_2
REMARK    2  A    between atoms: C_5  and  N_6
REMARK    3  A    between atoms: N_6  and  C_7
REMARK    4  A    between atoms: C_7  and  C_8
REMARK    5  A    between atoms: C_14  and  C_16
REMARK    6  A    between atoms: C_19  and  S_20
REMARK    7  A    between atoms: S_20  and  N_23
REMARK                            x       y       z     vdW  Elec       q    Type
REMARK                         _______ _______ _______ _____ _____    ______ ____
ROOT
ATOM      1  N   UNL     1      -0.111  11.515  20.632  0.00  0.00    +0.000 N 
ATOM      2  C   UNL     1       0.380  10.367  21.302  0.00  0.00    +0.000 C 
ATOM      3  O   UNL     1       0.413  10.307  22.536  0.00  0.00    +0.000 OA
ENDROOT
BRANCH   1   8
ATOM      4  C   UNL     1      -1.746  15.696  24.182  0.00  0.00    +0.000 C 
ATOM      5  C   UNL     1      -1.359  14.652  23.175  0.00  0.00    +0.000 A 
ATOM      6  C   UNL     1      -2.222  13.591  22.873  0.00  0.00    +0.000 A 
ATOM      7  C   UNL     1      -1.829  12.589  21.979  0.00  0.00    +0.000 A 
ATOM      8  C   UNL     1      -0.566  12.634  21.379  0.00  0.00    +0.000 A 
ATOM      9  C   UNL     1       0.292  13.703  21.656  0.00  0.00    +0.000 A 
ATOM     10  C   UNL     1      -0.106  14.703  22.552  0.00  0.00    +0.000 A 
ENDBRANCH   1   8
BRANCH   2  11
ATOM     11  C   UNL     1       0.990   9.172  20.553  0.00  0.00    +0.000 A 
ATOM     12  C   UNL     1       1.535   9.173  19.256  0.00  0.00    +0.000 A 
ATOM     13  C   UNL     1       2.254   8.092  18.737  0.00  0.00    +0.000 A 
ATOM     14  C   UNL     1       2.373   6.931  19.481  0.00  0.00    +0.000 A 
ATOM     15  C   UNL     1       1.723   6.828  20.711  0.00  0.00    +0.000 A 
ATOM     16  C   UNL     1       1.048   7.943  21.241  0.00  0.00    +0.000 A 
BRANCH  14  17
ATOM     17  S   UNL     1       3.307   5.571  18.825  0.00  0.00    +0.000 S 
ATOM     18  O   UNL     1       3.263   5.707  17.392  0.00  0.00    +0.000 OA
ATOM     19  O   UNL     1       4.562   5.498  19.542  0.00  0.00    +0.000 OA
BRANCH  17  20
ATOM     20  N   UNL     1       2.374   4.229  19.281  0.00  0.00    +0.000 NA
ATOM     21  C   UNL     1       2.981   3.260  20.246  0.00  0.00    +0.000 C 
ATOM     22  C   UNL     1       3.836   2.196  19.537  0.00  0.00    +0.000 C 
ATOM     23  O   UNL     1       3.132   1.557  18.459  0.00  0.00    +0.000 OA
ATOM     24  C   UNL     1       2.666   2.518  17.502  0.00  0.00    +0.000 C 
ATOM     25  C   UNL     1       1.704   3.502  18.164  0.00  0.00    +0.000 C 
ENDBRANCH  17  20
ENDBRANCH  14  17
ENDBRANCH   2  11
BRANCH   1  26
ATOM     26  C   UNL     1      -0.315  11.553  19.199  0.00  0.00    +0.000 C 
BRANCH  26  27
ATOM     27  C   UNL     1      -1.557  11.066  18.513  0.00  0.00    +0.000 A 
ATOM     28  C   UNL     1      -2.772  11.739  18.702  0.00  0.00    +0.000 A 
ATOM     29  C   UNL     1      -3.855  11.472  17.872  0.00  0.00    +0.000 A 
ATOM     30  C   UNL     1      -3.738  10.526  16.855  0.00  0.00    +0.000 A 
ATOM     31  C   UNL     1      -2.546   9.824  16.684  0.00  0.00    +0.000 A 
ATOM     32  C   UNL     1      -1.462  10.085  17.515  0.00  0.00    +0.000 A 
ENDBRANCH  26  27
ENDBRANCH   1  26
TORSDOF 6
ENDMDL
MODEL 9
REMARK VINA RESULT:      -8.7      1.854      2.344
REMARK  Name = 
REMARK  7 active torsions:
REMARK  status: ('A' for Active; 'I' for Inactive)
REMARK    1  A    between atoms: C_1  and  C_2
REMARK    2  A    between atoms: C_5  and  N_6
REMARK    3  A    between atoms: N_6  and  C_7
REMARK    4  A    between atoms: C_7  and  C_8
REMARK    5  A    between atoms: C_14  and  C_16
REMARK    6  A    between atoms: C_19  and  S_20
REMARK    7  A    between atoms: S_20  and  N_23
REMARK                            x       y       z     vdW  Elec       q    Type
REMARK                         _______ _______ _______ _____ _____    ______ ____
ROOT
ATOM      1  N   UNL     1      -0.415  11.626  19.301  0.00  0.00    +0.000 N 
ATOM      2  C   UNL     1       0.954  11.266  19.357  0.00  0.00    +0.000 C 
ATOM      3  O   UNL     1       1.829  12.100  19.616  0.00  0.00    +0.000 OA
ENDROOT
BRANCH   1   8
ATOM      4  C   UNL     1      -1.467  17.092  20.631  0.00  0.00    +0.000 C 
ATOM      5  C   UNL     1      -1.279  15.657  20.232  0.00  0.00    +0.000 A 
ATOM      6  C   UNL     1      -1.768  14.618  21.034  0.00  0.00    +0.000 A 
ATOM      7  C   UNL     1      -1.536  13.283  20.684  0.00  0.00    +0.000 A 
ATOM      8  C   UNL     1      -0.807  12.971  19.533  0.00  0.00    +0.000 A 
ATOM      9  C   UNL     1      -0.336  14.002  18.714  0.00  0.00    +0.000 A 
ATOM     10  C   UNL     1      -0.571  15.336  19.067  0.00  0.00    +0.000 A 
ENDBRANCH   1   8
BRANCH   2  11
ATOM     11  C   UNL     1       1.452   9.855  19.006  0.00  0.00    +0.000 A 
ATOM     12  C   UNL     1       1.971   9.422  17.772  0.00  0.00    +0.000 A 
ATOM     13  C   UNL     1       2.591   8.179  17.607  0.00  0.00    +0.000 A 
ATOM     14  C   UNL     1       2.629   7.289  18.666  0.00  0.00    +0.000 A 
ATOM     15  C   UNL     1       1.996   7.614  19.866  0.00  0.00    +0.000 A 
ATOM     16  C   UNL     1       1.424   8.889  20.032  0.00  0.00    +0.000 A 
BRANCH  14  17
ATOM     17  S   UNL     1       3.438   5.723  18.455  0.00  0.00    +0.000 S 
ATOM     18  O   UNL     1       4.038   5.405  19.726  0.00  0.00    +0.000 OA
ATOM     19  O   UNL     1       2.513   4.821  17.805  0.00  0.00    +0.000 OA
BRANCH  17  20
ATOM     20  N   UNL     1       4.666   6.091  17.342  0.00  0.00    +0.000 NA
ATOM     21  C   UNL     1       4.785   5.219  16.131  0.00  0.00    +0.000 C 
ATOM     22  C   UNL     1       5.649   3.974  16.397  0.00  0.00    +0.000 C 
ATOM     23  O   UNL     1       6.917   4.302  16.986  0.00  0.00    +0.000 OA
ATOM     24  C   UNL     1       6.749   5.041  18.204  0.00  0.00    +0.000 C 
ATOM     25  C   UNL     1       6.012   6.350  17.932  0.00  0.00    +0.000 C 
ENDBRANCH  17  20
ENDBRANCH  14  17
ENDBRANCH   2  11
BRANCH   1  26
ATOM     26  C   UNL     1      -1.473  10.646  19.163  0.00  0.00    +0.000 C 
BRANCH  26  27
ATOM     27  C   UNL     1      -2.387  10.558  17.976  0.00  0.00    +0.000 A 
ATOM     28  C   UNL     1      -3.537  11.357  17.917  0.00  0.00    +0.000 A 
ATOM     29  C   UNL     1      -4.236  11.488  16.723  0.00  0.00    +0.000 A 
ATOM     30  C   UNL     1      -3.800  10.815  15.582  0.00  0.00    +0.000 A 
ATOM     31  C   UNL     1      -2.680   9.988  15.641  0.00  0.00    +0.000 A 
ATOM     32  C   UNL     1      -1.981   9.850  16.836  0.00  0.00    +0.000 A 
ENDBRANCH  26  27
ENDBRANCH   1  26
TORSDOF 6
ENDMDL
