MODEL 1
REMARK VINA RESULT:      -6.8      0.000      0.000
REMARK  Name = 
REMARK  12 active torsions:
REMARK  status: ('A' for Active; 'I' for Inactive)
REMARK    1  A    between atoms: C_1  and  N_2
REMARK    2  A    between atoms: N_2  and  C_3
REMARK    3  A    between atoms: C_3  and  C_4
REMARK    4  A    between atoms: C_4  and  O_5
REMARK    5  A    between atoms: C_4  and  C_6
REMARK    6  A    between atoms: C_6  and  O_7
REMARK    7  A    between atoms: O_7  and  C_8
REMARK    8  A    between atoms: C_11  and  S_12
REMARK    9  A    between atoms: S_12  and  N_15
REMARK   10  A    between atoms: N_15  and  C_16
REMARK   11  A    between atoms: C_16  and  C_17
REMARK   12  A    between atoms: C_17  and  C_18
REMARK                            x       y       z     vdW  Elec       q    Type
REMARK                         _______ _______ _______ _____ _____    ______ ____
ROOT
ATOM      1  C   UNL     1       2.340   7.735  18.557  0.00  0.00    +0.000 A 
ATOM      2  C   UNL     1       2.566   6.750  19.518  0.00  0.00    +0.000 A 
ATOM      3  C   UNL     1       3.671   5.913  19.415  0.00  0.00    +0.000 A 
ATOM      4  C   UNL     1       4.509   6.003  18.302  0.00  0.00    +0.000 A 
ATOM      5  C   UNL     1       4.261   6.945  17.299  0.00  0.00    +0.000 A 
ATOM      6  C   UNL     1       3.169   7.811  17.432  0.00  0.00    +0.000 A 
ENDROOT
BRANCH   4   7
ATOM      7  S   UNL     1       5.905   4.909  18.187  0.00  0.00    +0.000 S 
ATOM      8  O   UNL     1       6.955   5.630  17.509  0.00  0.00    +0.000 OA
ATOM      9  O   UNL     1       6.117   4.283  19.472  0.00  0.00    +0.000 OA
BRANCH   7  10
ATOM     10  N   UNL     1       5.381   3.722  17.111  0.00  0.00    +0.000 NA
ATOM     11  H   UNL     1       6.007   2.917  17.156  0.00  0.00    +0.000 HD
BRANCH  10  12
ATOM     12  C   UNL     1       3.941   3.413  17.020  0.00  0.00    +0.000 C 
BRANCH  12  13
ATOM     13  C   UNL     1       3.558   2.171  17.819  0.00  0.00    +0.000 C 
BRANCH  13  14
ATOM     14  C   UNL     1       2.763   2.508  19.049  0.00  0.00    +0.000 A 
ATOM     15  C   UNL     1       3.361   2.403  20.312  0.00  0.00    +0.000 A 
ATOM     16  C   UNL     1       2.633   2.695  21.463  0.00  0.00    +0.000 A 
ATOM     17  C   UNL     1       1.299   3.091  21.354  0.00  0.00    +0.000 A 
ATOM     18  C   UNL     1       0.701   3.200  20.099  0.00  0.00    +0.000 A 
ATOM     19  C   UNL     1       1.429   2.912  18.947  0.00  0.00    +0.000 A 
ENDBRANCH  13  14
ENDBRANCH  12  13
ENDBRANCH  10  12
ENDBRANCH   7  10
ENDBRANCH   4   7
BRANCH   1  20
ATOM     20  O   UNL     1       1.338   8.665  18.650  0.00  0.00    +0.000 OA
BRANCH  20  21
ATOM     21  C   UNL     1       1.745   9.997  18.277  0.00  0.00    +0.000 C 
BRANCH  21  22
ATOM     22  C   UNL     1       0.918  11.027  19.049  0.00  0.00    +0.000 C 
BRANCH  22  23
ATOM     23  O   UNL     1       1.055  10.803  20.460  0.00  0.00    +0.000 OA
ATOM     24  H   UNL     1       1.019   9.837  20.589  0.00  0.00    +0.000 HD
ENDBRANCH  22  23
BRANCH  22  25
ATOM     25  C   UNL     1      -0.566  10.948  18.645  0.00  0.00    +0.000 C 
BRANCH  25  27
ATOM     26  C   UNL     1      -0.387  13.330  18.360  0.00  0.00    +0.000 C 
ATOM     27  N   UNL     1      -0.930  12.098  17.811  0.00  0.00    +0.000 NA
ATOM     28  H   UNL     1      -0.569  11.935  16.868  0.00  0.00    +0.000 HD
ENDBRANCH  25  27
ENDBRANCH  22  25
ENDBRANCH  21  22
ENDBRANCH  20  21
ENDBRANCH   1  20
TORSDOF 11
ENDMDL
MODEL 2
REMARK VINA RESULT:      -6.7      1.063      1.573
REMARK  Name = 
REMARK  12 active torsions:
REMARK  status: ('A' for Active; 'I' for Inactive)
REMARK    1  A    between atoms: C_1  and  N_2
REMARK    2  A    between atoms: N_2  and  C_3
REMARK    3  A    between atoms: C_3  and  C_4
REMARK    4  A    between atoms: C_4  and  O_5
REMARK    5  A    between atoms: C_4  and  C_6
REMARK    6  A    between atoms: C_6  and  O_7
REMARK    7  A    between atoms: O_7  and  C_8
REMARK    8  A    between atoms: C_11  and  S_12
REMARK    9  A    between atoms: S_12  and  N_15
REMARK   10  A    between atoms: N_15  and  C_16
REMARK   11  A    between atoms: C_16  and  C_17
REMARK   12  A    between atoms: C_17  and  C_18
REMARK                            x       y       z     vdW  Elec       q    Type
REMARK                         _______ _______ _______ _____ _____    ______ ____
ROOT
ATOM      1  C   UNL     1       2.419   7.596  18.941  0.00  0.00    +0.000 A 
ATOM      2  C   UNL     1       2.792   6.534  19.763  0.00  0.00    +0.000 A 
ATOM      3  C   UNL     1       3.877   5.734  19.424  0.00  0.00    +0.000 A 
ATOM      4  C   UNL     1       4.542   5.943  18.214  0.00  0.00    +0.000 A 
ATOM      5  C   UNL     1       4.140   6.966  17.349  0.00  0.00    +0.000 A 
ATOM      6  C   UNL     1       3.073   7.792  17.719  0.00  0.00    +0.000 A 
ENDROOT
BRANCH   4   7
ATOM      7  S   UNL     1       5.915   4.895  17.795  0.00  0.00    +0.000 S 
ATOM      8  O   UNL     1       6.535   5.457  16.620  0.00  0.00    +0.000 OA
ATOM      9  O   UNL     1       6.670   4.612  18.995  0.00  0.00    +0.000 OA
BRANCH   7  10
ATOM     10  N   UNL     1       5.175   3.465  17.298  0.00  0.00    +0.000 NA
ATOM     11  H   UNL     1       5.472   2.697  17.901  0.00  0.00    +0.000 HD
BRANCH  10  12
ATOM     12  C   UNL     1       3.745   3.478  16.931  0.00  0.00    +0.000 C 
BRANCH  12  13
ATOM     13  C   UNL     1       2.978   2.301  17.527  0.00  0.00    +0.000 C 
BRANCH  13  14
ATOM     14  C   UNL     1       2.465   2.596  18.908  0.00  0.00    +0.000 A 
ATOM     15  C   UNL     1       1.201   3.181  19.068  0.00  0.00    +0.000 A 
ATOM     16  C   UNL     1       0.718   3.477  20.340  0.00  0.00    +0.000 A 
ATOM     17  C   UNL     1       1.500   3.190  21.460  0.00  0.00    +0.000 A 
ATOM     18  C   UNL     1       2.756   2.605  21.306  0.00  0.00    +0.000 A 
ATOM     19  C   UNL     1       3.239   2.305  20.034  0.00  0.00    +0.000 A 
ENDBRANCH  13  14
ENDBRANCH  12  13
ENDBRANCH  10  12
ENDBRANCH   7  10
ENDBRANCH   4   7
BRANCH   1  20
ATOM     20  O   UNL     1       1.433   8.492  19.265  0.00  0.00    +0.000 OA
BRANCH  20  21
ATOM     21  C   UNL     1       1.389   9.645  18.401  0.00  0.00    +0.000 C 
BRANCH  21  22
ATOM     22  C   UNL     1       0.054  10.373  18.576  0.00  0.00    +0.000 C 
BRANCH  22  23
ATOM     23  O   UNL     1      -0.748  10.211  17.396  0.00  0.00    +0.000 OA
ATOM     24  H   UNL     1      -1.675  10.313  17.679  0.00  0.00    +0.000 HD
ENDBRANCH  22  23
BRANCH  22  25
ATOM     25  C   UNL     1       0.284  11.870  18.855  0.00  0.00    +0.000 C 
BRANCH  25  27
ATOM     26  C   UNL     1      -0.638  11.405  21.028  0.00  0.00    +0.000 C 
ATOM     27  N   UNL     1       0.404  12.109  20.297  0.00  0.00    +0.000 NA
ATOM     28  H   UNL     1       1.330  11.792  20.597  0.00  0.00    +0.000 HD
ENDBRANCH  25  27
ENDBRANCH  22  25
ENDBRANCH  21  22
ENDBRANCH  20  21
ENDBRANCH   1  20
TORSDOF 11
ENDMDL
MODEL 3
REMARK VINA RESULT:      -6.7      0.876      1.334
REMARK  Name = 
REMARK  12 active torsions:
REMARK  status: ('A' for Active; 'I' for Inactive)
REMARK    1  A    between atoms: C_1  and  N_2
REMARK    2  A    between atoms: N_2  and  C_3
REMARK    3  A    between atoms: C_3  and  C_4
REMARK    4  A    between atoms: C_4  and  O_5
REMARK    5  A    between atoms: C_4  and  C_6
REMARK    6  A    between atoms: C_6  and  O_7
REMARK    7  A    between atoms: O_7  and  C_8
REMARK    8  A    between atoms: C_11  and  S_12
REMARK    9  A    between atoms: S_12  and  N_15
REMARK   10  A    between atoms: N_15  and  C_16
REMARK   11  A    between atoms: C_16  and  C_17
REMARK   12  A    between atoms: C_17  and  C_18
REMARK                            x       y       z     vdW  Elec       q    Type
REMARK                         _______ _______ _______ _____ _____    ______ ____
ROOT
ATOM      1  C   UNL     1       2.345   7.743  18.923  0.00  0.00    +0.000 A 
ATOM      2  C   UNL     1       2.555   6.639  19.749  0.00  0.00    +0.000 A 
ATOM      3  C   UNL     1       3.602   5.762  19.491  0.00  0.00    +0.000 A 
ATOM      4  C   UNL     1       4.393   5.940  18.354  0.00  0.00    +0.000 A 
ATOM      5  C   UNL     1       4.155   7.007  17.483  0.00  0.00    +0.000 A 
ATOM      6  C   UNL     1       3.124   7.908  17.773  0.00  0.00    +0.000 A 
ENDROOT
BRANCH   4   7
ATOM      7  S   UNL     1       5.714   4.794  18.038  0.00  0.00    +0.000 S 
ATOM      8  O   UNL     1       6.738   5.514  17.321  0.00  0.00    +0.000 OA
ATOM      9  O   UNL     1       6.003   4.066  19.253  0.00  0.00    +0.000 OA
BRANCH   7  10
ATOM     10  N   UNL     1       5.038   3.716  16.934  0.00  0.00    +0.000 NA
ATOM     11  H   UNL     1       5.643   2.899  16.836  0.00  0.00    +0.000 HD
BRANCH  10  12
ATOM     12  C   UNL     1       3.589   3.439  16.986  0.00  0.00    +0.000 C 
BRANCH  12  13
ATOM     13  C   UNL     1       3.265   2.166  17.763  0.00  0.00    +0.000 C 
BRANCH  13  14
ATOM     14  C   UNL     1       2.579   2.456  19.068  0.00  0.00    +0.000 A 
ATOM     15  C   UNL     1       1.231   2.843  19.073  0.00  0.00    +0.000 A 
ATOM     16  C   UNL     1       0.587   3.132  20.274  0.00  0.00    +0.000 A 
ATOM     17  C   UNL     1       1.289   3.036  21.476  0.00  0.00    +0.000 A 
ATOM     18  C   UNL     1       2.628   2.647  21.476  0.00  0.00    +0.000 A 
ATOM     19  C   UNL     1       3.274   2.355  20.277  0.00  0.00    +0.000 A 
ENDBRANCH  13  14
ENDBRANCH  12  13
ENDBRANCH  10  12
ENDBRANCH   7  10
ENDBRANCH   4   7
BRANCH   1  20
ATOM     20  O   UNL     1       1.405   8.708  19.177  0.00  0.00    +0.000 OA
BRANCH  20  21
ATOM     21  C   UNL     1       0.936   9.388  17.996  0.00  0.00    +0.000 C 
BRANCH  21  22
ATOM     22  C   UNL     1       0.150  10.639  18.395  0.00  0.00    +0.000 C 
BRANCH  22  23
ATOM     23  O   UNL     1       0.897  11.397  19.359  0.00  0.00    +0.000 OA
ATOM     24  H   UNL     1       1.648  11.789  18.876  0.00  0.00    +0.000 HD
ENDBRANCH  22  23
BRANCH  22  25
ATOM     25  C   UNL     1      -1.223  10.256  18.976  0.00  0.00    +0.000 C 
BRANCH  25  27
ATOM     26  C   UNL     1      -2.335  11.357  17.149  0.00  0.00    +0.000 C 
ATOM     27  N   UNL     1      -2.213  10.119  17.902  0.00  0.00    +0.000 NA
ATOM     28  H   UNL     1      -1.916   9.355  17.291  0.00  0.00    +0.000 HD
ENDBRANCH  25  27
ENDBRANCH  22  25
ENDBRANCH  21  22
ENDBRANCH  20  21
ENDBRANCH   1  20
TORSDOF 11
ENDMDL
MODEL 4
REMARK VINA RESULT:      -6.7      1.110      1.152
REMARK  Name = 
REMARK  12 active torsions:
REMARK  status: ('A' for Active; 'I' for Inactive)
REMARK    1  A    between atoms: C_1  and  N_2
REMARK    2  A    between atoms: N_2  and  C_3
REMARK    3  A    between atoms: C_3  and  C_4
REMARK    4  A    between atoms: C_4  and  O_5
REMARK    5  A    between atoms: C_4  and  C_6
REMARK    6  A    between atoms: C_6  and  O_7
REMARK    7  A    between atoms: O_7  and  C_8
REMARK    8  A    between atoms: C_11  and  S_12
REMARK    9  A    between atoms: S_12  and  N_15
REMARK   10  A    between atoms: N_15  and  C_16
REMARK   11  A    between atoms: C_16  and  C_17
REMARK   12  A    between atoms: C_17  and  C_18
REMARK                            x       y       z     vdW  Elec       q    Type
REMARK                         _______ _______ _______ _____ _____    ______ ____
ROOT
ATOM      1  C   UNL     1       2.312   7.653  18.826  0.00  0.00    +0.000 A 
ATOM      2  C   UNL     1       2.621   6.610  19.700  0.00  0.00    +0.000 A 
ATOM      3  C   UNL     1       3.732   5.809  19.467  0.00  0.00    +0.000 A 
ATOM      4  C   UNL     1       4.493   5.994  18.311  0.00  0.00    +0.000 A 
ATOM      5  C   UNL     1       4.160   6.996  17.394  0.00  0.00    +0.000 A 
ATOM      6  C   UNL     1       3.063   7.825  17.658  0.00  0.00    +0.000 A 
ENDROOT
BRANCH   4   7
ATOM      7  S   UNL     1       5.899   4.944  18.029  0.00  0.00    +0.000 S 
ATOM      8  O   UNL     1       6.879   5.729  17.320  0.00  0.00    +0.000 OA
ATOM      9  O   UNL     1       6.220   4.252  19.257  0.00  0.00    +0.000 OA
BRANCH   7  10
ATOM     10  N   UNL     1       5.320   3.807  16.928  0.00  0.00    +0.000 NA
ATOM     11  H   UNL     1       5.985   3.036  16.850  0.00  0.00    +0.000 HD
BRANCH  10  12
ATOM     12  C   UNL     1       3.894   3.427  16.961  0.00  0.00    +0.000 C 
BRANCH  12  13
ATOM     13  C   UNL     1       3.638   2.197  17.828  0.00  0.00    +0.000 C 
BRANCH  13  14
ATOM     14  C   UNL     1       2.800   2.516  19.034  0.00  0.00    +0.000 A 
ATOM     15  C   UNL     1       3.368   2.440  20.314  0.00  0.00    +0.000 A 
ATOM     16  C   UNL     1       2.599   2.715  21.442  0.00  0.00    +0.000 A 
ATOM     17  C   UNL     1       1.257   3.066  21.296  0.00  0.00    +0.000 A 
ATOM     18  C   UNL     1       0.688   3.146  20.025  0.00  0.00    +0.000 A 
ATOM     19  C   UNL     1       1.456   2.874  18.894  0.00  0.00    +0.000 A 
ENDBRANCH  13  14
ENDBRANCH  12  13
ENDBRANCH  10  12
ENDBRANCH   7  10
ENDBRANCH   4   7
BRANCH   1  20
ATOM     20  O   UNL     1       1.301   8.550  19.048  0.00  0.00    +0.000 OA
BRANCH  20  21
ATOM     21  C   UNL     1       1.515   9.833  18.427  0.00  0.00    +0.000 C 
BRANCH  21  22
ATOM     22  C   UNL     1       0.629  10.887  19.094  0.00  0.00    +0.000 C 
BRANCH  22  23
ATOM     23  O   UNL     1      -0.752  10.605  18.823  0.00  0.00    +0.000 OA
ATOM     24  H   UNL     1      -0.897   9.675  19.076  0.00  0.00    +0.000 HD
ENDBRANCH  22  23
BRANCH  22  25
ATOM     25  C   UNL     1       0.987  12.297  18.590  0.00  0.00    +0.000 C 
BRANCH  25  27
ATOM     26  C   UNL     1       2.974  13.598  18.203  0.00  0.00    +0.000 C 
ATOM     27  N   UNL     1       2.334  12.306  18.010  0.00  0.00    +0.000 NA
ATOM     28  H   UNL     1       2.879  11.565  18.459  0.00  0.00    +0.000 HD
ENDBRANCH  25  27
ENDBRANCH  22  25
ENDBRANCH  21  22
ENDBRANCH  20  21
ENDBRANCH   1  20
TORSDOF 11
ENDMDL
MODEL 5
REMARK VINA RESULT:      -6.7      1.444      1.567
REMARK  Name = 
REMARK  12 active torsions:
REMARK  status: ('A' for Active; 'I' for Inactive)
REMARK    1  A    between atoms: C_1  and  N_2
REMARK    2  A    between atoms: N_2  and  C_3
REMARK    3  A    between atoms: C_3  and  C_4
REMARK    4  A    between atoms: C_4  and  O_5
REMARK    5  A    between atoms: C_4  and  C_6
REMARK    6  A    between atoms: C_6  and  O_7
REMARK    7  A    between atoms: O_7  and  C_8
REMARK    8  A    between atoms: C_11  and  S_12
REMARK    9  A    between atoms: S_12  and  N_15
REMARK   10  A    between atoms: N_15  and  C_16
REMARK   11  A    between atoms: C_16  and  C_17
REMARK   12  A    between atoms: C_17  and  C_18
REMARK                            x       y       z     vdW  Elec       q    Type
REMARK                         _______ _______ _______ _____ _____    ______ ____
ROOT
ATOM      1  C   UNL     1       2.245   7.550  19.381  0.00  0.00    +0.000 A 
ATOM      2  C   UNL     1       2.755   6.446  20.064  0.00  0.00    +0.000 A 
ATOM      3  C   UNL     1       3.799   5.707  19.520  0.00  0.00    +0.000 A 
ATOM      4  C   UNL     1       4.282   6.020  18.248  0.00  0.00    +0.000 A 
ATOM      5  C   UNL     1       3.739   7.086  17.524  0.00  0.00    +0.000 A 
ATOM      6  C   UNL     1       2.716   7.850  18.098  0.00  0.00    +0.000 A 
ENDROOT
BRANCH   4   7
ATOM      7  S   UNL     1       5.606   5.049  17.568  0.00  0.00    +0.000 S 
ATOM      8  O   UNL     1       6.381   5.922  16.721  0.00  0.00    +0.000 OA
ATOM      9  O   UNL     1       6.214   4.278  18.629  0.00  0.00    +0.000 OA
BRANCH   7  10
ATOM     10  N   UNL     1       4.812   3.977  16.538  0.00  0.00    +0.000 NA
ATOM     11  H   UNL     1       5.460   3.248  16.236  0.00  0.00    +0.000 HD
BRANCH  10  12
ATOM     12  C   UNL     1       3.447   3.527  16.872  0.00  0.00    +0.000 C 
BRANCH  12  13
ATOM     13  C   UNL     1       3.442   2.305  17.787  0.00  0.00    +0.000 C 
BRANCH  13  14
ATOM     14  C   UNL     1       2.703   2.557  19.070  0.00  0.00    +0.000 A 
ATOM     15  C   UNL     1       3.356   2.368  20.296  0.00  0.00    +0.000 A 
ATOM     16  C   UNL     1       2.679   2.580  21.494  0.00  0.00    +0.000 A 
ATOM     17  C   UNL     1       1.343   2.982  21.472  0.00  0.00    +0.000 A 
ATOM     18  C   UNL     1       0.690   3.176  20.254  0.00  0.00    +0.000 A 
ATOM     19  C   UNL     1       1.366   2.967  19.055  0.00  0.00    +0.000 A 
ENDBRANCH  13  14
ENDBRANCH  12  13
ENDBRANCH  10  12
ENDBRANCH   7  10
ENDBRANCH   4   7
BRANCH   1  20
ATOM     20  O   UNL     1       1.295   8.388  19.903  0.00  0.00    +0.000 OA
BRANCH  20  21
ATOM     21  C   UNL     1       1.085   8.220  21.318  0.00  0.00    +0.000 C 
BRANCH  21  22
ATOM     22  C   UNL     1       0.347   9.436  21.882  0.00  0.00    +0.000 C 
BRANCH  22  23
ATOM     23  O   UNL     1      -0.703   9.003  22.761  0.00  0.00    +0.000 OA
ATOM     24  H   UNL     1      -1.281   9.775  22.898  0.00  0.00    +0.000 HD
ENDBRANCH  22  23
BRANCH  22  25
ATOM     25  C   UNL     1      -0.238  10.293  20.745  0.00  0.00    +0.000 C 
BRANCH  25  27
ATOM     26  C   UNL     1       0.576  11.677  18.953  0.00  0.00    +0.000 C 
ATOM     27  N   UNL     1       0.705  11.350  20.364  0.00  0.00    +0.000 NA
ATOM     28  H   UNL     1       0.513  12.172  20.942  0.00  0.00    +0.000 HD
ENDBRANCH  25  27
ENDBRANCH  22  25
ENDBRANCH  21  22
ENDBRANCH  20  21
ENDBRANCH   1  20
TORSDOF 11
ENDMDL
MODEL 6
REMARK VINA RESULT:      -6.7      1.083      1.512
REMARK  Name = 
REMARK  12 active torsions:
REMARK  status: ('A' for Active; 'I' for Inactive)
REMARK    1  A    between atoms: C_1  and  N_2
REMARK    2  A    between atoms: N_2  and  C_3
REMARK    3  A    between atoms: C_3  and  C_4
REMARK    4  A    between atoms: C_4  and  O_5
REMARK    5  A    between atoms: C_4  and  C_6
REMARK    6  A    between atoms: C_6  and  O_7
REMARK    7  A    between atoms: O_7  and  C_8
REMARK    8  A    between atoms: C_11  and  S_12
REMARK    9  A    between atoms: S_12  and  N_15
REMARK   10  A    between atoms: N_15  and  C_16
REMARK   11  A    between atoms: C_16  and  C_17
REMARK   12  A    between atoms: C_17  and  C_18
REMARK                            x       y       z     vdW  Elec       q    Type
REMARK                         _______ _______ _______ _____ _____    ______ ____
ROOT
ATOM      1  C   UNL     1       2.300   7.707  18.957  0.00  0.00    +0.000 A 
ATOM      2  C   UNL     1       2.640   6.633  19.779  0.00  0.00    +0.000 A 
ATOM      3  C   UNL     1       3.694   5.795  19.433  0.00  0.00    +0.000 A 
ATOM      4  C   UNL     1       4.357   5.978  18.218  0.00  0.00    +0.000 A 
ATOM      5  C   UNL     1       3.987   7.014  17.355  0.00  0.00    +0.000 A 
ATOM      6  C   UNL     1       2.952   7.878  17.731  0.00  0.00    +0.000 A 
ENDROOT
BRANCH   4   7
ATOM      7  S   UNL     1       5.689   4.882  17.792  0.00  0.00    +0.000 S 
ATOM      8  O   UNL     1       6.643   5.648  17.028  0.00  0.00    +0.000 OA
ATOM      9  O   UNL     1       6.077   4.137  18.969  0.00  0.00    +0.000 OA
BRANCH   7  10
ATOM     10  N   UNL     1       4.975   3.806  16.709  0.00  0.00    +0.000 NA
ATOM     11  H   UNL     1       5.622   3.042  16.507  0.00  0.00    +0.000 HD
BRANCH  10  12
ATOM     12  C   UNL     1       3.563   3.421  16.895  0.00  0.00    +0.000 C 
BRANCH  12  13
ATOM     13  C   UNL     1       3.405   2.192  17.785  0.00  0.00    +0.000 C 
BRANCH  13  14
ATOM     14  C   UNL     1       2.694   2.508  19.070  0.00  0.00    +0.000 A 
ATOM     15  C   UNL     1       1.356   2.927  19.039  0.00  0.00    +0.000 A 
ATOM     16  C   UNL     1       0.688   3.241  20.220  0.00  0.00    +0.000 A 
ATOM     17  C   UNL     1       1.357   3.137  21.440  0.00  0.00    +0.000 A 
ATOM     18  C   UNL     1       2.686   2.717  21.477  0.00  0.00    +0.000 A 
ATOM     19  C   UNL     1       3.355   2.400  20.297  0.00  0.00    +0.000 A 
ENDBRANCH  13  14
ENDBRANCH  12  13
ENDBRANCH  10  12
ENDBRANCH   7  10
ENDBRANCH   4   7
BRANCH   1  20
ATOM     20  O   UNL     1       1.349   8.638  19.287  0.00  0.00    +0.000 OA
BRANCH  20  21
ATOM     21  C   UNL     1       1.122   9.625  18.261  0.00  0.00    +0.000 C 
BRANCH  21  22
ATOM     22  C   UNL     1       0.304  10.787  18.830  0.00  0.00    +0.000 C 
BRANCH  22  23
ATOM     23  O   UNL     1      -0.420  11.436  17.774  0.00  0.00    +0.000 OA
ATOM     24  H   UNL     1       0.106  12.216  17.521  0.00  0.00    +0.000 HD
ENDBRANCH  22  23
BRANCH  22  25
ATOM     25  C   UNL     1       1.220  11.799  19.542  0.00  0.00    +0.000 C 
BRANCH  25  27
ATOM     26  C   UNL     1       2.634  13.240  18.233  0.00  0.00    +0.000 C 
ATOM     27  N   UNL     1       1.298  13.046  18.774  0.00  0.00    +0.000 NA
ATOM     28  H   UNL     1       0.608  12.999  18.019  0.00  0.00    +0.000 HD
ENDBRANCH  25  27
ENDBRANCH  22  25
ENDBRANCH  21  22
ENDBRANCH  20  21
ENDBRANCH   1  20
TORSDOF 11
ENDMDL
MODEL 7
REMARK VINA RESULT:      -6.7      1.355      2.128
REMARK  Name = 
REMARK  12 active torsions:
REMARK  status: ('A' for Active; 'I' for Inactive)
REMARK    1  A    between atoms: C_1  and  N_2
REMARK    2  A    between atoms: N_2  and  C_3
REMARK    3  A    between atoms: C_3  and  C_4
REMARK    4  A    between atoms: C_4  and  O_5
REMARK    5  A    between atoms: C_4  and  C_6
REMARK    6  A    between atoms: C_6  and  O_7
REMARK    7  A    between atoms: O_7  and  C_8
REMARK    8  A    between atoms: C_11  and  S_12
REMARK    9  A    between atoms: S_12  and  N_15
REMARK   10  A    between atoms: N_15  and  C_16
REMARK   11  A    between atoms: C_16  and  C_17
REMARK   12  A    between atoms: C_17  and  C_18
REMARK                            x       y       z     vdW  Elec       q    Type
REMARK                         _______ _______ _______ _____ _____    ______ ____
ROOT
ATOM      1  C   UNL     1       2.395   7.666  18.764  0.00  0.00    +0.000 A 
ATOM      2  C   UNL     1       3.184   7.868  17.631  0.00  0.00    +0.000 A 
ATOM      3  C   UNL     1       4.228   6.997  17.343  0.00  0.00    +0.000 A 
ATOM      4  C   UNL     1       4.541   5.968  18.235  0.00  0.00    +0.000 A 
ATOM      5  C   UNL     1       3.797   5.792  19.405  0.00  0.00    +0.000 A 
ATOM      6  C   UNL     1       2.721   6.648  19.666  0.00  0.00    +0.000 A 
ENDROOT
BRANCH   4   7
ATOM      7  S   UNL     1       5.892   4.880  17.851  0.00  0.00    +0.000 S 
ATOM      8  O   UNL     1       6.314   5.184  16.506  0.00  0.00    +0.000 OA
ATOM      9  O   UNL     1       6.820   4.877  18.959  0.00  0.00    +0.000 OA
BRANCH   7  10
ATOM     10  N   UNL     1       5.161   3.363  17.782  0.00  0.00    +0.000 NA
ATOM     11  H   UNL     1       5.196   2.923  18.703  0.00  0.00    +0.000 HD
BRANCH  10  12
ATOM     12  C   UNL     1       3.896   3.201  17.039  0.00  0.00    +0.000 C 
BRANCH  12  13
ATOM     13  C   UNL     1       3.004   2.116  17.635  0.00  0.00    +0.000 C 
BRANCH  13  14
ATOM     14  C   UNL     1       2.444   2.510  18.972  0.00  0.00    +0.000 A 
ATOM     15  C   UNL     1       1.181   3.114  19.046  0.00  0.00    +0.000 A 
ATOM     16  C   UNL     1       0.657   3.501  20.277  0.00  0.00    +0.000 A 
ATOM     17  C   UNL     1       1.395   3.286  21.441  0.00  0.00    +0.000 A 
ATOM     18  C   UNL     1       2.650   2.682  21.374  0.00  0.00    +0.000 A 
ATOM     19  C   UNL     1       3.176   2.292  20.144  0.00  0.00    +0.000 A 
ENDBRANCH  13  14
ENDBRANCH  12  13
ENDBRANCH  10  12
ENDBRANCH   7  10
ENDBRANCH   4   7
BRANCH   1  20
ATOM     20  O   UNL     1       1.283   8.415  19.052  0.00  0.00    +0.000 OA
BRANCH  20  21
ATOM     21  C   UNL     1       1.139   9.585  18.223  0.00  0.00    +0.000 C 
BRANCH  21  22
ATOM     22  C   UNL     1       0.550  10.734  19.044  0.00  0.00    +0.000 C 
BRANCH  22  23
ATOM     23  O   UNL     1       1.550  11.741  19.259  0.00  0.00    +0.000 OA
ATOM     24  H   UNL     1       2.405  11.330  19.035  0.00  0.00    +0.000 HD
ENDBRANCH  22  23
BRANCH  22  25
ATOM     25  C   UNL     1       0.020  10.221  20.396  0.00  0.00    +0.000 C 
BRANCH  25  27
ATOM     26  C   UNL     1       0.932   9.261  22.404  0.00  0.00    +0.000 C 
ATOM     27  N   UNL     1       1.056  10.331  21.427  0.00  0.00    +0.000 NA
ATOM     28  H   UNL     1       1.969  10.294  20.967  0.00  0.00    +0.000 HD
ENDBRANCH  25  27
ENDBRANCH  22  25
ENDBRANCH  21  22
ENDBRANCH  20  21
ENDBRANCH   1  20
TORSDOF 11
ENDMDL
MODEL 8
REMARK VINA RESULT:      -6.7      0.951      1.664
REMARK  Name = 
REMARK  12 active torsions:
REMARK  status: ('A' for Active; 'I' for Inactive)
REMARK    1  A    between atoms: C_1  and  N_2
REMARK    2  A    between atoms: N_2  and  C_3
REMARK    3  A    between atoms: C_3  and  C_4
REMARK    4  A    between atoms: C_4  and  O_5
REMARK    5  A    between atoms: C_4  and  C_6
REMARK    6  A    between atoms: C_6  and  O_7
REMARK    7  A    between atoms: O_7  and  C_8
REMARK    8  A    between atoms: C_11  and  S_12
REMARK    9  A    between atoms: S_12  and  N_15
REMARK   10  A    between atoms: N_15  and  C_16
REMARK   11  A    between atoms: C_16  and  C_17
REMARK   12  A    between atoms: C_17  and  C_18
REMARK                            x       y       z     vdW  Elec       q    Type
REMARK                         _______ _______ _______ _____ _____    ______ ____
ROOT
ATOM      1  C   UNL     1       2.421   7.678  18.691  0.00  0.00    +0.000 A 
ATOM      2  C   UNL     1       3.219   7.835  17.558  0.00  0.00    +0.000 A 
ATOM      3  C   UNL     1       4.253   6.942  17.303  0.00  0.00    +0.000 A 
ATOM      4  C   UNL     1       4.547   5.937  18.226  0.00  0.00    +0.000 A 
ATOM      5  C   UNL     1       3.794   5.805  19.397  0.00  0.00    +0.000 A 
ATOM      6  C   UNL     1       2.728   6.683  19.625  0.00  0.00    +0.000 A 
ENDROOT
BRANCH   4   7
ATOM      7  S   UNL     1       5.885   4.819  17.883  0.00  0.00    +0.000 S 
ATOM      8  O   UNL     1       6.555   5.308  16.703  0.00  0.00    +0.000 OA
ATOM      9  O   UNL     1       6.600   4.554  19.111  0.00  0.00    +0.000 OA
BRANCH   7  10
ATOM     10  N   UNL     1       5.099   3.401  17.423  0.00  0.00    +0.000 NA
ATOM     11  H   UNL     1       5.295   2.664  18.103  0.00  0.00    +0.000 HD
BRANCH  10  12
ATOM     12  C   UNL     1       3.709   3.470  16.932  0.00  0.00    +0.000 C 
BRANCH  12  13
ATOM     13  C   UNL     1       2.834   2.356  17.498  0.00  0.00    +0.000 C 
BRANCH  13  14
ATOM     14  C   UNL     1       2.375   2.649  18.898  0.00  0.00    +0.000 A 
ATOM     15  C   UNL     1       1.135   3.271  19.107  0.00  0.00    +0.000 A 
ATOM     16  C   UNL     1       0.704   3.565  20.398  0.00  0.00    +0.000 A 
ATOM     17  C   UNL     1       1.512   3.241  21.488  0.00  0.00    +0.000 A 
ATOM     18  C   UNL     1       2.744   2.619  21.286  0.00  0.00    +0.000 A 
ATOM     19  C   UNL     1       3.176   2.321  19.995  0.00  0.00    +0.000 A 
ENDBRANCH  13  14
ENDBRANCH  12  13
ENDBRANCH  10  12
ENDBRANCH   7  10
ENDBRANCH   4   7
BRANCH   1  20
ATOM     20  O   UNL     1       1.318   8.450  18.951  0.00  0.00    +0.000 OA
BRANCH  20  21
ATOM     21  C   UNL     1       1.180   8.819  20.337  0.00  0.00    +0.000 C 
BRANCH  21  22
ATOM     22  C   UNL     1       0.801  10.298  20.445  0.00  0.00    +0.000 C 
BRANCH  22  23
ATOM     23  O   UNL     1       1.009  10.757  21.789  0.00  0.00    +0.000 OA
ATOM     24  H   UNL     1       0.312  10.343  22.331  0.00  0.00    +0.000 HD
ENDBRANCH  22  23
BRANCH  22  25
ATOM     25  C   UNL     1      -0.668  10.514  20.035  0.00  0.00    +0.000 C 
BRANCH  25  27
ATOM     26  C   UNL     1      -1.520  11.669  18.105  0.00  0.00    +0.000 C 
ATOM     27  N   UNL     1      -0.799  10.497  18.575  0.00  0.00    +0.000 NA
ATOM     28  H   UNL     1       0.140  10.467  18.170  0.00  0.00    +0.000 HD
ENDBRANCH  25  27
ENDBRANCH  22  25
ENDBRANCH  21  22
ENDBRANCH  20  21
ENDBRANCH   1  20
TORSDOF 11
ENDMDL
MODEL 9
REMARK VINA RESULT:      -6.6      1.342      1.804
REMARK  Name = 
REMARK  12 active torsions:
REMARK  status: ('A' for Active; 'I' for Inactive)
REMARK    1  A    between atoms: C_1  and  N_2
REMARK    2  A    between atoms: N_2  and  C_3
REMARK    3  A    between atoms: C_3  and  C_4
REMARK    4  A    between atoms: C_4  and  O_5
REMARK    5  A    between atoms: C_4  and  C_6
REMARK    6  A    between atoms: C_6  and  O_7
REMARK    7  A    between atoms: O_7  and  C_8
REMARK    8  A    between atoms: C_11  and  S_12
REMARK    9  A    between atoms: S_12  and  N_15
REMARK   10  A    between atoms: N_15  and  C_16
REMARK   11  A    between atoms: C_16  and  C_17
REMARK   12  A    between atoms: C_17  and  C_18
REMARK                            x       y       z     vdW  Elec       q    Type
REMARK                         _______ _______ _______ _____ _____    ______ ____
ROOT
ATOM      1  C   UNL     1       2.638   7.376  19.048  0.00  0.00    +0.000 A 
ATOM      2  C   UNL     1       3.184   7.627  17.789  0.00  0.00    +0.000 A 
ATOM      3  C   UNL     1       4.173   6.794  17.278  0.00  0.00    +0.000 A 
ATOM      4  C   UNL     1       4.681   5.756  18.061  0.00  0.00    +0.000 A 
ATOM      5  C   UNL     1       4.186   5.531  19.350  0.00  0.00    +0.000 A 
ATOM      6  C   UNL     1       3.161   6.349  19.840  0.00  0.00    +0.000 A 
ENDROOT
BRANCH   4   7
ATOM      7  S   UNL     1       5.957   4.718  17.390  0.00  0.00    +0.000 S 
ATOM      8  O   UNL     1       6.299   5.249  16.093  0.00  0.00    +0.000 OA
ATOM      9  O   UNL     1       6.958   4.489  18.408  0.00  0.00    +0.000 OA
BRANCH   7  10
ATOM     10  N   UNL     1       5.162   3.259  17.106  0.00  0.00    +0.000 NA
ATOM     11  H   UNL     1       5.497   2.552  17.761  0.00  0.00    +0.000 HD
BRANCH  10  12
ATOM     12  C   UNL     1       3.707   3.264  16.854  0.00  0.00    +0.000 C 
BRANCH  12  13
ATOM     13  C   UNL     1       2.987   2.126  17.572  0.00  0.00    +0.000 C 
BRANCH  13  14
ATOM     14  C   UNL     1       2.453   2.546  18.912  0.00  0.00    +0.000 A 
ATOM     15  C   UNL     1       3.192   2.270  20.071  0.00  0.00    +0.000 A 
ATOM     16  C   UNL     1       2.702   2.637  21.322  0.00  0.00    +0.000 A 
ATOM     17  C   UNL     1       1.469   3.282  21.420  0.00  0.00    +0.000 A 
ATOM     18  C   UNL     1       0.732   3.563  20.270  0.00  0.00    +0.000 A 
ATOM     19  C   UNL     1       1.221   3.199  19.017  0.00  0.00    +0.000 A 
ENDBRANCH  13  14
ENDBRANCH  12  13
ENDBRANCH  10  12
ENDBRANCH   7  10
ENDBRANCH   4   7
BRANCH   1  20
ATOM     20  O   UNL     1       1.587   8.084  19.570  0.00  0.00    +0.000 OA
BRANCH  20  21
ATOM     21  C   UNL     1       1.443   7.945  20.997  0.00  0.00    +0.000 C 
BRANCH  21  22
ATOM     22  C   UNL     1       0.606   9.101  21.550  0.00  0.00    +0.000 C 
BRANCH  22  23
ATOM     23  O   UNL     1      -0.713   8.634  21.874  0.00  0.00    +0.000 OA
ATOM     24  H   UNL     1      -0.799   8.709  22.842  0.00  0.00    +0.000 HD
ENDBRANCH  22  23
BRANCH  22  25
ATOM     25  C   UNL     1       0.522  10.249  20.528  0.00  0.00    +0.000 C 
BRANCH  25  27
ATOM     26  C   UNL     1      -0.809  11.234  18.782  0.00  0.00    +0.000 C 
ATOM     27  N   UNL     1      -0.706  10.139  19.734  0.00  0.00    +0.000 NA
ATOM     28  H   UNL     1      -0.691   9.240  19.246  0.00  0.00    +0.000 HD
ENDBRANCH  25  27
ENDBRANCH  22  25
ENDBRANCH  21  22
ENDBRANCH  20  21
ENDBRANCH   1  20
TORSDOF 11
ENDMDL
