MODEL 1
REMARK VINA RESULT:      -7.3      0.000      0.000
REMARK  Name = 
REMARK  5 active torsions:
REMARK  status: ('A' for Active; 'I' for Inactive)
REMARK    1  A    between atoms: C_1  and  C_2
REMARK    2  A    between atoms: C_2  and  C_3
REMARK    3  A    between atoms: C_2  and  C_10
REMARK    4  A    between atoms: C_10  and  N_11
REMARK    5  A    between atoms: C_10  and  C_12
REMARK                            x       y       z     vdW  Elec       q    Type
REMARK                         _______ _______ _______ _____ _____    ______ ____
ROOT
ATOM      1  C   UNL     1       4.860   5.430  16.759  0.00  0.00    +0.000 C 
ENDROOT
BRANCH   1   2
ATOM      2  C   UNL     1       4.405   4.983  18.191  0.00  0.00    +0.000 C 
ATOM      3  O   UNL     1       5.055   5.262  19.202  0.00  0.00    +0.000 OA
ATOM      4  N   UNL     1       3.188   4.327  18.304  0.00  0.00    +0.000 N 
ATOM      5  C   UNL     1       2.633   4.070  19.631  0.00  0.00    +0.000 C 
ATOM      6  C   UNL     1       1.470   3.118  19.404  0.00  0.00    +0.000 C 
ATOM      7  C   UNL     1       1.932   2.329  18.192  0.00  0.00    +0.000 C 
ATOM      8  F   UNL     1       2.843   1.401  18.595  0.00  0.00    +0.000 F 
ATOM      9  C   UNL     1       2.633   3.380  17.335  0.00  0.00    +0.000 C 
ENDBRANCH   1   2
BRANCH   1  10
ATOM     10  N   UNL     1       5.308   6.843  16.841  0.00  0.00    +0.000 NA
ATOM     11  H   UNL     1       4.540   7.403  17.218  0.00  0.00    +0.000 HD
ATOM     12  H   UNL     1       5.453   7.199  15.901  0.00  0.00    +0.000 HD
ENDBRANCH   1  10
BRANCH   1  14
ATOM     13  C   UNL     1       7.324   4.596  16.898  0.00  0.00    +0.000 C 
ATOM     14  C   UNL     1       5.958   4.457  16.189  0.00  0.00    +0.000 C 
BRANCH  14  15
ATOM     15  C   UNL     1       6.270   4.509  14.686  0.00  0.00    +0.000 A 
ATOM     16  C   UNL     1       7.343   5.243  14.157  0.00  0.00    +0.000 A 
ATOM     17  C   UNL     1       7.761   5.065  12.835  0.00  0.00    +0.000 A 
ATOM     18  C   UNL     1       7.107   4.154  12.010  0.00  0.00    +0.000 A 
ATOM     19  C   UNL     1       6.014   3.449  12.501  0.00  0.00    +0.000 A 
ATOM     20 CL   UNL     1       5.216   2.306  11.492  0.00  0.00    +0.000 Cl
ATOM     21  C   UNL     1       5.590   3.627  13.822  0.00  0.00    +0.000 A 
ENDBRANCH  14  15
ENDBRANCH   1  14
TORSDOF 4
ENDMDL
MODEL 2
REMARK VINA RESULT:      -7.2      4.431      7.015
REMARK  Name = 
REMARK  5 active torsions:
REMARK  status: ('A' for Active; 'I' for Inactive)
REMARK    1  A    between atoms: C_1  and  C_2
REMARK    2  A    between atoms: C_2  and  C_3
REMARK    3  A    between atoms: C_2  and  C_10
REMARK    4  A    between atoms: C_10  and  N_11
REMARK    5  A    between atoms: C_10  and  C_12
REMARK                            x       y       z     vdW  Elec       q    Type
REMARK                         _______ _______ _______ _____ _____    ______ ____
ROOT
ATOM      1  C   UNL     1       2.533   4.872  17.723  0.00  0.00    +0.000 C 
ENDROOT
BRANCH   1   2
ATOM      2  C   UNL     1       3.782   3.990  17.377  0.00  0.00    +0.000 C 
ATOM      3  O   UNL     1       3.884   2.821  17.759  0.00  0.00    +0.000 OA
ATOM      4  N   UNL     1       4.748   4.539  16.546  0.00  0.00    +0.000 N 
ATOM      5  C   UNL     1       5.823   3.691  16.039  0.00  0.00    +0.000 C 
ATOM      6  C   UNL     1       6.826   4.643  15.411  0.00  0.00    +0.000 C 
ATOM      7  C   UNL     1       6.666   5.888  16.265  0.00  0.00    +0.000 C 
ATOM      8  F   UNL     1       7.320   5.696  17.444  0.00  0.00    +0.000 F 
ATOM      9  C   UNL     1       5.164   5.943  16.528  0.00  0.00    +0.000 C 
ENDBRANCH   1   2
BRANCH   1  10
ATOM     10  N   UNL     1       1.332   4.000  17.687  0.00  0.00    +0.000 NA
ATOM     11  H   UNL     1       1.642   3.026  17.683  0.00  0.00    +0.000 HD
ATOM     12  H   UNL     1       0.858   4.127  16.798  0.00  0.00    +0.000 HD
ENDBRANCH   1  10
BRANCH   1  14
ATOM     13  C   UNL     1       2.016   4.909  20.276  0.00  0.00    +0.000 C 
ATOM     14  C   UNL     1       2.730   5.611  19.099  0.00  0.00    +0.000 C 
BRANCH  14  15
ATOM     15  C   UNL     1       2.325   7.089  19.198  0.00  0.00    +0.000 A 
ATOM     16  C   UNL     1       2.277   7.941  18.084  0.00  0.00    +0.000 A 
ATOM     17  C   UNL     1       1.658   9.193  18.155  0.00  0.00    +0.000 A 
ATOM     18  C   UNL     1       1.083   9.624  19.348  0.00  0.00    +0.000 A 
ATOM     19  C   UNL     1       1.160   8.814  20.475  0.00  0.00    +0.000 A 
ATOM     20 CL   UNL     1       0.433   9.332  21.946  0.00  0.00    +0.000 Cl
ATOM     21  C   UNL     1       1.780   7.562  20.409  0.00  0.00    +0.000 A 
ENDBRANCH  14  15
ENDBRANCH   1  14
TORSDOF 4
ENDMDL
MODEL 3
REMARK VINA RESULT:      -7.2      4.151      6.741
REMARK  Name = 
REMARK  5 active torsions:
REMARK  status: ('A' for Active; 'I' for Inactive)
REMARK    1  A    between atoms: C_1  and  C_2
REMARK    2  A    between atoms: C_2  and  C_3
REMARK    3  A    between atoms: C_2  and  C_10
REMARK    4  A    between atoms: C_10  and  N_11
REMARK    5  A    between atoms: C_10  and  C_12
REMARK                            x       y       z     vdW  Elec       q    Type
REMARK                         _______ _______ _______ _____ _____    ______ ____
ROOT
ATOM      1  C   UNL     1       3.531   4.287  19.168  0.00  0.00    +0.000 C 
ENDROOT
BRANCH   1   2
ATOM      2  C   UNL     1       4.956   4.823  18.794  0.00  0.00    +0.000 C 
ATOM      3  O   UNL     1       5.633   5.486  19.583  0.00  0.00    +0.000 OA
ATOM      4  N   UNL     1       5.480   4.453  17.564  0.00  0.00    +0.000 N 
ATOM      5  C   UNL     1       6.874   4.762  17.258  0.00  0.00    +0.000 C 
ATOM      6  C   UNL     1       7.034   4.479  15.774  0.00  0.00    +0.000 C 
ATOM      7  C   UNL     1       5.652   4.804  15.234  0.00  0.00    +0.000 C 
ATOM      8  F   UNL     1       5.526   6.157  15.143  0.00  0.00    +0.000 F 
ATOM      9  C   UNL     1       4.718   4.286  16.325  0.00  0.00    +0.000 C 
ENDBRANCH   1   2
BRANCH   1  10
ATOM     10  N   UNL     1       3.690   2.935  19.760  0.00  0.00    +0.000 NA
ATOM     11  H   UNL     1       3.867   2.271  19.003  0.00  0.00    +0.000 HD
ATOM     12  H   UNL     1       2.803   2.643  20.161  0.00  0.00    +0.000 HD
ENDBRANCH   1  10
BRANCH   1  14
ATOM     13  C   UNL     1       1.418   4.770  20.614  0.00  0.00    +0.000 C 
ATOM     14  C   UNL     1       2.780   5.299  20.111  0.00  0.00    +0.000 C 
BRANCH  14  15
ATOM     15  C   UNL     1       2.500   6.716  19.586  0.00  0.00    +0.000 A 
ATOM     16  C   UNL     1       2.691   7.081  18.245  0.00  0.00    +0.000 A 
ATOM     17  C   UNL     1       2.184   8.283  17.742  0.00  0.00    +0.000 A 
ATOM     18  C   UNL     1       1.483   9.151  18.574  0.00  0.00    +0.000 A 
ATOM     19  C   UNL     1       1.321   8.828  19.916  0.00  0.00    +0.000 A 
ATOM     20 CL   UNL     1       0.437   9.887  20.946  0.00  0.00    +0.000 Cl
ATOM     21  C   UNL     1       1.829   7.628  20.425  0.00  0.00    +0.000 A 
ENDBRANCH  14  15
ENDBRANCH   1  14
TORSDOF 4
ENDMDL
MODEL 4
REMARK VINA RESULT:      -7.1      3.510      6.399
REMARK  Name = 
REMARK  5 active torsions:
REMARK  status: ('A' for Active; 'I' for Inactive)
REMARK    1  A    between atoms: C_1  and  C_2
REMARK    2  A    between atoms: C_2  and  C_3
REMARK    3  A    between atoms: C_2  and  C_10
REMARK    4  A    between atoms: C_10  and  N_11
REMARK    5  A    between atoms: C_10  and  C_12
REMARK                            x       y       z     vdW  Elec       q    Type
REMARK                         _______ _______ _______ _____ _____    ______ ____
ROOT
ATOM      1  C   UNL     1       3.555   2.927  18.105  0.00  0.00    +0.000 C 
ENDROOT
BRANCH   1   2
ATOM      2  C   UNL     1       4.880   3.617  18.581  0.00  0.00    +0.000 C 
ATOM      3  O   UNL     1       5.324   3.464  19.721  0.00  0.00    +0.000 OA
ATOM      4  N   UNL     1       5.597   4.348  17.645  0.00  0.00    +0.000 N 
ATOM      5  C   UNL     1       6.929   4.839  17.987  0.00  0.00    +0.000 C 
ATOM      6  C   UNL     1       7.301   5.805  16.875  0.00  0.00    +0.000 C 
ATOM      7  C   UNL     1       5.950   6.369  16.473  0.00  0.00    +0.000 C 
ATOM      8  F   UNL     1       5.572   7.298  17.395  0.00  0.00    +0.000 F 
ATOM      9  C   UNL     1       5.022   5.160  16.570  0.00  0.00    +0.000 C 
ENDBRANCH   1   2
BRANCH   1  10
ATOM     10  N   UNL     1       3.821   1.473  17.962  0.00  0.00    +0.000 NA
ATOM     11  H   UNL     1       3.042   0.961  18.381  0.00  0.00    +0.000 HD
ATOM     12  H   UNL     1       4.629   1.228  18.527  0.00  0.00    +0.000 HD
ENDBRANCH   1  10
BRANCH   1  14
ATOM     13  C   UNL     1       1.027   2.619  18.655  0.00  0.00    +0.000 C 
ATOM     14  C   UNL     1       2.368   3.253  19.087  0.00  0.00    +0.000 C 
BRANCH  14  15
ATOM     15  C   UNL     1       2.048   4.727  19.380  0.00  0.00    +0.000 A 
ATOM     16  C   UNL     1       1.728   5.195  20.663  0.00  0.00    +0.000 A 
ATOM     17  C   UNL     1       1.701   6.563  20.949  0.00  0.00    +0.000 A 
ATOM     18  C   UNL     1       1.985   7.494  19.954  0.00  0.00    +0.000 A 
ATOM     19  C   UNL     1       2.261   7.052  18.665  0.00  0.00    +0.000 A 
ATOM     20 CL   UNL     1       2.633   8.196  17.435  0.00  0.00    +0.000 Cl
ATOM     21  C   UNL     1       2.286   5.684  18.373  0.00  0.00    +0.000 A 
ENDBRANCH  14  15
ENDBRANCH   1  14
TORSDOF 4
ENDMDL
MODEL 5
REMARK VINA RESULT:      -7.1      3.354      6.152
REMARK  Name = 
REMARK  5 active torsions:
REMARK  status: ('A' for Active; 'I' for Inactive)
REMARK    1  A    between atoms: C_1  and  C_2
REMARK    2  A    between atoms: C_2  and  C_3
REMARK    3  A    between atoms: C_2  and  C_10
REMARK    4  A    between atoms: C_10  and  N_11
REMARK    5  A    between atoms: C_10  and  C_12
REMARK                            x       y       z     vdW  Elec       q    Type
REMARK                         _______ _______ _______ _____ _____    ______ ____
ROOT
ATOM      1  C   UNL     1       6.564   4.336  17.219  0.00  0.00    +0.000 C 
ENDROOT
BRANCH   1   2
ATOM      2  C   UNL     1       6.937   5.110  15.908  0.00  0.00    +0.000 C 
ATOM      3  O   UNL     1       7.296   6.291  15.925  0.00  0.00    +0.000 OA
ATOM      4  N   UNL     1       6.936   4.398  14.717  0.00  0.00    +0.000 N 
ATOM      5  C   UNL     1       7.466   5.023  13.509  0.00  0.00    +0.000 C 
ATOM      6  C   UNL     1       7.067   4.101  12.369  0.00  0.00    +0.000 C 
ATOM      7  C   UNL     1       5.756   3.521  12.869  0.00  0.00    +0.000 C 
ATOM      8  F   UNL     1       4.774   4.449  12.696  0.00  0.00    +0.000 F 
ATOM      9  C   UNL     1       6.004   3.326  14.362  0.00  0.00    +0.000 C 
ENDBRANCH   1   2
BRANCH   1  10
ATOM     10  N   UNL     1       7.771   4.287  18.082  0.00  0.00    +0.000 NA
ATOM     11  H   UNL     1       7.904   5.209  18.502  0.00  0.00    +0.000 HD
ATOM     12  H   UNL     1       8.590   4.146  17.497  0.00  0.00    +0.000 HD
ENDBRANCH   1  10
BRANCH   1  14
ATOM     13  C   UNL     1       5.613   5.475  19.360  0.00  0.00    +0.000 C 
ATOM     14  C   UNL     1       5.318   4.992  17.923  0.00  0.00    +0.000 C 
BRANCH  14  15
ATOM     15  C   UNL     1       4.023   4.172  18.025  0.00  0.00    +0.000 A 
ATOM     16  C   UNL     1       3.861   2.925  17.402  0.00  0.00    +0.000 A 
ATOM     17  C   UNL     1       2.787   2.089  17.724  0.00  0.00    +0.000 A 
ATOM     18  C   UNL     1       1.847   2.487  18.670  0.00  0.00    +0.000 A 
ATOM     19  C   UNL     1       1.965   3.737  19.266  0.00  0.00    +0.000 A 
ATOM     20 CL   UNL     1       0.818   4.226  20.452  0.00  0.00    +0.000 Cl
ATOM     21  C   UNL     1       3.035   4.579  18.946  0.00  0.00    +0.000 A 
ENDBRANCH  14  15
ENDBRANCH   1  14
TORSDOF 4
ENDMDL
MODEL 6
REMARK VINA RESULT:      -6.9      3.189      6.188
REMARK  Name = 
REMARK  5 active torsions:
REMARK  status: ('A' for Active; 'I' for Inactive)
REMARK    1  A    between atoms: C_1  and  C_2
REMARK    2  A    between atoms: C_2  and  C_3
REMARK    3  A    between atoms: C_2  and  C_10
REMARK    4  A    between atoms: C_10  and  N_11
REMARK    5  A    between atoms: C_10  and  C_12
REMARK                            x       y       z     vdW  Elec       q    Type
REMARK                         _______ _______ _______ _____ _____    ______ ____
ROOT
ATOM      1  C   UNL     1       4.436   2.815  18.863  0.00  0.00    +0.000 C 
ENDROOT
BRANCH   1   2
ATOM      2  C   UNL     1       5.303   4.120  18.811  0.00  0.00    +0.000 C 
ATOM      3  O   UNL     1       5.530   4.796  19.818  0.00  0.00    +0.000 OA
ATOM      4  N   UNL     1       5.889   4.456  17.599  0.00  0.00    +0.000 N 
ATOM      5  C   UNL     1       6.859   5.546  17.550  0.00  0.00    +0.000 C 
ATOM      6  C   UNL     1       7.083   5.822  16.073  0.00  0.00    +0.000 C 
ATOM      7  C   UNL     1       5.732   5.474  15.473  0.00  0.00    +0.000 C 
ATOM      8  F   UNL     1       4.869   6.499  15.715  0.00  0.00    +0.000 F 
ATOM      9  C   UNL     1       5.295   4.251  16.276  0.00  0.00    +0.000 C 
ENDBRANCH   1   2
BRANCH   1  10
ATOM     10  N   UNL     1       4.793   2.077  20.101  0.00  0.00    +0.000 NA
ATOM     11  H   UNL     1       3.981   2.083  20.723  0.00  0.00    +0.000 HD
ATOM     12  H   UNL     1       5.508   2.597  20.601  0.00  0.00    +0.000 HD
ENDBRANCH   1  10
BRANCH   1  14
ATOM     13  C   UNL     1       2.323   2.917  17.343  0.00  0.00    +0.000 C 
ATOM     14  C   UNL     1       2.903   3.154  18.755  0.00  0.00    +0.000 C 
BRANCH  14  15
ATOM     15  C   UNL     1       2.437   4.562  19.157  0.00  0.00    +0.000 A 
ATOM     16  C   UNL     1       2.053   4.892  20.465  0.00  0.00    +0.000 A 
ATOM     17  C   UNL     1       1.890   6.223  20.859  0.00  0.00    +0.000 A 
ATOM     18  C   UNL     1       2.099   7.255  19.947  0.00  0.00    +0.000 A 
ATOM     19  C   UNL     1       2.437   6.947  18.634  0.00  0.00    +0.000 A 
ATOM     20 CL   UNL     1       2.718   8.218  17.508  0.00  0.00    +0.000 Cl
ATOM     21  C   UNL     1       2.598   5.617  18.235  0.00  0.00    +0.000 A 
ENDBRANCH  14  15
ENDBRANCH   1  14
TORSDOF 4
ENDMDL
MODEL 7
REMARK VINA RESULT:      -6.9      3.361      4.430
REMARK  Name = 
REMARK  5 active torsions:
REMARK  status: ('A' for Active; 'I' for Inactive)
REMARK    1  A    between atoms: C_1  and  C_2
REMARK    2  A    between atoms: C_2  and  C_3
REMARK    3  A    between atoms: C_2  and  C_10
REMARK    4  A    between atoms: C_10  and  N_11
REMARK    5  A    between atoms: C_10  and  C_12
REMARK                            x       y       z     vdW  Elec       q    Type
REMARK                         _______ _______ _______ _____ _____    ______ ____
ROOT
ATOM      1  C   UNL     1       4.453   3.613  17.688  0.00  0.00    +0.000 C 
ENDROOT
BRANCH   1   2
ATOM      2  C   UNL     1       3.039   4.044  18.210  0.00  0.00    +0.000 C 
ATOM      3  O   UNL     1       2.386   4.937  17.666  0.00  0.00    +0.000 OA
ATOM      4  N   UNL     1       2.496   3.326  19.266  0.00  0.00    +0.000 N 
ATOM      5  C   UNL     1       1.108   3.562  19.653  0.00  0.00    +0.000 C 
ATOM      6  C   UNL     1       0.930   2.838  20.977  0.00  0.00    +0.000 C 
ATOM      7  C   UNL     1       2.315   2.944  21.590  0.00  0.00    +0.000 C 
ATOM      8  F   UNL     1       2.475   4.198  22.095  0.00  0.00    +0.000 F 
ATOM      9  C   UNL     1       3.244   2.763  20.392  0.00  0.00    +0.000 C 
ENDBRANCH   1   2
BRANCH   1  10
ATOM     10  N   UNL     1       4.317   2.285  17.039  0.00  0.00    +0.000 NA
ATOM     11  H   UNL     1       4.689   1.576  17.675  0.00  0.00    +0.000 HD
ATOM     12  H   UNL     1       4.925   2.250  16.226  0.00  0.00    +0.000 HD
ENDBRANCH   1  10
BRANCH   1  14
ATOM     13  C   UNL     1       5.495   4.162  15.365  0.00  0.00    +0.000 C 
ATOM     14  C   UNL     1       5.062   4.713  16.742  0.00  0.00    +0.000 C 
BRANCH  14  15
ATOM     15  C   UNL     1       6.260   5.531  17.249  0.00  0.00    +0.000 A 
ATOM     16  C   UNL     1       6.563   6.813  16.769  0.00  0.00    +0.000 A 
ATOM     17  C   UNL     1       7.487   7.634  17.425  0.00  0.00    +0.000 A 
ATOM     18  C   UNL     1       8.134   7.183  18.572  0.00  0.00    +0.000 A 
ATOM     19  C   UNL     1       7.880   5.898  19.038  0.00  0.00    +0.000 A 
ATOM     20 CL   UNL     1       8.661   5.343  20.468  0.00  0.00    +0.000 Cl
ATOM     21  C   UNL     1       6.960   5.073  18.384  0.00  0.00    +0.000 A 
ENDBRANCH  14  15
ENDBRANCH   1  14
TORSDOF 4
ENDMDL
MODEL 8
REMARK VINA RESULT:      -6.8      1.639      2.031
REMARK  Name = 
REMARK  5 active torsions:
REMARK  status: ('A' for Active; 'I' for Inactive)
REMARK    1  A    between atoms: C_1  and  C_2
REMARK    2  A    between atoms: C_2  and  C_3
REMARK    3  A    between atoms: C_2  and  C_10
REMARK    4  A    between atoms: C_10  and  N_11
REMARK    5  A    between atoms: C_10  and  C_12
REMARK                            x       y       z     vdW  Elec       q    Type
REMARK                         _______ _______ _______ _____ _____    ______ ____
ROOT
ATOM      1  C   UNL     1       4.605   4.924  17.593  0.00  0.00    +0.000 C 
ENDROOT
BRANCH   1   2
ATOM      2  C   UNL     1       4.315   4.056  18.866  0.00  0.00    +0.000 C 
ATOM      3  O   UNL     1       5.220   3.520  19.512  0.00  0.00    +0.000 OA
ATOM      4  N   UNL     1       3.002   3.974  19.305  0.00  0.00    +0.000 N 
ATOM      5  C   UNL     1       2.714   3.345  20.590  0.00  0.00    +0.000 C 
ATOM      6  C   UNL     1       1.204   3.179  20.630  0.00  0.00    +0.000 C 
ATOM      7  C   UNL     1       0.865   2.977  19.164  0.00  0.00    +0.000 C 
ATOM      8  F   UNL     1       1.175   1.697  18.816  0.00  0.00    +0.000 F 
ATOM      9  C   UNL     1       1.815   3.934  18.448  0.00  0.00    +0.000 C 
ENDBRANCH   1   2
BRANCH   1  10
ATOM     10  N   UNL     1       4.258   6.332  17.909  0.00  0.00    +0.000 NA
ATOM     11  H   UNL     1       3.454   6.601  17.339  0.00  0.00    +0.000 HD
ATOM     12  H   UNL     1       5.013   6.936  17.598  0.00  0.00    +0.000 HD
ENDBRANCH   1  10
BRANCH   1  14
ATOM     13  C   UNL     1       6.992   5.953  17.428  0.00  0.00    +0.000 C 
ATOM     14  C   UNL     1       6.092   4.737  17.112  0.00  0.00    +0.000 C 
BRANCH  14  15
ATOM     15  C   UNL     1       6.346   4.415  15.632  0.00  0.00    +0.000 A 
ATOM     16  C   UNL     1       5.463   3.644  14.860  0.00  0.00    +0.000 A 
ATOM     17  C   UNL     1       5.579   3.588  13.467  0.00  0.00    +0.000 A 
ATOM     18  C   UNL     1       6.589   4.294  12.818  0.00  0.00    +0.000 A 
ATOM     19  C   UNL     1       7.500   5.027  13.569  0.00  0.00    +0.000 A 
ATOM     20 CL   UNL     1       8.737   5.919  12.771  0.00  0.00    +0.000 Cl
ATOM     21  C   UNL     1       7.390   5.084  14.962  0.00  0.00    +0.000 A 
ENDBRANCH  14  15
ENDBRANCH   1  14
TORSDOF 4
ENDMDL
MODEL 9
REMARK VINA RESULT:      -6.8      3.442      4.621
REMARK  Name = 
REMARK  5 active torsions:
REMARK  status: ('A' for Active; 'I' for Inactive)
REMARK    1  A    between atoms: C_1  and  C_2
REMARK    2  A    between atoms: C_2  and  C_3
REMARK    3  A    between atoms: C_2  and  C_10
REMARK    4  A    between atoms: C_10  and  N_11
REMARK    5  A    between atoms: C_10  and  C_12
REMARK                            x       y       z     vdW  Elec       q    Type
REMARK                         _______ _______ _______ _____ _____    ______ ____
ROOT
ATOM      1  C   UNL     1       4.548   3.743  17.362  0.00  0.00    +0.000 C 
ENDROOT
BRANCH   1   2
ATOM      2  C   UNL     1       3.013   3.538  17.607  0.00  0.00    +0.000 C 
ATOM      3  O   UNL     1       2.208   3.448  16.677  0.00  0.00    +0.000 OA
ATOM      4  N   UNL     1       2.586   3.372  18.917  0.00  0.00    +0.000 N 
ATOM      5  C   UNL     1       1.203   2.982  19.176  0.00  0.00    +0.000 C 
ATOM      6  C   UNL     1       1.007   3.159  20.672  0.00  0.00    +0.000 C 
ATOM      7  C   UNL     1       1.940   4.316  20.984  0.00  0.00    +0.000 C 
ATOM      8  F   UNL     1       1.345   5.476  20.590  0.00  0.00    +0.000 F 
ATOM      9  C   UNL     1       3.148   4.044  20.091  0.00  0.00    +0.000 C 
ENDBRANCH   1   2
BRANCH   1  10
ATOM     10  N   UNL     1       4.967   2.818  16.280  0.00  0.00    +0.000 NA
ATOM     11  H   UNL     1       4.465   3.073  15.427  0.00  0.00    +0.000 HD
ATOM     12  H   UNL     1       4.645   1.881  16.503  0.00  0.00    +0.000 HD
ENDBRANCH   1  10
BRANCH   1  14
ATOM     13  C   UNL     1       5.198   5.517  15.569  0.00  0.00    +0.000 C 
ATOM     14  C   UNL     1       4.870   5.253  17.055  0.00  0.00    +0.000 C 
BRANCH  14  15
ATOM     15  C   UNL     1       5.995   5.935  17.849  0.00  0.00    +0.000 A 
ATOM     16  C   UNL     1       6.743   5.270  18.832  0.00  0.00    +0.000 A 
ATOM     17  C   UNL     1       7.920   5.824  19.346  0.00  0.00    +0.000 A 
ATOM     18  C   UNL     1       8.367   7.062  18.893  0.00  0.00    +0.000 A 
ATOM     19  C   UNL     1       7.616   7.758  17.953  0.00  0.00    +0.000 A 
ATOM     20 CL   UNL     1       8.176   9.279  17.374  0.00  0.00    +0.000 Cl
ATOM     21  C   UNL     1       6.437   7.209  17.438  0.00  0.00    +0.000 A 
ENDBRANCH  14  15
ENDBRANCH   1  14
TORSDOF 4
ENDMDL
