MODEL 1
REMARK VINA RESULT:      -9.0      0.000      0.000
REMARK  Name = 
REMARK  7 active torsions:
REMARK  status: ('A' for Active; 'I' for Inactive)
REMARK    1  A    between atoms: C_1  and  C_2
REMARK    2  A    between atoms: C_2  and  C_3
REMARK    3  A    between atoms: C_6  and  O_7
REMARK    4  A    between atoms: O_7  and  C_8
REMARK    5  A    between atoms: N_19  and  N_20
REMARK    6  A    between atoms: N_20  and  C_21
REMARK    7  A    between atoms: C_24  and  C_25
REMARK                            x       y       z     vdW  Elec       q    Type
REMARK                         _______ _______ _______ _____ _____    ______ ____
ROOT
ATOM      1  C   UNL     1       1.104   3.795  19.819  0.00  0.00    +0.000 C 
ATOM      2  C   UNL     1       2.322   4.536  19.283  0.00  0.00    +0.000 C 
ATOM      3  O   UNL     1       3.479   4.270  20.093  0.00  0.00    +0.000 OA
ATOM      4  C   UNL     1       4.538   4.038  19.264  0.00  0.00    +0.000 C 
ATOM      5  O   UNL     1       5.657   3.760  19.672  0.00  0.00    +0.000 OA
ATOM      6  N   UNL     1       4.134   4.017  17.961  0.00  0.00    +0.000 N 
ATOM      7  C   UNL     1       2.768   3.938  17.964  0.00  0.00    +0.000 C 
ATOM      8  O   UNL     1       2.024   3.426  17.137  0.00  0.00    +0.000 OA
ENDROOT
BRANCH   2   9
ATOM      9  C   UNL     1       2.067   6.038  19.262  0.00  0.00    +0.000 A 
ATOM     10  C   UNL     1       2.292   6.776  18.083  0.00  0.00    +0.000 A 
ATOM     11  C   UNL     1       2.084   8.156  18.047  0.00  0.00    +0.000 A 
ATOM     12  C   UNL     1       1.653   8.824  19.189  0.00  0.00    +0.000 A 
ATOM     13  C   UNL     1       1.493   8.118  20.383  0.00  0.00    +0.000 A 
ATOM     14  C   UNL     1       1.676   6.732  20.416  0.00  0.00    +0.000 A 
BRANCH  12  15
ATOM     15  O   UNL     1       1.480  10.183  19.065  0.00  0.00    +0.000 OA
BRANCH  15  16
ATOM     16  C   UNL     1       0.208  10.709  19.101  0.00  0.00    +0.000 A 
ATOM     17  C   UNL     1      -0.660  10.274  18.098  0.00  0.00    +0.000 A 
ATOM     18  C   UNL     1      -1.970  10.755  18.050  0.00  0.00    +0.000 A 
ATOM     19  C   UNL     1      -2.412  11.670  19.005  0.00  0.00    +0.000 A 
ATOM     20  C   UNL     1      -1.557  12.081  20.026  0.00  0.00    +0.000 A 
ATOM     21  C   UNL     1      -0.256  11.579  20.090  0.00  0.00    +0.000 A 
ENDBRANCH  15  16
ENDBRANCH  12  15
ENDBRANCH   2   9
BRANCH   6  22
ATOM     22  N   UNL     1       4.927   3.235  17.076  0.00  0.00    +0.000 N 
ATOM     23  H   UNL     1       5.644   2.737  17.617  0.00  0.00    +0.000 HD
BRANCH  22  24
ATOM     24  C   UNL     1       5.506   3.880  15.955  0.00  0.00    +0.000 A 
ATOM     25  C   UNL     1       6.678   4.627  16.163  0.00  0.00    +0.000 A 
ATOM     26  C   UNL     1       7.437   5.116  15.093  0.00  0.00    +0.000 A 
ATOM     27  C   UNL     1       7.059   4.844  13.773  0.00  0.00    +0.000 A 
ATOM     28  C   UNL     1       5.885   4.113  13.555  0.00  0.00    +0.000 A 
ATOM     29  C   UNL     1       5.122   3.641  14.631  0.00  0.00    +0.000 A 
BRANCH  27  30
ATOM     30  C   UNL     1       7.908   5.278  12.604  0.00  0.00    +0.000 C 
ATOM     31  F   UNL     1       7.558   6.494  12.098  0.00  0.00    +0.000 F 
ATOM     32  F   UNL     1       9.227   5.378  12.929  0.00  0.00    +0.000 F 
ATOM     33  F   UNL     1       7.844   4.407  11.560  0.00  0.00    +0.000 F 
ENDBRANCH  27  30
ENDBRANCH  22  24
ENDBRANCH   6  22
TORSDOF 6
ENDMDL
MODEL 2
REMARK VINA RESULT:      -8.9      0.263      1.406
REMARK  Name = 
REMARK  7 active torsions:
REMARK  status: ('A' for Active; 'I' for Inactive)
REMARK    1  A    between atoms: C_1  and  C_2
REMARK    2  A    between atoms: C_2  and  C_3
REMARK    3  A    between atoms: C_6  and  O_7
REMARK    4  A    between atoms: O_7  and  C_8
REMARK    5  A    between atoms: N_19  and  N_20
REMARK    6  A    between atoms: N_20  and  C_21
REMARK    7  A    between atoms: C_24  and  C_25
REMARK                            x       y       z     vdW  Elec       q    Type
REMARK                         _______ _______ _______ _____ _____    ______ ____
ROOT
ATOM      1  C   UNL     1       1.315   3.924  20.133  0.00  0.00    +0.000 C 
ATOM      2  C   UNL     1       2.453   4.664  19.444  0.00  0.00    +0.000 C 
ATOM      3  O   UNL     1       3.692   4.457  20.142  0.00  0.00    +0.000 OA
ATOM      4  C   UNL     1       4.667   4.210  19.219  0.00  0.00    +0.000 C 
ATOM      5  O   UNL     1       5.829   3.972  19.522  0.00  0.00    +0.000 OA
ATOM      6  N   UNL     1       4.134   4.124  17.966  0.00  0.00    +0.000 N 
ATOM      7  C   UNL     1       2.778   4.017  18.112  0.00  0.00    +0.000 C 
ATOM      8  O   UNL     1       1.965   3.455  17.389  0.00  0.00    +0.000 OA
ENDROOT
BRANCH   2   9
ATOM      9  C   UNL     1       2.161   6.158  19.387  0.00  0.00    +0.000 A 
ATOM     10  C   UNL     1       1.562   6.803  20.488  0.00  0.00    +0.000 A 
ATOM     11  C   UNL     1       1.268   8.166  20.452  0.00  0.00    +0.000 A 
ATOM     12  C   UNL     1       1.559   8.910  19.312  0.00  0.00    +0.000 A 
ATOM     13  C   UNL     1       2.087   8.271  18.187  0.00  0.00    +0.000 A 
ATOM     14  C   UNL     1       2.407   6.911  18.230  0.00  0.00    +0.000 A 
BRANCH  12  15
ATOM     15  O   UNL     1       1.230  10.244  19.360  0.00  0.00    +0.000 OA
BRANCH  15  16
ATOM     16  C   UNL     1      -0.051  10.637  19.039  0.00  0.00    +0.000 A 
ATOM     17  C   UNL     1      -0.597  11.646  19.834  0.00  0.00    +0.000 A 
ATOM     18  C   UNL     1      -1.891  12.107  19.588  0.00  0.00    +0.000 A 
ATOM     19  C   UNL     1      -2.639  11.560  18.546  0.00  0.00    +0.000 A 
ATOM     20  C   UNL     1      -2.084  10.575  17.730  0.00  0.00    +0.000 A 
ATOM     21  C   UNL     1      -0.780  10.134  17.959  0.00  0.00    +0.000 A 
ENDBRANCH  15  16
ENDBRANCH  12  15
ENDBRANCH   2   9
BRANCH   6  22
ATOM     22  N   UNL     1       4.851   3.319  17.038  0.00  0.00    +0.000 N 
ATOM     23  H   UNL     1       5.531   2.741  17.548  0.00  0.00    +0.000 HD
BRANCH  22  24
ATOM     24  C   UNL     1       5.470   3.964  15.938  0.00  0.00    +0.000 A 
ATOM     25  C   UNL     1       6.745   4.520  16.138  0.00  0.00    +0.000 A 
ATOM     26  C   UNL     1       7.520   4.981  15.067  0.00  0.00    +0.000 A 
ATOM     27  C   UNL     1       7.053   4.870  13.753  0.00  0.00    +0.000 A 
ATOM     28  C   UNL     1       5.778   4.330  13.545  0.00  0.00    +0.000 A 
ATOM     29  C   UNL     1       5.000   3.886  14.623  0.00  0.00    +0.000 A 
BRANCH  27  30
ATOM     30  C   UNL     1       7.905   5.272  12.576  0.00  0.00    +0.000 C 
ATOM     31  F   UNL     1       7.915   4.353  11.570  0.00  0.00    +0.000 F 
ATOM     32  F   UNL     1       7.490   6.439  12.008  0.00  0.00    +0.000 F 
ATOM     33  F   UNL     1       9.210   5.466  12.917  0.00  0.00    +0.000 F 
ENDBRANCH  27  30
ENDBRANCH  22  24
ENDBRANCH   6  22
TORSDOF 6
ENDMDL
MODEL 3
REMARK VINA RESULT:      -8.8      0.655      1.248
REMARK  Name = 
REMARK  7 active torsions:
REMARK  status: ('A' for Active; 'I' for Inactive)
REMARK    1  A    between atoms: C_1  and  C_2
REMARK    2  A    between atoms: C_2  and  C_3
REMARK    3  A    between atoms: C_6  and  O_7
REMARK    4  A    between atoms: O_7  and  C_8
REMARK    5  A    between atoms: N_19  and  N_20
REMARK    6  A    between atoms: N_20  and  C_21
REMARK    7  A    between atoms: C_24  and  C_25
REMARK                            x       y       z     vdW  Elec       q    Type
REMARK                         _______ _______ _______ _____ _____    ______ ____
ROOT
ATOM      1  C   UNL     1       1.807   4.414  20.634  0.00  0.00    +0.000 C 
ATOM      2  C   UNL     1       2.779   5.124  19.702  0.00  0.00    +0.000 C 
ATOM      3  O   UNL     1       4.094   5.178  20.282  0.00  0.00    +0.000 OA
ATOM      4  C   UNL     1       5.002   4.863  19.313  0.00  0.00    +0.000 C 
ATOM      5  O   UNL     1       6.207   4.805  19.520  0.00  0.00    +0.000 OA
ATOM      6  N   UNL     1       4.371   4.489  18.163  0.00  0.00    +0.000 N 
ATOM      7  C   UNL     1       3.056   4.275  18.477  0.00  0.00    +0.000 C 
ATOM      8  O   UNL     1       2.254   3.507  17.959  0.00  0.00    +0.000 OA
ENDROOT
BRANCH   2   9
ATOM      9  C   UNL     1       2.306   6.543  19.416  0.00  0.00    +0.000 A 
ATOM     10  C   UNL     1       2.512   7.113  18.144  0.00  0.00    +0.000 A 
ATOM     11  C   UNL     1       2.104   8.418  17.865  0.00  0.00    +0.000 A 
ATOM     12  C   UNL     1       1.489   9.180  18.854  0.00  0.00    +0.000 A 
ATOM     13  C   UNL     1       1.341   8.654  20.139  0.00  0.00    +0.000 A 
ATOM     14  C   UNL     1       1.725   7.338  20.414  0.00  0.00    +0.000 A 
BRANCH  12  15
ATOM     15  O   UNL     1       1.125  10.457  18.495  0.00  0.00    +0.000 OA
BRANCH  15  16
ATOM     16  C   UNL     1      -0.208  10.803  18.484  0.00  0.00    +0.000 A 
ATOM     17  C   UNL     1      -0.559  11.904  19.267  0.00  0.00    +0.000 A 
ATOM     18  C   UNL     1      -1.887  12.328  19.323  0.00  0.00    +0.000 A 
ATOM     19  C   UNL     1      -2.866  11.651  18.595  0.00  0.00    +0.000 A 
ATOM     20  C   UNL     1      -2.513  10.572  17.787  0.00  0.00    +0.000 A 
ATOM     21  C   UNL     1      -1.180  10.165  17.710  0.00  0.00    +0.000 A 
ENDBRANCH  15  16
ENDBRANCH  12  15
ENDBRANCH   2   9
BRANCH   6  22
ATOM     22  N   UNL     1       5.092   3.602  17.317  0.00  0.00    +0.000 N 
ATOM     23  H   UNL     1       5.834   3.146  17.861  0.00  0.00    +0.000 HD
BRANCH  22  24
ATOM     24  C   UNL     1       5.607   4.115  16.099  0.00  0.00    +0.000 A 
ATOM     25  C   UNL     1       6.601   5.105  16.176  0.00  0.00    +0.000 A 
ATOM     26  C   UNL     1       7.318   5.513  15.045  0.00  0.00    +0.000 A 
ATOM     27  C   UNL     1       7.082   4.916  13.801  0.00  0.00    +0.000 A 
ATOM     28  C   UNL     1       6.083   3.939  13.713  0.00  0.00    +0.000 A 
ATOM     29  C   UNL     1       5.357   3.548  14.846  0.00  0.00    +0.000 A 
BRANCH  27  30
ATOM     30  C   UNL     1       7.903   5.271  12.588  0.00  0.00    +0.000 C 
ATOM     31  F   UNL     1       7.731   4.413  11.543  0.00  0.00    +0.000 F 
ATOM     32  F   UNL     1       7.607   6.509  12.103  0.00  0.00    +0.000 F 
ATOM     33  F   UNL     1       9.240   5.281  12.846  0.00  0.00    +0.000 F 
ENDBRANCH  27  30
ENDBRANCH  22  24
ENDBRANCH   6  22
TORSDOF 6
ENDMDL
MODEL 4
REMARK VINA RESULT:      -8.6      4.560      6.916
REMARK  Name = 
REMARK  7 active torsions:
REMARK  status: ('A' for Active; 'I' for Inactive)
REMARK    1  A    between atoms: C_1  and  C_2
REMARK    2  A    between atoms: C_2  and  C_3
REMARK    3  A    between atoms: C_6  and  O_7
REMARK    4  A    between atoms: O_7  and  C_8
REMARK    5  A    between atoms: N_19  and  N_20
REMARK    6  A    between atoms: N_20  and  C_21
REMARK    7  A    between atoms: C_24  and  C_25
REMARK                            x       y       z     vdW  Elec       q    Type
REMARK                         _______ _______ _______ _____ _____    ______ ____
ROOT
ATOM      1  C   UNL     1       0.936  12.304  19.913  0.00  0.00    +0.000 C 
ATOM      2  C   UNL     1       0.636  10.962  19.258  0.00  0.00    +0.000 C 
ATOM      3  O   UNL     1       1.512  10.733  18.142  0.00  0.00    +0.000 OA
ATOM      4  C   UNL     1       1.950   9.441  18.201  0.00  0.00    +0.000 C 
ATOM      5  O   UNL     1       2.732   8.963  17.390  0.00  0.00    +0.000 OA
ATOM      6  N   UNL     1       1.516   8.836  19.343  0.00  0.00    +0.000 N 
ATOM      7  C   UNL     1       1.048   9.823  20.168  0.00  0.00    +0.000 C 
ATOM      8  O   UNL     1       1.023   9.859  21.392  0.00  0.00    +0.000 OA
ENDROOT
BRANCH   2   9
ATOM      9  C   UNL     1      -0.807  10.917  18.771  0.00  0.00    +0.000 A 
ATOM     10  C   UNL     1      -1.178  10.023  17.746  0.00  0.00    +0.000 A 
ATOM     11  C   UNL     1      -2.489   9.978  17.271  0.00  0.00    +0.000 A 
ATOM     12  C   UNL     1      -3.452  10.829  17.805  0.00  0.00    +0.000 A 
ATOM     13  C   UNL     1      -3.084  11.769  18.771  0.00  0.00    +0.000 A 
ATOM     14  C   UNL     1      -1.777  11.799  19.267  0.00  0.00    +0.000 A 
BRANCH  12  15
ATOM     15  O   UNL     1      -4.716  10.721  17.274  0.00  0.00    +0.000 OA
BRANCH  15  16
ATOM     16  C   UNL     1      -5.731  11.505  17.777  0.00  0.00    +0.000 A 
ATOM     17  C   UNL     1      -5.975  12.698  17.097  0.00  0.00    +0.000 A 
ATOM     18  C   UNL     1      -6.982  13.560  17.536  0.00  0.00    +0.000 A 
ATOM     19  C   UNL     1      -7.744  13.228  18.655  0.00  0.00    +0.000 A 
ATOM     20  C   UNL     1      -7.524  12.021  19.317  0.00  0.00    +0.000 A 
ATOM     21  C   UNL     1      -6.536  11.147  18.862  0.00  0.00    +0.000 A 
ENDBRANCH  15  16
ENDBRANCH  12  15
ENDBRANCH   2   9
BRANCH   6  22
ATOM     22  N   UNL     1       2.326   7.774  19.833  0.00  0.00    +0.000 N 
ATOM     23  H   UNL     1       3.296   7.925  19.533  0.00  0.00    +0.000 HD
BRANCH  22  24
ATOM     24  C   UNL     1       1.918   6.445  19.557  0.00  0.00    +0.000 A 
ATOM     25  C   UNL     1       2.233   5.913  18.295  0.00  0.00    +0.000 A 
ATOM     26  C   UNL     1       2.067   4.553  18.009  0.00  0.00    +0.000 A 
ATOM     27  C   UNL     1       1.608   3.672  18.995  0.00  0.00    +0.000 A 
ATOM     28  C   UNL     1       1.278   4.195  20.251  0.00  0.00    +0.000 A 
ATOM     29  C   UNL     1       1.431   5.561  20.525  0.00  0.00    +0.000 A 
BRANCH  27  30
ATOM     30  C   UNL     1       1.508   2.189  18.743  0.00  0.00    +0.000 C 
ATOM     31  F   UNL     1       0.245   1.768  18.451  0.00  0.00    +0.000 F 
ATOM     32  F   UNL     1       2.284   1.786  17.698  0.00  0.00    +0.000 F 
ATOM     33  F   UNL     1       1.910   1.449  19.814  0.00  0.00    +0.000 F 
ENDBRANCH  27  30
ENDBRANCH  22  24
ENDBRANCH   6  22
TORSDOF 6
ENDMDL
MODEL 5
REMARK VINA RESULT:      -8.3      1.635      2.268
REMARK  Name = 
REMARK  7 active torsions:
REMARK  status: ('A' for Active; 'I' for Inactive)
REMARK    1  A    between atoms: C_1  and  C_2
REMARK    2  A    between atoms: C_2  and  C_3
REMARK    3  A    between atoms: C_6  and  O_7
REMARK    4  A    between atoms: O_7  and  C_8
REMARK    5  A    between atoms: N_19  and  N_20
REMARK    6  A    between atoms: N_20  and  C_21
REMARK    7  A    between atoms: C_24  and  C_25
REMARK                            x       y       z     vdW  Elec       q    Type
REMARK                         _______ _______ _______ _____ _____    ______ ____
ROOT
ATOM      1  C   UNL     1       2.300   4.523  20.490  0.00  0.00    +0.000 C 
ATOM      2  C   UNL     1       3.276   5.305  19.622  0.00  0.00    +0.000 C 
ATOM      3  O   UNL     1       4.518   5.516  20.315  0.00  0.00    +0.000 OA
ATOM      4  C   UNL     1       5.540   5.271  19.444  0.00  0.00    +0.000 C 
ATOM      5  O   UNL     1       6.720   5.348  19.761  0.00  0.00    +0.000 OA
ATOM      6  N   UNL     1       5.061   4.800  18.258  0.00  0.00    +0.000 N 
ATOM      7  C   UNL     1       3.752   4.456  18.461  0.00  0.00    +0.000 C 
ATOM      8  O   UNL     1       3.085   3.593  17.903  0.00  0.00    +0.000 OA
ENDROOT
BRANCH   2   9
ATOM      9  C   UNL     1       2.687   6.657  19.242  0.00  0.00    +0.000 A 
ATOM     10  C   UNL     1       1.922   7.383  20.177  0.00  0.00    +0.000 A 
ATOM     11  C   UNL     1       1.356   8.614  19.844  0.00  0.00    +0.000 A 
ATOM     12  C   UNL     1       1.539   9.141  18.569  0.00  0.00    +0.000 A 
ATOM     13  C   UNL     1       2.235   8.402  17.609  0.00  0.00    +0.000 A 
ATOM     14  C   UNL     1       2.825   7.180  17.948  0.00  0.00    +0.000 A 
BRANCH  12  15
ATOM     15  O   UNL     1       0.942  10.356  18.325  0.00  0.00    +0.000 OA
BRANCH  15  16
ATOM     16  C   UNL     1       1.510  11.503  18.832  0.00  0.00    +0.000 A 
ATOM     17  C   UNL     1       2.412  12.159  17.994  0.00  0.00    +0.000 A 
ATOM     18  C   UNL     1       3.042  13.329  18.423  0.00  0.00    +0.000 A 
ATOM     19  C   UNL     1       2.769  13.842  19.691  0.00  0.00    +0.000 A 
ATOM     20  C   UNL     1       1.843  13.207  20.517  0.00  0.00    +0.000 A 
ATOM     21  C   UNL     1       1.194  12.053  20.077  0.00  0.00    +0.000 A 
ENDBRANCH  15  16
ENDBRANCH  12  15
ENDBRANCH   2   9
BRANCH   6  22
ATOM     22  N   UNL     1       5.945   3.971  17.514  0.00  0.00    +0.000 N 
ATOM     23  H   UNL     1       6.881   4.012  17.935  0.00  0.00    +0.000 HD
BRANCH  22  24
ATOM     24  C   UNL     1       6.019   4.166  16.112  0.00  0.00    +0.000 A 
ATOM     25  C   UNL     1       7.183   4.759  15.594  0.00  0.00    +0.000 A 
ATOM     26  C   UNL     1       7.440   4.794  14.219  0.00  0.00    +0.000 A 
ATOM     27  C   UNL     1       6.547   4.207  13.315  0.00  0.00    +0.000 A 
ATOM     28  C   UNL     1       5.377   3.626  13.820  0.00  0.00    +0.000 A 
ATOM     29  C   UNL     1       5.119   3.609  15.197  0.00  0.00    +0.000 A 
BRANCH  27  30
ATOM     30  C   UNL     1       6.844   4.149  11.838  0.00  0.00    +0.000 C 
ATOM     31  F   UNL     1       7.512   5.242  11.372  0.00  0.00    +0.000 F 
ATOM     32  F   UNL     1       7.613   3.075  11.504  0.00  0.00    +0.000 F 
ATOM     33  F   UNL     1       5.716   4.051  11.081  0.00  0.00    +0.000 F 
ENDBRANCH  27  30
ENDBRANCH  22  24
ENDBRANCH   6  22
TORSDOF 6
ENDMDL
MODEL 6
REMARK VINA RESULT:      -8.3      4.678      7.047
REMARK  Name = 
REMARK  7 active torsions:
REMARK  status: ('A' for Active; 'I' for Inactive)
REMARK    1  A    between atoms: C_1  and  C_2
REMARK    2  A    between atoms: C_2  and  C_3
REMARK    3  A    between atoms: C_6  and  O_7
REMARK    4  A    between atoms: O_7  and  C_8
REMARK    5  A    between atoms: N_19  and  N_20
REMARK    6  A    between atoms: N_20  and  C_21
REMARK    7  A    between atoms: C_24  and  C_25
REMARK                            x       y       z     vdW  Elec       q    Type
REMARK                         _______ _______ _______ _____ _____    ______ ____
ROOT
ATOM      1  C   UNL     1      -1.017  10.011  17.813  0.00  0.00    +0.000 C 
ATOM      2  C   UNL     1      -0.041  10.217  18.964  0.00  0.00    +0.000 C 
ATOM      3  O   UNL     1      -0.570   9.671  20.184  0.00  0.00    +0.000 OA
ATOM      4  C   UNL     1       0.430   8.990  20.816  0.00  0.00    +0.000 C 
ATOM      5  O   UNL     1       0.269   8.395  21.874  0.00  0.00    +0.000 OA
ATOM      6  N   UNL     1       1.551   8.950  20.040  0.00  0.00    +0.000 N 
ATOM      7  C   UNL     1       1.185   9.345  18.783  0.00  0.00    +0.000 C 
ATOM      8  O   UNL     1       1.664   9.024  17.702  0.00  0.00    +0.000 OA
ENDROOT
BRANCH   2   9
ATOM      9  C   UNL     1       0.240  11.701  19.167  0.00  0.00    +0.000 A 
ATOM     10  C   UNL     1      -0.772  12.549  19.661  0.00  0.00    +0.000 A 
ATOM     11  C   UNL     1      -0.543  13.915  19.837  0.00  0.00    +0.000 A 
ATOM     12  C   UNL     1       0.697  14.459  19.517  0.00  0.00    +0.000 A 
ATOM     13  C   UNL     1       1.686  13.644  18.960  0.00  0.00    +0.000 A 
ATOM     14  C   UNL     1       1.469  12.272  18.807  0.00  0.00    +0.000 A 
BRANCH  12  15
ATOM     15  O   UNL     1       0.832  15.813  19.715  0.00  0.00    +0.000 OA
BRANCH  15  16
ATOM     16  C   UNL     1       0.698  16.670  18.645  0.00  0.00    +0.000 A 
ATOM     17  C   UNL     1       1.873  16.979  17.959  0.00  0.00    +0.000 A 
ATOM     18  C   UNL     1       1.837  17.843  16.863  0.00  0.00    +0.000 A 
ATOM     19  C   UNL     1       0.625  18.398  16.453  0.00  0.00    +0.000 A 
ATOM     20  C   UNL     1      -0.555  18.065  17.117  0.00  0.00    +0.000 A 
ATOM     21  C   UNL     1      -0.523  17.180  18.195  0.00  0.00    +0.000 A 
ENDBRANCH  15  16
ENDBRANCH  12  15
ENDBRANCH   2   9
BRANCH   6  22
ATOM     22  N   UNL     1       2.416   7.841  20.253  0.00  0.00    +0.000 N 
ATOM     23  H   UNL     1       3.337   8.049  19.849  0.00  0.00    +0.000 HD
BRANCH  22  24
ATOM     24  C   UNL     1       1.969   6.560  19.844  0.00  0.00    +0.000 A 
ATOM     25  C   UNL     1       2.317   6.127  18.553  0.00  0.00    +0.000 A 
ATOM     26  C   UNL     1       2.110   4.805  18.141  0.00  0.00    +0.000 A 
ATOM     27  C   UNL     1       1.573   3.863  19.025  0.00  0.00    +0.000 A 
ATOM     28  C   UNL     1       1.209   4.287  20.308  0.00  0.00    +0.000 A 
ATOM     29  C   UNL     1       1.404   5.617  20.708  0.00  0.00    +0.000 A 
BRANCH  27  30
ATOM     30  C   UNL     1       1.425   2.413  18.638  0.00  0.00    +0.000 C 
ATOM     31  F   UNL     1       0.136   2.038  18.405  0.00  0.00    +0.000 F 
ATOM     32  F   UNL     1       2.111   2.106  17.501  0.00  0.00    +0.000 F 
ATOM     33  F   UNL     1       1.893   1.566  19.597  0.00  0.00    +0.000 F 
ENDBRANCH  27  30
ENDBRANCH  22  24
ENDBRANCH   6  22
TORSDOF 6
ENDMDL
MODEL 7
REMARK VINA RESULT:      -8.3      4.650      6.995
REMARK  Name = 
REMARK  7 active torsions:
REMARK  status: ('A' for Active; 'I' for Inactive)
REMARK    1  A    between atoms: C_1  and  C_2
REMARK    2  A    between atoms: C_2  and  C_3
REMARK    3  A    between atoms: C_6  and  O_7
REMARK    4  A    between atoms: O_7  and  C_8
REMARK    5  A    between atoms: N_19  and  N_20
REMARK    6  A    between atoms: N_20  and  C_21
REMARK    7  A    between atoms: C_24  and  C_25
REMARK                            x       y       z     vdW  Elec       q    Type
REMARK                         _______ _______ _______ _____ _____    ______ ____
ROOT
ATOM      1  C   UNL     1      -0.932   9.996  17.688  0.00  0.00    +0.000 C 
ATOM      2  C   UNL     1      -0.035  10.221  18.898  0.00  0.00    +0.000 C 
ATOM      3  O   UNL     1      -0.647   9.697  20.089  0.00  0.00    +0.000 OA
ATOM      4  C   UNL     1       0.305   9.026  20.799  0.00  0.00    +0.000 C 
ATOM      5  O   UNL     1       0.071   8.450  21.854  0.00  0.00    +0.000 OA
ATOM      6  N   UNL     1       1.476   8.969  20.102  0.00  0.00    +0.000 N 
ATOM      7  C   UNL     1       1.197   9.343  18.816  0.00  0.00    +0.000 C 
ATOM      8  O   UNL     1       1.747   9.001  17.776  0.00  0.00    +0.000 OA
ENDROOT
BRANCH   2   9
ATOM      9  C   UNL     1       0.236  11.707  19.094  0.00  0.00    +0.000 A 
ATOM     10  C   UNL     1       1.381  12.297  18.520  0.00  0.00    +0.000 A 
ATOM     11  C   UNL     1       1.660  13.652  18.702  0.00  0.00    +0.000 A 
ATOM     12  C   UNL     1       0.805  14.441  19.465  0.00  0.00    +0.000 A 
ATOM     13  C   UNL     1      -0.295  13.856  20.098  0.00  0.00    +0.000 A 
ATOM     14  C   UNL     1      -0.591  12.505  19.896  0.00  0.00    +0.000 A 
BRANCH  12  15
ATOM     15  O   UNL     1       1.160  15.763  19.598  0.00  0.00    +0.000 OA
BRANCH  15  16
ATOM     16  C   UNL     1       0.803  16.661  18.616  0.00  0.00    +0.000 A 
ATOM     17  C   UNL     1       1.849  17.172  17.847  0.00  0.00    +0.000 A 
ATOM     18  C   UNL     1       1.586  18.092  16.830  0.00  0.00    +0.000 A 
ATOM     19  C   UNL     1       0.275  18.499  16.582  0.00  0.00    +0.000 A 
ATOM     20  C   UNL     1      -0.775  17.965  17.327  0.00  0.00    +0.000 A 
ATOM     21  C   UNL     1      -0.514  17.026  18.325  0.00  0.00    +0.000 A 
ENDBRANCH  15  16
ENDBRANCH  12  15
ENDBRANCH   2   9
BRANCH   6  22
ATOM     22  N   UNL     1       2.321   7.862  20.393  0.00  0.00    +0.000 N 
ATOM     23  H   UNL     1       3.280   8.083  20.097  0.00  0.00    +0.000 HD
BRANCH  22  24
ATOM     24  C   UNL     1       1.933   6.585  19.915  0.00  0.00    +0.000 A 
ATOM     25  C   UNL     1       2.397   6.192  18.648  0.00  0.00    +0.000 A 
ATOM     26  C   UNL     1       2.249   4.878  18.188  0.00  0.00    +0.000 A 
ATOM     27  C   UNL     1       1.655   3.905  18.999  0.00  0.00    +0.000 A 
ATOM     28  C   UNL     1       1.177   4.290  20.257  0.00  0.00    +0.000 A 
ATOM     29  C   UNL     1       1.313   5.611  20.705  0.00  0.00    +0.000 A 
BRANCH  27  30
ATOM     30  C   UNL     1       1.567   2.463  18.566  0.00  0.00    +0.000 C 
ATOM     31  F   UNL     1       2.184   1.598  19.419  0.00  0.00    +0.000 F 
ATOM     32  F   UNL     1       0.279   2.028  18.465  0.00  0.00    +0.000 F 
ATOM     33  F   UNL     1       2.130   2.249  17.344  0.00  0.00    +0.000 F 
ENDBRANCH  27  30
ENDBRANCH  22  24
ENDBRANCH   6  22
TORSDOF 6
ENDMDL
MODEL 8
REMARK VINA RESULT:      -8.3      4.669      6.999
REMARK  Name = 
REMARK  7 active torsions:
REMARK  status: ('A' for Active; 'I' for Inactive)
REMARK    1  A    between atoms: C_1  and  C_2
REMARK    2  A    between atoms: C_2  and  C_3
REMARK    3  A    between atoms: C_6  and  O_7
REMARK    4  A    between atoms: O_7  and  C_8
REMARK    5  A    between atoms: N_19  and  N_20
REMARK    6  A    between atoms: N_20  and  C_21
REMARK    7  A    between atoms: C_24  and  C_25
REMARK                            x       y       z     vdW  Elec       q    Type
REMARK                         _______ _______ _______ _____ _____    ______ ____
ROOT
ATOM      1  C   UNL     1      -0.979  10.030  17.708  0.00  0.00    +0.000 C 
ATOM      2  C   UNL     1      -0.060  10.260  18.901  0.00  0.00    +0.000 C 
ATOM      3  O   UNL     1      -0.640   9.724  20.102  0.00  0.00    +0.000 OA
ATOM      4  C   UNL     1       0.336   9.062  20.789  0.00  0.00    +0.000 C 
ATOM      5  O   UNL     1       0.131   8.479  21.846  0.00  0.00    +0.000 OA
ATOM      6  N   UNL     1       1.492   9.023  20.067  0.00  0.00    +0.000 N 
ATOM      7  C   UNL     1       1.182   9.399  18.788  0.00  0.00    +0.000 C 
ATOM      8  O   UNL     1       1.714   9.068  17.736  0.00  0.00    +0.000 OA
ENDROOT
BRANCH   2   9
ATOM      9  C   UNL     1       0.197  11.749  19.097  0.00  0.00    +0.000 A 
ATOM     10  C   UNL     1       1.424  12.313  18.695  0.00  0.00    +0.000 A 
ATOM     11  C   UNL     1       1.689  13.670  18.883  0.00  0.00    +0.000 A 
ATOM     12  C   UNL     1       0.735  14.487  19.481  0.00  0.00    +0.000 A 
ATOM     13  C   UNL     1      -0.457  13.930  19.948  0.00  0.00    +0.000 A 
ATOM     14  C   UNL     1      -0.736  12.576  19.738  0.00  0.00    +0.000 A 
BRANCH  12  15
ATOM     15  O   UNL     1       1.082  15.810  19.632  0.00  0.00    +0.000 OA
BRANCH  15  16
ATOM     16  C   UNL     1       0.934  16.674  18.570  0.00  0.00    +0.000 A 
ATOM     17  C   UNL     1      -0.364  17.129  18.330  0.00  0.00    +0.000 A 
ATOM     18  C   UNL     1      -0.613  18.005  17.272  0.00  0.00    +0.000 A 
ATOM     19  C   UNL     1       0.435  18.427  16.455  0.00  0.00    +0.000 A 
ATOM     20  C   UNL     1       1.736  18.000  16.713  0.00  0.00    +0.000 A 
ATOM     21  C   UNL     1       1.990  17.146  17.787  0.00  0.00    +0.000 A 
ENDBRANCH  15  16
ENDBRANCH  12  15
ENDBRANCH   2   9
BRANCH   6  22
ATOM     22  N   UNL     1       2.357   7.926  20.334  0.00  0.00    +0.000 N 
ATOM     23  H   UNL     1       3.305   8.157  20.012  0.00  0.00    +0.000 HD
BRANCH  22  24
ATOM     24  C   UNL     1       1.970   6.644  19.869  0.00  0.00    +0.000 A 
ATOM     25  C   UNL     1       2.484   6.214  18.633  0.00  0.00    +0.000 A 
ATOM     26  C   UNL     1       2.335   4.893  18.196  0.00  0.00    +0.000 A 
ATOM     27  C   UNL     1       1.690   3.948  19.002  0.00  0.00    +0.000 A 
ATOM     28  C   UNL     1       1.162   4.369  20.228  0.00  0.00    +0.000 A 
ATOM     29  C   UNL     1       1.300   5.698  20.651  0.00  0.00    +0.000 A 
BRANCH  27  30
ATOM     30  C   UNL     1       1.598   2.498  18.597  0.00  0.00    +0.000 C 
ATOM     31  F   UNL     1       2.143   2.237  17.376  0.00  0.00    +0.000 F 
ATOM     32  F   UNL     1       2.238   1.673  19.473  0.00  0.00    +0.000 F 
ATOM     33  F   UNL     1       0.312   2.053  18.535  0.00  0.00    +0.000 F 
ENDBRANCH  27  30
ENDBRANCH  22  24
ENDBRANCH   6  22
TORSDOF 6
ENDMDL
MODEL 9
REMARK VINA RESULT:      -8.2      0.987      1.293
REMARK  Name = 
REMARK  7 active torsions:
REMARK  status: ('A' for Active; 'I' for Inactive)
REMARK    1  A    between atoms: C_1  and  C_2
REMARK    2  A    between atoms: C_2  and  C_3
REMARK    3  A    between atoms: C_6  and  O_7
REMARK    4  A    between atoms: O_7  and  C_8
REMARK    5  A    between atoms: N_19  and  N_20
REMARK    6  A    between atoms: N_20  and  C_21
REMARK    7  A    between atoms: C_24  and  C_25
REMARK                            x       y       z     vdW  Elec       q    Type
REMARK                         _______ _______ _______ _____ _____    ______ ____
ROOT
ATOM      1  C   UNL     1       1.128   3.899  19.848  0.00  0.00    +0.000 C 
ATOM      2  C   UNL     1       2.345   4.623  19.288  0.00  0.00    +0.000 C 
ATOM      3  O   UNL     1       3.507   4.366  20.095  0.00  0.00    +0.000 OA
ATOM      4  C   UNL     1       4.559   4.113  19.263  0.00  0.00    +0.000 C 
ATOM      5  O   UNL     1       5.680   3.836  19.668  0.00  0.00    +0.000 OA
ATOM      6  N   UNL     1       4.145   4.070  17.964  0.00  0.00    +0.000 N 
ATOM      7  C   UNL     1       2.779   3.997  17.978  0.00  0.00    +0.000 C 
ATOM      8  O   UNL     1       2.026   3.474  17.167  0.00  0.00    +0.000 OA
ENDROOT
BRANCH   2   9
ATOM      9  C   UNL     1       2.098   6.125  19.242  0.00  0.00    +0.000 A 
ATOM     10  C   UNL     1       2.204   6.821  18.020  0.00  0.00    +0.000 A 
ATOM     11  C   UNL     1       2.001   8.200  17.957  0.00  0.00    +0.000 A 
ATOM     12  C   UNL     1       1.695   8.911  19.114  0.00  0.00    +0.000 A 
ATOM     13  C   UNL     1       1.656   8.248  20.342  0.00  0.00    +0.000 A 
ATOM     14  C   UNL     1       1.833   6.862  20.405  0.00  0.00    +0.000 A 
BRANCH  12  15
ATOM     15  O   UNL     1       1.517  10.266  18.961  0.00  0.00    +0.000 OA
BRANCH  15  16
ATOM     16  C   UNL     1       0.842  10.974  19.930  0.00  0.00    +0.000 A 
ATOM     17  C   UNL     1       1.285  12.278  20.155  0.00  0.00    +0.000 A 
ATOM     18  C   UNL     1       0.665  13.071  21.121  0.00  0.00    +0.000 A 
ATOM     19  C   UNL     1      -0.400  12.560  21.863  0.00  0.00    +0.000 A 
ATOM     20  C   UNL     1      -0.866  11.270  21.618  0.00  0.00    +0.000 A 
ATOM     21  C   UNL     1      -0.263  10.487  20.633  0.00  0.00    +0.000 A 
ENDBRANCH  15  16
ENDBRANCH  12  15
ENDBRANCH   2   9
BRANCH   6  22
ATOM     22  N   UNL     1       4.928   3.267  17.088  0.00  0.00    +0.000 N 
ATOM     23  H   UNL     1       5.655   2.786  17.631  0.00  0.00    +0.000 HD
BRANCH  22  24
ATOM     24  C   UNL     1       5.486   3.884  15.940  0.00  0.00    +0.000 A 
ATOM     25  C   UNL     1       6.515   4.820  16.136  0.00  0.00    +0.000 A 
ATOM     26  C   UNL     1       7.270   5.316  15.066  0.00  0.00    +0.000 A 
ATOM     27  C   UNL     1       7.036   4.863  13.763  0.00  0.00    +0.000 A 
ATOM     28  C   UNL     1       6.003   3.941  13.556  0.00  0.00    +0.000 A 
ATOM     29  C   UNL     1       5.240   3.462  14.629  0.00  0.00    +0.000 A 
BRANCH  27  30
ATOM     30  C   UNL     1       7.894   5.309  12.606  0.00  0.00    +0.000 C 
ATOM     31  F   UNL     1       7.543   6.527  12.105  0.00  0.00    +0.000 F 
ATOM     32  F   UNL     1       9.210   5.414  12.946  0.00  0.00    +0.000 F 
ATOM     33  F   UNL     1       7.847   4.445  11.555  0.00  0.00    +0.000 F 
ENDBRANCH  27  30
ENDBRANCH  22  24
ENDBRANCH   6  22
TORSDOF 6
ENDMDL
