MODEL 1
REMARK VINA RESULT:      -7.3      0.000      0.000
REMARK  Name = 
REMARK  10 active torsions:
REMARK  status: ('A' for Active; 'I' for Inactive)
REMARK    1  A    between atoms: C_1  and  C_2
REMARK    2  A    between atoms: C_2  and  C_3
REMARK    3  A    between atoms: C_3  and  C_4
REMARK    4  A    between atoms: C_4  and  N_5
REMARK    5  A    between atoms: N_12  and  S_13
REMARK    6  A    between atoms: S_13  and  C_14
REMARK    7  A    between atoms: N_17  and  C_18
REMARK    8  A    between atoms: C_18  and  C_19
REMARK    9  A    between atoms: C_19  and  C_20
REMARK   10  A    between atoms: C_20  and  C_21
REMARK                            x       y       z     vdW  Elec       q    Type
REMARK                         _______ _______ _______ _____ _____    ______ ____
ROOT
ATOM      1  N   UNL     1       6.692   4.916  17.805  0.00  0.00    +0.000 N 
ATOM      2  C   UNL     1       5.690   4.518  18.695  0.00  0.00    +0.000 A 
ATOM      3  O   UNL     1       5.834   4.464  19.910  0.00  0.00    +0.000 OA
ATOM      4  C   UNL     1       4.499   4.110  18.047  0.00  0.00    +0.000 A 
ATOM      5  C   UNL     1       4.356   4.096  16.689  0.00  0.00    +0.000 A 
ATOM      6  N   UNL     1       3.139   3.613  16.308  0.00  0.00    +0.000 NA
ATOM      7  C   UNL     1       2.508   3.370  17.442  0.00  0.00    +0.000 A 
ATOM      8  N   UNL     1       3.305   3.650  18.512  0.00  0.00    +0.000 N 
ATOM      9  N   UNL     1       5.365   4.505  15.847  0.00  0.00    +0.000 N 
ATOM     10  C   UNL     1       6.602   4.860  16.397  0.00  0.00    +0.000 A 
ATOM     11  O   UNL     1       7.583   5.097  15.685  0.00  0.00    +0.000 OA
ENDROOT
BRANCH   8  12
ATOM     12  S   UNL     1       2.820   3.465  20.112  0.00  0.00    +0.000 S 
ATOM     13  C   UNL     1       1.139   2.906  20.155  0.00  0.00    +0.000 C 
ATOM     14  O   UNL     1       3.702   2.446  20.645  0.00  0.00    +0.000 OA
ATOM     15  O   UNL     1       2.836   4.813  20.655  0.00  0.00    +0.000 OA
ENDBRANCH   8  12
BRANCH   1  16
ATOM     16  C   UNL     1       7.989   5.293  18.369  0.00  0.00    +0.000 C 
BRANCH  16  17
ATOM     17  C   UNL     1       8.017   6.745  18.855  0.00  0.00    +0.000 C 
BRANCH  17  19
ATOM     18  C   UNL     1       8.278   9.106  18.031  0.00  0.00    +0.000 C 
ATOM     19  C   UNL     1       7.749   7.718  17.708  0.00  0.00    +0.000 C 
ENDBRANCH  17  19
ENDBRANCH  16  17
ENDBRANCH   1  16
BRANCH   9  20
ATOM     20  C   UNL     1       5.221   4.442  14.391  0.00  0.00    +0.000 C 
BRANCH  20  21
ATOM     21  C   UNL     1       6.016   3.329  13.698  0.00  0.00    +0.000 C 
BRANCH  21  22
ATOM     22  C   UNL     1       5.983   3.395  12.171  0.00  0.00    +0.000 C 
ATOM     23  C   UNL     1       4.557   3.230  11.663  0.00  0.00    +0.000 C 
ENDBRANCH  21  22
ENDBRANCH  20  21
ENDBRANCH   9  20
TORSDOF 7
ENDMDL
MODEL 2
REMARK VINA RESULT:      -6.8      1.157      1.359
REMARK  Name = 
REMARK  10 active torsions:
REMARK  status: ('A' for Active; 'I' for Inactive)
REMARK    1  A    between atoms: C_1  and  C_2
REMARK    2  A    between atoms: C_2  and  C_3
REMARK    3  A    between atoms: C_3  and  C_4
REMARK    4  A    between atoms: C_4  and  N_5
REMARK    5  A    between atoms: N_12  and  S_13
REMARK    6  A    between atoms: S_13  and  C_14
REMARK    7  A    between atoms: N_17  and  C_18
REMARK    8  A    between atoms: C_18  and  C_19
REMARK    9  A    between atoms: C_19  and  C_20
REMARK   10  A    between atoms: C_20  and  C_21
REMARK                            x       y       z     vdW  Elec       q    Type
REMARK                         _______ _______ _______ _____ _____    ______ ____
ROOT
ATOM      1  N   UNL     1       6.412   5.381  17.906  0.00  0.00    +0.000 N 
ATOM      2  C   UNL     1       5.230   5.281  18.643  0.00  0.00    +0.000 A 
ATOM      3  O   UNL     1       5.066   5.783  19.749  0.00  0.00    +0.000 OA
ATOM      4  C   UNL     1       4.249   4.474  18.017  0.00  0.00    +0.000 A 
ATOM      5  C   UNL     1       4.451   3.849  16.820  0.00  0.00    +0.000 A 
ATOM      6  N   UNL     1       3.380   3.089  16.453  0.00  0.00    +0.000 NA
ATOM      7  C   UNL     1       2.491   3.283  17.410  0.00  0.00    +0.000 A 
ATOM      8  N   UNL     1       2.988   4.107  18.376  0.00  0.00    +0.000 N 
ATOM      9  N   UNL     1       5.629   3.982  16.119  0.00  0.00    +0.000 N 
ATOM     10  C   UNL     1       6.680   4.704  16.695  0.00  0.00    +0.000 A 
ATOM     11  O   UNL     1       7.801   4.737  16.180  0.00  0.00    +0.000 OA
ENDROOT
BRANCH   8  12
ATOM     12  S   UNL     1       2.122   4.576  19.740  0.00  0.00    +0.000 S 
ATOM     13  C   UNL     1       2.885   3.889  21.185  0.00  0.00    +0.000 C 
ATOM     14  O   UNL     1       2.225   6.021  19.757  0.00  0.00    +0.000 OA
ATOM     15  O   UNL     1       0.830   3.928  19.591  0.00  0.00    +0.000 OA
ENDBRANCH   8  12
BRANCH   1  16
ATOM     16  C   UNL     1       7.517   6.138  18.496  0.00  0.00    +0.000 C 
BRANCH  16  17
ATOM     17  C   UNL     1       7.712   7.506  17.834  0.00  0.00    +0.000 C 
BRANCH  17  19
ATOM     18  C   UNL     1       8.608   9.834  18.140  0.00  0.00    +0.000 C 
ATOM     19  C   UNL     1       8.579   8.421  18.697  0.00  0.00    +0.000 C 
ENDBRANCH  17  19
ENDBRANCH  16  17
ENDBRANCH   1  16
BRANCH   9  20
ATOM     20  C   UNL     1       5.855   3.270  14.860  0.00  0.00    +0.000 C 
BRANCH  20  21
ATOM     21  C   UNL     1       5.493   4.049  13.590  0.00  0.00    +0.000 C 
BRANCH  21  22
ATOM     22  C   UNL     1       5.712   3.268  12.294  0.00  0.00    +0.000 C 
ATOM     23  C   UNL     1       4.440   3.259  11.457  0.00  0.00    +0.000 C 
ENDBRANCH  21  22
ENDBRANCH  20  21
ENDBRANCH   9  20
TORSDOF 7
ENDMDL
MODEL 3
REMARK VINA RESULT:      -6.7      3.581      6.569
REMARK  Name = 
REMARK  10 active torsions:
REMARK  status: ('A' for Active; 'I' for Inactive)
REMARK    1  A    between atoms: C_1  and  C_2
REMARK    2  A    between atoms: C_2  and  C_3
REMARK    3  A    between atoms: C_3  and  C_4
REMARK    4  A    between atoms: C_4  and  N_5
REMARK    5  A    between atoms: N_12  and  S_13
REMARK    6  A    between atoms: S_13  and  C_14
REMARK    7  A    between atoms: N_17  and  C_18
REMARK    8  A    between atoms: C_18  and  C_19
REMARK    9  A    between atoms: C_19  and  C_20
REMARK   10  A    between atoms: C_20  and  C_21
REMARK                            x       y       z     vdW  Elec       q    Type
REMARK                         _______ _______ _______ _____ _____    ______ ____
ROOT
ATOM      1  N   UNL     1       2.812   5.329  19.976  0.00  0.00    +0.000 N 
ATOM      2  C   UNL     1       3.820   4.836  19.142  0.00  0.00    +0.000 A 
ATOM      3  O   UNL     1       4.369   3.752  19.297  0.00  0.00    +0.000 OA
ATOM      4  C   UNL     1       4.204   5.750  18.131  0.00  0.00    +0.000 A 
ATOM      5  C   UNL     1       3.649   6.991  17.997  0.00  0.00    +0.000 A 
ATOM      6  N   UNL     1       4.222   7.700  16.984  0.00  0.00    +0.000 NA
ATOM      7  C   UNL     1       5.106   6.873  16.457  0.00  0.00    +0.000 A 
ATOM      8  N   UNL     1       5.128   5.690  17.133  0.00  0.00    +0.000 N 
ATOM      9  N   UNL     1       2.650   7.435  18.834  0.00  0.00    +0.000 N 
ATOM     10  C   UNL     1       2.257   6.626  19.906  0.00  0.00    +0.000 A 
ATOM     11  O   UNL     1       1.471   7.030  20.768  0.00  0.00    +0.000 OA
ENDROOT
BRANCH   8  12
ATOM     12  S   UNL     1       6.130   4.401  16.728  0.00  0.00    +0.000 S 
ATOM     13  C   UNL     1       7.047   4.807  15.266  0.00  0.00    +0.000 C 
ATOM     14  O   UNL     1       7.024   4.264  17.860  0.00  0.00    +0.000 OA
ATOM     15  O   UNL     1       5.217   3.327  16.374  0.00  0.00    +0.000 OA
ENDBRANCH   8  12
BRANCH   1  16
ATOM     16  C   UNL     1       2.390   4.490  21.098  0.00  0.00    +0.000 C 
BRANCH  16  17
ATOM     17  C   UNL     1       1.091   3.732  20.807  0.00  0.00    +0.000 C 
BRANCH  17  19
ATOM     18  C   UNL     1       0.966   2.343  18.716  0.00  0.00    +0.000 C 
ATOM     19  C   UNL     1       1.374   2.368  20.179  0.00  0.00    +0.000 C 
ENDBRANCH  17  19
ENDBRANCH  16  17
ENDBRANCH   1  16
BRANCH   9  20
ATOM     20  C   UNL     1       2.095   8.785  18.715  0.00  0.00    +0.000 C 
BRANCH  20  21
ATOM     21  C   UNL     1       0.946   8.937  17.711  0.00  0.00    +0.000 C 
BRANCH  21  22
ATOM     22  C   UNL     1      -0.113   9.960  18.124  0.00  0.00    +0.000 C 
ATOM     23  C   UNL     1      -0.201  10.052  19.642  0.00  0.00    +0.000 C 
ENDBRANCH  21  22
ENDBRANCH  20  21
ENDBRANCH   9  20
TORSDOF 7
ENDMDL
MODEL 4
REMARK VINA RESULT:      -6.7      1.612      4.995
REMARK  Name = 
REMARK  10 active torsions:
REMARK  status: ('A' for Active; 'I' for Inactive)
REMARK    1  A    between atoms: C_1  and  C_2
REMARK    2  A    between atoms: C_2  and  C_3
REMARK    3  A    between atoms: C_3  and  C_4
REMARK    4  A    between atoms: C_4  and  N_5
REMARK    5  A    between atoms: N_12  and  S_13
REMARK    6  A    between atoms: S_13  and  C_14
REMARK    7  A    between atoms: N_17  and  C_18
REMARK    8  A    between atoms: C_18  and  C_19
REMARK    9  A    between atoms: C_19  and  C_20
REMARK   10  A    between atoms: C_20  and  C_21
REMARK                            x       y       z     vdW  Elec       q    Type
REMARK                         _______ _______ _______ _____ _____    ______ ____
ROOT
ATOM      1  N   UNL     1       5.568   4.810  15.636  0.00  0.00    +0.000 N 
ATOM      2  C   UNL     1       4.453   4.293  16.302  0.00  0.00    +0.000 A 
ATOM      3  O   UNL     1       3.507   3.754  15.740  0.00  0.00    +0.000 OA
ATOM      4  C   UNL     1       4.486   4.517  17.700  0.00  0.00    +0.000 A 
ATOM      5  C   UNL     1       5.501   5.182  18.326  0.00  0.00    +0.000 A 
ATOM      6  N   UNL     1       5.277   5.315  19.664  0.00  0.00    +0.000 NA
ATOM      7  C   UNL     1       4.136   4.685  19.874  0.00  0.00    +0.000 A 
ATOM      8  N   UNL     1       3.626   4.200  18.707  0.00  0.00    +0.000 N 
ATOM      9  N   UNL     1       6.587   5.668  17.634  0.00  0.00    +0.000 N 
ATOM     10  C   UNL     1       6.606   5.555  16.239  0.00  0.00    +0.000 A 
ATOM     11  O   UNL     1       7.482   6.095  15.557  0.00  0.00    +0.000 OA
ENDROOT
BRANCH   8  12
ATOM     12  S   UNL     1       2.187   3.334  18.605  0.00  0.00    +0.000 S 
ATOM     13  C   UNL     1       1.468   3.197  20.219  0.00  0.00    +0.000 C 
ATOM     14  O   UNL     1       1.340   4.136  17.745  0.00  0.00    +0.000 OA
ATOM     15  O   UNL     1       2.593   1.998  18.203  0.00  0.00    +0.000 OA
ENDBRANCH   8  12
BRANCH   1  16
ATOM     16  C   UNL     1       5.600   4.694  14.178  0.00  0.00    +0.000 C 
BRANCH  16  17
ATOM     17  C   UNL     1       6.238   3.382  13.709  0.00  0.00    +0.000 C 
BRANCH  17  19
ATOM     18  C   UNL     1       4.774   3.131  11.681  0.00  0.00    +0.000 C 
ATOM     19  C   UNL     1       6.201   3.262  12.186  0.00  0.00    +0.000 C 
ENDBRANCH  17  19
ENDBRANCH  16  17
ENDBRANCH   1  16
BRANCH   9  20
ATOM     20  C   UNL     1       7.647   6.423  18.305  0.00  0.00    +0.000 C 
BRANCH  20  21
ATOM     21  C   UNL     1       7.779   7.891  17.883  0.00  0.00    +0.000 C 
BRANCH  21  22
ATOM     22  C   UNL     1       8.693   8.721  18.785  0.00  0.00    +0.000 C 
ATOM     23  C   UNL     1       8.821  10.141  18.249  0.00  0.00    +0.000 C 
ENDBRANCH  21  22
ENDBRANCH  20  21
ENDBRANCH   9  20
TORSDOF 7
ENDMDL
MODEL 5
REMARK VINA RESULT:      -6.7      3.091      4.495
REMARK  Name = 
REMARK  10 active torsions:
REMARK  status: ('A' for Active; 'I' for Inactive)
REMARK    1  A    between atoms: C_1  and  C_2
REMARK    2  A    between atoms: C_2  and  C_3
REMARK    3  A    between atoms: C_3  and  C_4
REMARK    4  A    between atoms: C_4  and  N_5
REMARK    5  A    between atoms: N_12  and  S_13
REMARK    6  A    between atoms: S_13  and  C_14
REMARK    7  A    between atoms: N_17  and  C_18
REMARK    8  A    between atoms: C_18  and  C_19
REMARK    9  A    between atoms: C_19  and  C_20
REMARK   10  A    between atoms: C_20  and  C_21
REMARK                            x       y       z     vdW  Elec       q    Type
REMARK                         _______ _______ _______ _____ _____    ______ ____
ROOT
ATOM      1  N   UNL     1       4.721   4.942  16.995  0.00  0.00    +0.000 N 
ATOM      2  C   UNL     1       4.157   4.046  17.908  0.00  0.00    +0.000 A 
ATOM      3  O   UNL     1       4.345   2.836  17.886  0.00  0.00    +0.000 OA
ATOM      4  C   UNL     1       3.278   4.668  18.828  0.00  0.00    +0.000 A 
ATOM      5  C   UNL     1       3.005   6.005  18.812  0.00  0.00    +0.000 A 
ATOM      6  N   UNL     1       2.091   6.352  19.762  0.00  0.00    +0.000 NA
ATOM      7  C   UNL     1       1.832   5.226  20.401  0.00  0.00    +0.000 A 
ATOM      8  N   UNL     1       2.526   4.187  19.856  0.00  0.00    +0.000 N 
ATOM      9  N   UNL     1       3.590   6.856  17.902  0.00  0.00    +0.000 N 
ATOM     10  C   UNL     1       4.418   6.319  16.910  0.00  0.00    +0.000 A 
ATOM     11  O   UNL     1       4.854   7.012  15.986  0.00  0.00    +0.000 OA
ENDROOT
BRANCH   8  12
ATOM     12  S   UNL     1       2.443   2.606  20.426  0.00  0.00    +0.000 S 
ATOM     13  C   UNL     1       1.433   2.560  21.882  0.00  0.00    +0.000 C 
ATOM     14  O   UNL     1       1.812   1.864  19.354  0.00  0.00    +0.000 OA
ATOM     15  O   UNL     1       3.801   2.297  20.839  0.00  0.00    +0.000 OA
ENDBRANCH   8  12
BRANCH   1  16
ATOM     16  C   UNL     1       5.592   4.392  15.956  0.00  0.00    +0.000 C 
BRANCH  16  17
ATOM     17  C   UNL     1       7.064   4.758  16.170  0.00  0.00    +0.000 C 
BRANCH  17  19
ATOM     18  C   UNL     1       7.773   5.921  18.283  0.00  0.00    +0.000 C 
ATOM     19  C   UNL     1       7.472   4.582  17.631  0.00  0.00    +0.000 C 
ENDBRANCH  17  19
ENDBRANCH  16  17
ENDBRANCH   1  16
BRANCH   9  20
ATOM     20  C   UNL     1       3.255   8.281  17.860  0.00  0.00    +0.000 C 
BRANCH  20  21
ATOM     21  C   UNL     1       1.772   8.602  17.639  0.00  0.00    +0.000 C 
BRANCH  21  22
ATOM     22  C   UNL     1       1.231   9.710  18.544  0.00  0.00    +0.000 C 
ATOM     23  C   UNL     1      -0.209  10.044  18.173  0.00  0.00    +0.000 C 
ENDBRANCH  21  22
ENDBRANCH  20  21
ENDBRANCH   9  20
TORSDOF 7
ENDMDL
MODEL 6
REMARK VINA RESULT:      -6.6      4.249      6.225
REMARK  Name = 
REMARK  10 active torsions:
REMARK  status: ('A' for Active; 'I' for Inactive)
REMARK    1  A    between atoms: C_1  and  C_2
REMARK    2  A    between atoms: C_2  and  C_3
REMARK    3  A    between atoms: C_3  and  C_4
REMARK    4  A    between atoms: C_4  and  N_5
REMARK    5  A    between atoms: N_12  and  S_13
REMARK    6  A    between atoms: S_13  and  C_14
REMARK    7  A    between atoms: N_17  and  C_18
REMARK    8  A    between atoms: C_18  and  C_19
REMARK    9  A    between atoms: C_19  and  C_20
REMARK   10  A    between atoms: C_20  and  C_21
REMARK                            x       y       z     vdW  Elec       q    Type
REMARK                         _______ _______ _______ _____ _____    ______ ____
ROOT
ATOM      1  N   UNL     1       2.515   5.927  20.011  0.00  0.00    +0.000 N 
ATOM      2  C   UNL     1       1.802   7.101  20.272  0.00  0.00    +0.000 A 
ATOM      3  O   UNL     1       1.040   7.245  21.220  0.00  0.00    +0.000 OA
ATOM      4  C   UNL     1       1.990   8.098  19.284  0.00  0.00    +0.000 A 
ATOM      5  C   UNL     1       2.780   7.918  18.184  0.00  0.00    +0.000 A 
ATOM      6  N   UNL     1       2.757   9.001  17.356  0.00  0.00    +0.000 NA
ATOM      7  C   UNL     1       1.983   9.875  17.974  0.00  0.00    +0.000 A 
ATOM      8  N   UNL     1       1.496   9.357  19.136  0.00  0.00    +0.000 N 
ATOM      9  N   UNL     1       3.473   6.749  17.969  0.00  0.00    +0.000 N 
ATOM     10  C   UNL     1       3.292   5.683  18.858  0.00  0.00    +0.000 A 
ATOM     11  O   UNL     1       3.775   4.568  18.638  0.00  0.00    +0.000 OA
ENDROOT
BRANCH   8  12
ATOM     12  S   UNL     1       0.483  10.200  20.182  0.00  0.00    +0.000 S 
ATOM     13  C   UNL     1       0.267  11.855  19.585  0.00  0.00    +0.000 C 
ATOM     14  O   UNL     1      -0.774   9.480  20.132  0.00  0.00    +0.000 OA
ATOM     15  O   UNL     1       1.234  10.289  21.423  0.00  0.00    +0.000 OA
ENDBRANCH   8  12
BRANCH   1  16
ATOM     16  C   UNL     1       2.336   4.807  20.936  0.00  0.00    +0.000 C 
BRANCH  16  17
ATOM     17  C   UNL     1       1.063   4.005  20.647  0.00  0.00    +0.000 C 
BRANCH  17  19
ATOM     18  C   UNL     1       0.944   2.387  18.728  0.00  0.00    +0.000 C 
ATOM     19  C   UNL     1       1.394   2.594  20.164  0.00  0.00    +0.000 C 
ENDBRANCH  17  19
ENDBRANCH  16  17
ENDBRANCH   1  16
BRANCH   9  20
ATOM     20  C   UNL     1       4.279   6.547  16.763  0.00  0.00    +0.000 C 
BRANCH  20  21
ATOM     21  C   UNL     1       5.790   6.733  16.942  0.00  0.00    +0.000 C 
BRANCH  21  22
ATOM     22  C   UNL     1       6.634   5.607  16.345  0.00  0.00    +0.000 C 
ATOM     23  C   UNL     1       7.346   4.834  17.448  0.00  0.00    +0.000 C 
ENDBRANCH  21  22
ENDBRANCH  20  21
ENDBRANCH   9  20
TORSDOF 7
ENDMDL
MODEL 7
REMARK VINA RESULT:      -6.6      0.898      1.088
REMARK  Name = 
REMARK  10 active torsions:
REMARK  status: ('A' for Active; 'I' for Inactive)
REMARK    1  A    between atoms: C_1  and  C_2
REMARK    2  A    between atoms: C_2  and  C_3
REMARK    3  A    between atoms: C_3  and  C_4
REMARK    4  A    between atoms: C_4  and  N_5
REMARK    5  A    between atoms: N_12  and  S_13
REMARK    6  A    between atoms: S_13  and  C_14
REMARK    7  A    between atoms: N_17  and  C_18
REMARK    8  A    between atoms: C_18  and  C_19
REMARK    9  A    between atoms: C_19  and  C_20
REMARK   10  A    between atoms: C_20  and  C_21
REMARK                            x       y       z     vdW  Elec       q    Type
REMARK                         _______ _______ _______ _____ _____    ______ ____
ROOT
ATOM      1  N   UNL     1       6.745   5.069  17.689  0.00  0.00    +0.000 N 
ATOM      2  C   UNL     1       5.794   4.549  18.571  0.00  0.00    +0.000 A 
ATOM      3  O   UNL     1       5.970   4.432  19.778  0.00  0.00    +0.000 OA
ATOM      4  C   UNL     1       4.620   4.097  17.922  0.00  0.00    +0.000 A 
ATOM      5  C   UNL     1       4.446   4.155  16.570  0.00  0.00    +0.000 A 
ATOM      6  N   UNL     1       3.257   3.611  16.183  0.00  0.00    +0.000 NA
ATOM      7  C   UNL     1       2.671   3.256  17.312  0.00  0.00    +0.000 A 
ATOM      8  N   UNL     1       3.472   3.526  18.381  0.00  0.00    +0.000 N 
ATOM      9  N   UNL     1       5.404   4.684  15.735  0.00  0.00    +0.000 N 
ATOM     10  C   UNL     1       6.626   5.091  16.281  0.00  0.00    +0.000 A 
ATOM     11  O   UNL     1       7.571   5.440  15.567  0.00  0.00    +0.000 OA
ENDROOT
BRANCH   8  12
ATOM     12  S   UNL     1       3.039   3.212  19.976  0.00  0.00    +0.000 S 
ATOM     13  C   UNL     1       4.236   2.128  20.707  0.00  0.00    +0.000 C 
ATOM     14  O   UNL     1       3.071   4.507  20.625  0.00  0.00    +0.000 OA
ATOM     15  O   UNL     1       1.795   2.467  19.875  0.00  0.00    +0.000 OA
ENDBRANCH   8  12
BRANCH   1  16
ATOM     16  C   UNL     1       8.025   5.501  18.250  0.00  0.00    +0.000 C 
BRANCH  16  17
ATOM     17  C   UNL     1       7.970   6.928  18.807  0.00  0.00    +0.000 C 
BRANCH  17  19
ATOM     18  C   UNL     1       8.392   9.312  18.132  0.00  0.00    +0.000 C 
ATOM     19  C   UNL     1       7.870   7.958  17.682  0.00  0.00    +0.000 C 
ENDBRANCH  17  19
ENDBRANCH  16  17
ENDBRANCH   1  16
BRANCH   9  20
ATOM     20  C   UNL     1       5.230   4.698  14.281  0.00  0.00    +0.000 C 
BRANCH  20  21
ATOM     21  C   UNL     1       5.974   3.596  13.518  0.00  0.00    +0.000 C 
BRANCH  21  22
ATOM     22  C   UNL     1       5.432   3.333  12.113  0.00  0.00    +0.000 C 
ATOM     23  C   UNL     1       5.974   2.016  11.572  0.00  0.00    +0.000 C 
ENDBRANCH  21  22
ENDBRANCH  20  21
ENDBRANCH   9  20
TORSDOF 7
ENDMDL
MODEL 8
REMARK VINA RESULT:      -6.6      1.688      4.875
REMARK  Name = 
REMARK  10 active torsions:
REMARK  status: ('A' for Active; 'I' for Inactive)
REMARK    1  A    between atoms: C_1  and  C_2
REMARK    2  A    between atoms: C_2  and  C_3
REMARK    3  A    between atoms: C_3  and  C_4
REMARK    4  A    between atoms: C_4  and  N_5
REMARK    5  A    between atoms: N_12  and  S_13
REMARK    6  A    between atoms: S_13  and  C_14
REMARK    7  A    between atoms: N_17  and  C_18
REMARK    8  A    between atoms: C_18  and  C_19
REMARK    9  A    between atoms: C_19  and  C_20
REMARK   10  A    between atoms: C_20  and  C_21
REMARK                            x       y       z     vdW  Elec       q    Type
REMARK                         _______ _______ _______ _____ _____    ______ ____
ROOT
ATOM      1  N   UNL     1       5.651   3.944  16.051  0.00  0.00    +0.000 N 
ATOM      2  C   UNL     1       4.397   3.792  16.648  0.00  0.00    +0.000 A 
ATOM      3  O   UNL     1       3.463   3.186  16.137  0.00  0.00    +0.000 OA
ATOM      4  C   UNL     1       4.283   4.472  17.885  0.00  0.00    +0.000 A 
ATOM      5  C   UNL     1       5.295   5.211  18.426  0.00  0.00    +0.000 A 
ATOM      6  N   UNL     1       4.923   5.811  19.593  0.00  0.00    +0.000 NA
ATOM      7  C   UNL     1       3.685   5.401  19.797  0.00  0.00    +0.000 A 
ATOM      8  N   UNL     1       3.264   4.599  18.779  0.00  0.00    +0.000 N 
ATOM      9  N   UNL     1       6.520   5.329  17.810  0.00  0.00    +0.000 N 
ATOM     10  C   UNL     1       6.701   4.747  16.550  0.00  0.00    +0.000 A 
ATOM     11  O   UNL     1       7.726   4.938  15.889  0.00  0.00    +0.000 OA
ENDROOT
BRANCH   8  12
ATOM     12  S   UNL     1       1.739   3.890  18.717  0.00  0.00    +0.000 S 
ATOM     13  C   UNL     1       1.912   2.127  18.678  0.00  0.00    +0.000 C 
ATOM     14  O   UNL     1       1.094   4.305  19.947  0.00  0.00    +0.000 OA
ATOM     15  O   UNL     1       1.202   4.295  17.429  0.00  0.00    +0.000 OA
ENDBRANCH   8  12
BRANCH   1  16
ATOM     16  C   UNL     1       5.853   3.337  14.735  0.00  0.00    +0.000 C 
BRANCH  16  17
ATOM     17  C   UNL     1       5.462   4.276  13.589  0.00  0.00    +0.000 C 
BRANCH  17  19
ATOM     18  C   UNL     1       5.967   2.605  11.780  0.00  0.00    +0.000 C 
ATOM     19  C   UNL     1       4.904   3.496  12.400  0.00  0.00    +0.000 C 
ENDBRANCH  17  19
ENDBRANCH  16  17
ENDBRANCH   1  16
BRANCH   9  20
ATOM     20  C   UNL     1       7.584   6.162  18.373  0.00  0.00    +0.000 C 
BRANCH  20  21
ATOM     21  C   UNL     1       7.676   7.584  17.806  0.00  0.00    +0.000 C 
BRANCH  21  22
ATOM     22  C   UNL     1       8.577   8.521  18.611  0.00  0.00    +0.000 C 
ATOM     23  C   UNL     1       8.538   9.927  18.028  0.00  0.00    +0.000 C 
ENDBRANCH  21  22
ENDBRANCH  20  21
ENDBRANCH   9  20
TORSDOF 7
ENDMDL
MODEL 9
REMARK VINA RESULT:      -6.6      3.117      4.556
REMARK  Name = 
REMARK  10 active torsions:
REMARK  status: ('A' for Active; 'I' for Inactive)
REMARK    1  A    between atoms: C_1  and  C_2
REMARK    2  A    between atoms: C_2  and  C_3
REMARK    3  A    between atoms: C_3  and  C_4
REMARK    4  A    between atoms: C_4  and  N_5
REMARK    5  A    between atoms: N_12  and  S_13
REMARK    6  A    between atoms: S_13  and  C_14
REMARK    7  A    between atoms: N_17  and  C_18
REMARK    8  A    between atoms: C_18  and  C_19
REMARK    9  A    between atoms: C_19  and  C_20
REMARK   10  A    between atoms: C_20  and  C_21
REMARK                            x       y       z     vdW  Elec       q    Type
REMARK                         _______ _______ _______ _____ _____    ______ ____
ROOT
ATOM      1  N   UNL     1       4.650   4.948  17.247  0.00  0.00    +0.000 N 
ATOM      2  C   UNL     1       4.126   4.100  18.227  0.00  0.00    +0.000 A 
ATOM      3  O   UNL     1       4.328   2.892  18.268  0.00  0.00    +0.000 OA
ATOM      4  C   UNL     1       3.271   4.764  19.140  0.00  0.00    +0.000 A 
ATOM      5  C   UNL     1       2.982   6.096  19.058  0.00  0.00    +0.000 A 
ATOM      6  N   UNL     1       2.096   6.487  20.017  0.00  0.00    +0.000 NA
ATOM      7  C   UNL     1       1.871   5.397  20.726  0.00  0.00    +0.000 A 
ATOM      8  N   UNL     1       2.559   4.335  20.218  0.00  0.00    +0.000 N 
ATOM      9  N   UNL     1       3.527   6.900  18.081  0.00  0.00    +0.000 N 
ATOM     10  C   UNL     1       4.328   6.315  17.094  0.00  0.00    +0.000 A 
ATOM     11  O   UNL     1       4.725   6.958  16.118  0.00  0.00    +0.000 OA
ENDROOT
BRANCH   8  12
ATOM     12  S   UNL     1       2.513   2.789  20.879  0.00  0.00    +0.000 S 
ATOM     13  C   UNL     1       1.785   1.672  19.712  0.00  0.00    +0.000 C 
ATOM     14  O   UNL     1       3.903   2.447  21.101  0.00  0.00    +0.000 OA
ATOM     15  O   UNL     1       1.591   2.899  21.997  0.00  0.00    +0.000 OA
ENDBRANCH   8  12
BRANCH   1  16
ATOM     16  C   UNL     1       5.492   4.349  16.212  0.00  0.00    +0.000 C 
BRANCH  16  17
ATOM     17  C   UNL     1       6.948   4.817  16.297  0.00  0.00    +0.000 C 
BRANCH  17  19
ATOM     18  C   UNL     1       7.715   5.900  18.432  0.00  0.00    +0.000 C 
ATOM     19  C   UNL     1       7.524   4.586  17.693  0.00  0.00    +0.000 C 
ENDBRANCH  17  19
ENDBRANCH  16  17
ENDBRANCH   1  16
BRANCH   9  20
ATOM     20  C   UNL     1       3.174   8.316  17.971  0.00  0.00    +0.000 C 
BRANCH  20  21
ATOM     21  C   UNL     1       1.699   8.606  17.664  0.00  0.00    +0.000 C 
BRANCH  21  22
ATOM     22  C   UNL     1       1.199   9.944  18.208  0.00  0.00    +0.000 C 
ATOM     23  C   UNL     1       0.595   9.762  19.595  0.00  0.00    +0.000 C 
ENDBRANCH  21  22
ENDBRANCH  20  21
ENDBRANCH   9  20
TORSDOF 7
ENDMDL
