MODEL 1
REMARK VINA RESULT:      -7.5      0.000      0.000
REMARK  Name = 
REMARK  3 active torsions:
REMARK  status: ('A' for Active; 'I' for Inactive)
REMARK    1  A    between atoms: C_5  and  C_6
REMARK    2  A    between atoms: C_6  and  N_7
REMARK    3  A    between atoms: C_10  and  C_11
REMARK                            x       y       z     vdW  Elec       q    Type
REMARK                         _______ _______ _______ _____ _____    ______ ____
ROOT
ATOM      1  N   UNL     1       1.470   9.399  18.832  0.00  0.00    +0.000 N 
ATOM      2  C   UNL     1       1.435   8.586  19.929  0.00  0.00    +0.000 A 
ATOM      3  N   UNL     1       2.097   7.468  19.723  0.00  0.00    +0.000 NA
ATOM      4  C   UNL     1       2.590   7.567  18.436  0.00  0.00    +0.000 A 
ATOM      5  C   UNL     1       2.206   8.767  17.871  0.00  0.00    +0.000 A 
ENDROOT
BRANCH   4   6
ATOM      6  C   UNL     1       3.416   6.557  17.785  0.00  0.00    +0.000 A 
ATOM      7  C   UNL     1       4.534   6.947  17.049  0.00  0.00    +0.000 A 
ATOM      8  C   UNL     1       5.239   5.900  16.462  0.00  0.00    +0.000 A 
ATOM      9  N   UNL     1       6.356   5.833  15.680  0.00  0.00    +0.000 N 
ATOM     10  N   UNL     1       6.660   4.565  15.349  0.00  0.00    +0.000 NA
ATOM     11  N   UNL     1       5.747   3.778  15.909  0.00  0.00    +0.000 NA
ATOM     12  C   UNL     1       4.866   4.570  16.596  0.00  0.00    +0.000 A 
ATOM     13  C   UNL     1       3.737   4.263  17.350  0.00  0.00    +0.000 A 
ATOM     14  N   UNL     1       3.020   5.259  17.938  0.00  0.00    +0.000 NA
ATOM     15  H   UNL     1       6.947   6.581  15.340  0.00  0.00    +0.000 HD
ENDBRANCH   4   6
BRANCH   1  16
ATOM     16  C   UNL     1       0.947  10.750  18.751  0.00  0.00    +0.000 C 
BRANCH  16  21
ATOM     17 CL   UNL     1      -4.969  11.019  17.612  0.00  0.00    +0.000 Cl
ATOM     18  C   UNL     1      -3.290  10.911  17.967  0.00  0.00    +0.000 A 
ATOM     19  C   UNL     1      -2.724  11.772  18.904  0.00  0.00    +0.000 A 
ATOM     20  C   UNL     1      -1.354  11.705  19.173  0.00  0.00    +0.000 A 
ATOM     21  C   UNL     1      -0.540  10.780  18.502  0.00  0.00    +0.000 A 
ATOM     22  C   UNL     1      -1.131   9.900  17.580  0.00  0.00    +0.000 A 
ATOM     23  C   UNL     1      -2.501   9.970  17.310  0.00  0.00    +0.000 A 
ENDBRANCH  16  21
ENDBRANCH   1  16
TORSDOF 3
ENDMDL
MODEL 2
REMARK VINA RESULT:      -7.4      2.134      2.717
REMARK  Name = 
REMARK  3 active torsions:
REMARK  status: ('A' for Active; 'I' for Inactive)
REMARK    1  A    between atoms: C_5  and  C_6
REMARK    2  A    between atoms: C_6  and  N_7
REMARK    3  A    between atoms: C_10  and  C_11
REMARK                            x       y       z     vdW  Elec       q    Type
REMARK                         _______ _______ _______ _____ _____    ______ ____
ROOT
ATOM      1  N   UNL     1       1.421   9.526  19.180  0.00  0.00    +0.000 N 
ATOM      2  C   UNL     1       1.990   9.258  17.968  0.00  0.00    +0.000 A 
ATOM      3  N   UNL     1       2.499   8.045  17.930  0.00  0.00    +0.000 NA
ATOM      4  C   UNL     1       2.238   7.502  19.173  0.00  0.00    +0.000 A 
ATOM      5  C   UNL     1       1.567   8.415  19.961  0.00  0.00    +0.000 A 
ENDROOT
BRANCH   4   6
ATOM      6  C   UNL     1       2.601   6.148  19.579  0.00  0.00    +0.000 A 
ATOM      7  C   UNL     1       3.775   5.573  19.094  0.00  0.00    +0.000 A 
ATOM      8  C   UNL     1       4.013   4.275  19.537  0.00  0.00    +0.000 A 
ATOM      9  N   UNL     1       5.009   3.367  19.315  0.00  0.00    +0.000 N 
ATOM     10  N   UNL     1       4.794   2.217  19.978  0.00  0.00    +0.000 NA
ATOM     11  N   UNL     1       3.654   2.350  20.648  0.00  0.00    +0.000 NA
ATOM     12  C   UNL     1       3.156   3.601  20.395  0.00  0.00    +0.000 A 
ATOM     13  C   UNL     1       2.003   4.247  20.836  0.00  0.00    +0.000 A 
ATOM     14  N   UNL     1       1.735   5.515  20.423  0.00  0.00    +0.000 NA
ATOM     15  H   UNL     1       5.839   3.453  18.743  0.00  0.00    +0.000 HD
ENDBRANCH   4   6
BRANCH   1  16
ATOM     16  C   UNL     1       0.670  10.718  19.528  0.00  0.00    +0.000 C 
BRANCH  16  21
ATOM     17 CL   UNL     1      -4.663  11.070  16.734  0.00  0.00    +0.000 Cl
ATOM     18  C   UNL     1      -3.157  10.936  17.555  0.00  0.00    +0.000 A 
ATOM     19  C   UNL     1      -2.913  11.713  18.684  0.00  0.00    +0.000 A 
ATOM     20  C   UNL     1      -1.680  11.627  19.335  0.00  0.00    +0.000 A 
ATOM     21  C   UNL     1      -0.680  10.765  18.859  0.00  0.00    +0.000 A 
ATOM     22  C   UNL     1      -0.953   9.967  17.735  0.00  0.00    +0.000 A 
ATOM     23  C   UNL     1      -2.186  10.057  17.082  0.00  0.00    +0.000 A 
ENDBRANCH  16  21
ENDBRANCH   1  16
TORSDOF 3
ENDMDL
MODEL 3
REMARK VINA RESULT:      -7.4      4.135      8.092
REMARK  Name = 
REMARK  3 active torsions:
REMARK  status: ('A' for Active; 'I' for Inactive)
REMARK    1  A    between atoms: C_5  and  C_6
REMARK    2  A    between atoms: C_6  and  N_7
REMARK    3  A    between atoms: C_10  and  C_11
REMARK                            x       y       z     vdW  Elec       q    Type
REMARK                         _______ _______ _______ _____ _____    ______ ____
ROOT
ATOM      1  N   UNL     1       3.734   4.526  19.563  0.00  0.00    +0.000 N 
ATOM      2  C   UNL     1       2.489   4.086  19.911  0.00  0.00    +0.000 A 
ATOM      3  N   UNL     1       1.652   5.086  20.080  0.00  0.00    +0.000 NA
ATOM      4  C   UNL     1       2.388   6.226  19.819  0.00  0.00    +0.000 A 
ATOM      5  C   UNL     1       3.687   5.890  19.496  0.00  0.00    +0.000 A 
ENDROOT
BRANCH   4   6
ATOM      6  C   UNL     1       1.855   7.583  19.859  0.00  0.00    +0.000 A 
ATOM      7  C   UNL     1       1.908   8.380  18.717  0.00  0.00    +0.000 A 
ATOM      8  C   UNL     1       1.383   9.660  18.875  0.00  0.00    +0.000 A 
ATOM      9  N   UNL     1       1.239  10.733  18.044  0.00  0.00    +0.000 N 
ATOM     10  N   UNL     1       0.661  11.775  18.667  0.00  0.00    +0.000 NA
ATOM     11  N   UNL     1       0.415  11.404  19.919  0.00  0.00    +0.000 NA
ATOM     12  C   UNL     1       0.847  10.113  20.072  0.00  0.00    +0.000 A 
ATOM     13  C   UNL     1       0.831   9.253  21.168  0.00  0.00    +0.000 A 
ATOM     14  N   UNL     1       1.336   7.996  21.053  0.00  0.00    +0.000 NA
ATOM     15  H   UNL     1       1.502  10.831  17.071  0.00  0.00    +0.000 HD
ENDBRANCH   4   6
BRANCH   1  16
ATOM     16  C   UNL     1       4.863   3.695  19.188  0.00  0.00    +0.000 C 
BRANCH  16  21
ATOM     17 CL   UNL     1       7.253   5.019  13.812  0.00  0.00    +0.000 Cl
ATOM     18  C   UNL     1       6.554   4.682  15.347  0.00  0.00    +0.000 A 
ATOM     19  C   UNL     1       7.299   4.882  16.505  0.00  0.00    +0.000 A 
ATOM     20  C   UNL     1       6.743   4.582  17.752  0.00  0.00    +0.000 A 
ATOM     21  C   UNL     1       5.439   4.074  17.847  0.00  0.00    +0.000 A 
ATOM     22  C   UNL     1       4.690   3.905  16.670  0.00  0.00    +0.000 A 
ATOM     23  C   UNL     1       5.248   4.203  15.424  0.00  0.00    +0.000 A 
ENDBRANCH  16  21
ENDBRANCH   1  16
TORSDOF 3
ENDMDL
MODEL 4
REMARK VINA RESULT:      -7.3      2.139      3.479
REMARK  Name = 
REMARK  3 active torsions:
REMARK  status: ('A' for Active; 'I' for Inactive)
REMARK    1  A    between atoms: C_5  and  C_6
REMARK    2  A    between atoms: C_6  and  N_7
REMARK    3  A    between atoms: C_10  and  C_11
REMARK                            x       y       z     vdW  Elec       q    Type
REMARK                         _______ _______ _______ _____ _____    ______ ____
ROOT
ATOM      1  N   UNL     1       1.368   9.710  19.105  0.00  0.00    +0.000 N 
ATOM      2  C   UNL     1       1.910   9.435  17.882  0.00  0.00    +0.000 A 
ATOM      3  N   UNL     1       2.388   8.210  17.829  0.00  0.00    +0.000 NA
ATOM      4  C   UNL     1       2.135   7.666  19.074  0.00  0.00    +0.000 A 
ATOM      5  C   UNL     1       1.500   8.591  19.877  0.00  0.00    +0.000 A 
ENDROOT
BRANCH   4   6
ATOM      6  C   UNL     1       2.473   6.302  19.465  0.00  0.00    +0.000 A 
ATOM      7  C   UNL     1       1.955   5.774  20.647  0.00  0.00    +0.000 A 
ATOM      8  C   UNL     1       2.356   4.470  20.926  0.00  0.00    +0.000 A 
ATOM      9  N   UNL     1       2.096   3.599  21.944  0.00  0.00    +0.000 N 
ATOM     10  N   UNL     1       2.728   2.424  21.771  0.00  0.00    +0.000 NA
ATOM     11  N   UNL     1       3.412   2.504  20.635  0.00  0.00    +0.000 NA
ATOM     12  C   UNL     1       3.202   3.746  20.098  0.00  0.00    +0.000 A 
ATOM     13  C   UNL     1       3.675   4.346  18.933  0.00  0.00    +0.000 A 
ATOM     14  N   UNL     1       3.308   5.620  18.627  0.00  0.00    +0.000 NA
ATOM     15  H   UNL     1       1.519   3.725  22.766  0.00  0.00    +0.000 HD
ENDBRANCH   4   6
BRANCH   1  16
ATOM     16  C   UNL     1       0.651  10.917  19.472  0.00  0.00    +0.000 C 
BRANCH  16  21
ATOM     17 CL   UNL     1      -4.985  10.925  17.328  0.00  0.00    +0.000 Cl
ATOM     18  C   UNL     1      -3.367  10.954  17.910  0.00  0.00    +0.000 A 
ATOM     19  C   UNL     1      -2.432  10.056  17.401  0.00  0.00    +0.000 A 
ATOM     20  C   UNL     1      -1.125  10.059  17.893  0.00  0.00    +0.000 A 
ATOM     21  C   UNL     1      -0.744  10.957  18.902  0.00  0.00    +0.000 A 
ATOM     22  C   UNL     1      -1.691  11.875  19.385  0.00  0.00    +0.000 A 
ATOM     23  C   UNL     1      -3.000  11.869  18.894  0.00  0.00    +0.000 A 
ENDBRANCH  16  21
ENDBRANCH   1  16
TORSDOF 3
ENDMDL
MODEL 5
REMARK VINA RESULT:      -7.3      2.101      2.867
REMARK  Name = 
REMARK  3 active torsions:
REMARK  status: ('A' for Active; 'I' for Inactive)
REMARK    1  A    between atoms: C_5  and  C_6
REMARK    2  A    between atoms: C_6  and  N_7
REMARK    3  A    between atoms: C_10  and  C_11
REMARK                            x       y       z     vdW  Elec       q    Type
REMARK                         _______ _______ _______ _____ _____    ______ ____
ROOT
ATOM      1  N   UNL     1       1.426   9.612  19.155  0.00  0.00    +0.000 N 
ATOM      2  C   UNL     1       1.933   9.322  17.921  0.00  0.00    +0.000 A 
ATOM      3  N   UNL     1       2.426   8.103  17.874  0.00  0.00    +0.000 NA
ATOM      4  C   UNL     1       2.219   7.578  19.135  0.00  0.00    +0.000 A 
ATOM      5  C   UNL     1       1.597   8.509  19.943  0.00  0.00    +0.000 A 
ENDROOT
BRANCH   4   6
ATOM      6  C   UNL     1       2.587   6.226  19.540  0.00  0.00    +0.000 A 
ATOM      7  C   UNL     1       3.764   5.656  19.057  0.00  0.00    +0.000 A 
ATOM      8  C   UNL     1       4.006   4.358  19.499  0.00  0.00    +0.000 A 
ATOM      9  N   UNL     1       5.006   3.455  19.278  0.00  0.00    +0.000 N 
ATOM     10  N   UNL     1       4.795   2.303  19.940  0.00  0.00    +0.000 NA
ATOM     11  N   UNL     1       3.652   2.431  20.607  0.00  0.00    +0.000 NA
ATOM     12  C   UNL     1       3.149   3.679  20.354  0.00  0.00    +0.000 A 
ATOM     13  C   UNL     1       1.994   4.320  20.793  0.00  0.00    +0.000 A 
ATOM     14  N   UNL     1       1.721   5.588  20.382  0.00  0.00    +0.000 NA
ATOM     15  H   UNL     1       5.838   3.544  18.709  0.00  0.00    +0.000 HD
ENDBRANCH   4   6
BRANCH   1  16
ATOM     16  C   UNL     1       0.705  10.816  19.524  0.00  0.00    +0.000 C 
BRANCH  16  21
ATOM     17 CL   UNL     1      -4.858  10.911  17.198  0.00  0.00    +0.000 Cl
ATOM     18  C   UNL     1      -3.259  10.915  17.832  0.00  0.00    +0.000 A 
ATOM     19  C   UNL     1      -2.322  10.005  17.352  0.00  0.00    +0.000 A 
ATOM     20  C   UNL     1      -1.031   9.987  17.885  0.00  0.00    +0.000 A 
ATOM     21  C   UNL     1      -0.670  10.877  18.909  0.00  0.00    +0.000 A 
ATOM     22  C   UNL     1      -1.619  11.808  19.363  0.00  0.00    +0.000 A 
ATOM     23  C   UNL     1      -2.912  11.823  18.830  0.00  0.00    +0.000 A 
ENDBRANCH  16  21
ENDBRANCH   1  16
TORSDOF 3
ENDMDL
MODEL 6
REMARK VINA RESULT:      -7.3      4.064      8.201
REMARK  Name = 
REMARK  3 active torsions:
REMARK  status: ('A' for Active; 'I' for Inactive)
REMARK    1  A    between atoms: C_5  and  C_6
REMARK    2  A    between atoms: C_6  and  N_7
REMARK    3  A    between atoms: C_10  and  C_11
REMARK                            x       y       z     vdW  Elec       q    Type
REMARK                         _______ _______ _______ _____ _____    ______ ____
ROOT
ATOM      1  N   UNL     1       3.698   4.709  19.714  0.00  0.00    +0.000 N 
ATOM      2  C   UNL     1       2.557   4.466  20.425  0.00  0.00    +0.000 A 
ATOM      3  N   UNL     1       1.784   5.528  20.476  0.00  0.00    +0.000 NA
ATOM      4  C   UNL     1       2.452   6.500  19.756  0.00  0.00    +0.000 A 
ATOM      5  C   UNL     1       3.646   6.001  19.277  0.00  0.00    +0.000 A 
ENDROOT
BRANCH   4   6
ATOM      6  C   UNL     1       1.949   7.850  19.522  0.00  0.00    +0.000 A 
ATOM      7  C   UNL     1       1.275   8.523  20.540  0.00  0.00    +0.000 A 
ATOM      8  C   UNL     1       0.829   9.797  20.199  0.00  0.00    +0.000 A 
ATOM      9  N   UNL     1       0.146  10.770  20.869  0.00  0.00    +0.000 N 
ATOM     10  N   UNL     1      -0.060  11.856  20.102  0.00  0.00    +0.000 NA
ATOM     11  N   UNL     1       0.486  11.614  18.915  0.00  0.00    +0.000 NA
ATOM     12  C   UNL     1       1.037  10.360  18.948  0.00  0.00    +0.000 A 
ATOM     13  C   UNL     1       1.722   9.622  17.986  0.00  0.00    +0.000 A 
ATOM     14  N   UNL     1       2.172   8.372  18.280  0.00  0.00    +0.000 NA
ATOM     15  H   UNL     1      -0.205  10.771  21.819  0.00  0.00    +0.000 HD
ENDBRANCH   4   6
BRANCH   1  16
ATOM     16  C   UNL     1       4.712   3.732  19.362  0.00  0.00    +0.000 C 
BRANCH  16  21
ATOM     17 CL   UNL     1       7.149   5.051  14.005  0.00  0.00    +0.000 Cl
ATOM     18  C   UNL     1       6.473   4.635  15.531  0.00  0.00    +0.000 A 
ATOM     19  C   UNL     1       5.191   4.095  15.596  0.00  0.00    +0.000 A 
ATOM     20  C   UNL     1       4.629   3.783  16.837  0.00  0.00    +0.000 A 
ATOM     21  C   UNL     1       5.344   4.014  18.022  0.00  0.00    +0.000 A 
ATOM     22  C   UNL     1       6.647   4.533  17.937  0.00  0.00    +0.000 A 
ATOM     23  C   UNL     1       7.207   4.847  16.696  0.00  0.00    +0.000 A 
ENDBRANCH  16  21
ENDBRANCH   1  16
TORSDOF 3
ENDMDL
MODEL 7
REMARK VINA RESULT:      -7.2      1.947      2.655
REMARK  Name = 
REMARK  3 active torsions:
REMARK  status: ('A' for Active; 'I' for Inactive)
REMARK    1  A    between atoms: C_5  and  C_6
REMARK    2  A    between atoms: C_6  and  N_7
REMARK    3  A    between atoms: C_10  and  C_11
REMARK                            x       y       z     vdW  Elec       q    Type
REMARK                         _______ _______ _______ _____ _____    ______ ____
ROOT
ATOM      1  N   UNL     1       1.001   9.483  19.290  0.00  0.00    +0.000 N 
ATOM      2  C   UNL     1       0.806   9.153  20.601  0.00  0.00    +0.000 A 
ATOM      3  N   UNL     1       1.380   8.009  20.902  0.00  0.00    +0.000 NA
ATOM      4  C   UNL     1       1.982   7.583  19.734  0.00  0.00    +0.000 A 
ATOM      5  C   UNL     1       1.753   8.494  18.722  0.00  0.00    +0.000 A 
ENDROOT
BRANCH   4   6
ATOM      6  C   UNL     1       2.765   6.359  19.603  0.00  0.00    +0.000 A 
ATOM      7  C   UNL     1       2.381   5.216  20.302  0.00  0.00    +0.000 A 
ATOM      8  C   UNL     1       3.209   4.113  20.112  0.00  0.00    +0.000 A 
ATOM      9  N   UNL     1       3.206   2.834  20.590  0.00  0.00    +0.000 N 
ATOM     10  N   UNL     1       4.238   2.118  20.110  0.00  0.00    +0.000 NA
ATOM     11  N   UNL     1       4.937   2.914  19.308  0.00  0.00    +0.000 NA
ATOM     12  C   UNL     1       4.328   4.141  19.292  0.00  0.00    +0.000 A 
ATOM     13  C   UNL     1       4.642   5.324  18.626  0.00  0.00    +0.000 A 
ATOM     14  N   UNL     1       3.858   6.424  18.788  0.00  0.00    +0.000 NA
ATOM     15  H   UNL     1       2.557   2.388  21.226  0.00  0.00    +0.000 HD
ENDBRANCH   4   6
BRANCH   1  16
ATOM     16  C   UNL     1       0.609  10.725  18.651  0.00  0.00    +0.000 C 
BRANCH  16  21
ATOM     17 CL   UNL     1      -5.290  11.173  17.481  0.00  0.00    +0.000 Cl
ATOM     18  C   UNL     1      -3.616  11.013  17.844  0.00  0.00    +0.000 A 
ATOM     19  C   UNL     1      -3.036  11.836  18.805  0.00  0.00    +0.000 A 
ATOM     20  C   UNL     1      -1.670  11.728  19.082  0.00  0.00    +0.000 A 
ATOM     21  C   UNL     1      -0.875  10.799  18.393  0.00  0.00    +0.000 A 
ATOM     22  C   UNL     1      -1.482   9.957  17.447  0.00  0.00    +0.000 A 
ATOM     23  C   UNL     1      -2.848  10.068  17.169  0.00  0.00    +0.000 A 
ENDBRANCH  16  21
ENDBRANCH   1  16
TORSDOF 3
ENDMDL
MODEL 8
REMARK VINA RESULT:      -7.2      4.053      8.245
REMARK  Name = 
REMARK  3 active torsions:
REMARK  status: ('A' for Active; 'I' for Inactive)
REMARK    1  A    between atoms: C_5  and  C_6
REMARK    2  A    between atoms: C_6  and  N_7
REMARK    3  A    between atoms: C_10  and  C_11
REMARK                            x       y       z     vdW  Elec       q    Type
REMARK                         _______ _______ _______ _____ _____    ______ ____
ROOT
ATOM      1  N   UNL     1       3.825   4.682  19.497  0.00  0.00    +0.000 N 
ATOM      2  C   UNL     1       2.640   4.294  20.054  0.00  0.00    +0.000 A 
ATOM      3  N   UNL     1       1.809   5.307  20.177  0.00  0.00    +0.000 NA
ATOM      4  C   UNL     1       2.487   6.398  19.668  0.00  0.00    +0.000 A 
ATOM      5  C   UNL     1       3.744   6.021  19.241  0.00  0.00    +0.000 A 
ENDROOT
BRANCH   4   6
ATOM      6  C   UNL     1       1.936   7.746  19.576  0.00  0.00    +0.000 A 
ATOM      7  C   UNL     1       1.355   8.333  20.699  0.00  0.00    +0.000 A 
ATOM      8  C   UNL     1       0.852   9.615  20.491  0.00  0.00    +0.000 A 
ATOM      9  N   UNL     1       0.220  10.524  21.290  0.00  0.00    +0.000 N 
ATOM     10  N   UNL     1      -0.083  11.651  20.622  0.00  0.00    +0.000 NA
ATOM     11  N   UNL     1       0.345  11.501  19.373  0.00  0.00    +0.000 NA
ATOM     12  C   UNL     1       0.921  10.263  19.266  0.00  0.00    +0.000 A 
ATOM     13  C   UNL     1       1.520   9.608  18.193  0.00  0.00    +0.000 A 
ATOM     14  N   UNL     1       2.022   8.354  18.356  0.00  0.00    +0.000 NA
ATOM     15  H   UNL     1      -0.032  10.454  22.267  0.00  0.00    +0.000 HD
ENDBRANCH   4   6
BRANCH   1  16
ATOM     16  C   UNL     1       4.917   3.807  19.112  0.00  0.00    +0.000 C 
BRANCH  16  21
ATOM     17 CL   UNL     1       7.288   5.023  13.702  0.00  0.00    +0.000 Cl
ATOM     18  C   UNL     1       6.597   4.718  15.247  0.00  0.00    +0.000 A 
ATOM     19  C   UNL     1       7.366   4.885  16.394  0.00  0.00    +0.000 A 
ATOM     20  C   UNL     1       6.815   4.610  17.649  0.00  0.00    +0.000 A 
ATOM     21  C   UNL     1       5.490   4.160  17.762  0.00  0.00    +0.000 A 
ATOM     22  C   UNL     1       4.719   4.024  16.596  0.00  0.00    +0.000 A 
ATOM     23  C   UNL     1       5.272   4.297  15.342  0.00  0.00    +0.000 A 
ENDBRANCH  16  21
ENDBRANCH   1  16
TORSDOF 3
ENDMDL
MODEL 9
REMARK VINA RESULT:      -7.2      1.956      2.865
REMARK  Name = 
REMARK  3 active torsions:
REMARK  status: ('A' for Active; 'I' for Inactive)
REMARK    1  A    between atoms: C_5  and  C_6
REMARK    2  A    between atoms: C_6  and  N_7
REMARK    3  A    between atoms: C_10  and  C_11
REMARK                            x       y       z     vdW  Elec       q    Type
REMARK                         _______ _______ _______ _____ _____    ______ ____
ROOT
ATOM      1  N   UNL     1       0.977   9.538  19.431  0.00  0.00    +0.000 N 
ATOM      2  C   UNL     1       0.737   9.152  20.718  0.00  0.00    +0.000 A 
ATOM      3  N   UNL     1       1.294   7.990  20.986  0.00  0.00    +0.000 NA
ATOM      4  C   UNL     1       1.930   7.613  19.819  0.00  0.00    +0.000 A 
ATOM      5  C   UNL     1       1.740   8.570  18.843  0.00  0.00    +0.000 A 
ENDROOT
BRANCH   4   6
ATOM      6  C   UNL     1       2.709   6.390  19.659  0.00  0.00    +0.000 A 
ATOM      7  C   UNL     1       2.347   5.242  20.362  0.00  0.00    +0.000 A 
ATOM      8  C   UNL     1       3.169   4.141  20.141  0.00  0.00    +0.000 A 
ATOM      9  N   UNL     1       3.179   2.859  20.611  0.00  0.00    +0.000 N 
ATOM     10  N   UNL     1       4.196   2.145  20.097  0.00  0.00    +0.000 NA
ATOM     11  N   UNL     1       4.871   2.947  19.279  0.00  0.00    +0.000 NA
ATOM     12  C   UNL     1       4.263   4.174  19.288  0.00  0.00    +0.000 A 
ATOM     13  C   UNL     1       4.556   5.360  18.620  0.00  0.00    +0.000 A 
ATOM     14  N   UNL     1       3.778   6.459  18.812  0.00  0.00    +0.000 NA
ATOM     15  H   UNL     1       2.549   2.409  21.264  0.00  0.00    +0.000 HD
ENDBRANCH   4   6
BRANCH   1  16
ATOM     16  C   UNL     1       0.614  10.811  18.836  0.00  0.00    +0.000 C 
BRANCH  16  21
ATOM     17 CL   UNL     1      -5.306  11.018  17.701  0.00  0.00    +0.000 Cl
ATOM     18  C   UNL     1      -3.611  10.990  17.994  0.00  0.00    +0.000 A 
ATOM     19  C   UNL     1      -2.809  10.065  17.331  0.00  0.00    +0.000 A 
ATOM     20  C   UNL     1      -1.437  10.022  17.588  0.00  0.00    +0.000 A 
ATOM     21  C   UNL     1      -0.857  10.900  18.516  0.00  0.00    +0.000 A 
ATOM     22  C   UNL     1      -1.675  11.846  19.156  0.00  0.00    +0.000 A 
ATOM     23  C   UNL     1      -3.049  11.887  18.900  0.00  0.00    +0.000 A 
ENDBRANCH  16  21
ENDBRANCH   1  16
TORSDOF 3
ENDMDL
