MODEL 1
REMARK VINA RESULT:      -8.5      0.000      0.000
REMARK  Name = 
REMARK  3 active torsions:
REMARK  status: ('A' for Active; 'I' for Inactive)
REMARK    1  A    between atoms: C_2  and  C_3
REMARK    2  A    between atoms: C_4  and  C_5
REMARK    3  A    between atoms: N_12  and  C_13
REMARK                            x       y       z     vdW  Elec       q    Type
REMARK                         _______ _______ _______ _____ _____    ______ ____
ROOT
ATOM      1  O   UNL     1       8.105   6.824  18.642  0.00  0.00    +0.000 OA
ATOM      2  C   UNL     1       7.665   7.687  17.893  0.00  0.00    +0.000 C 
ATOM      3  N   UNL     1       6.582   7.571  17.042  0.00  0.00    +0.000 N 
ATOM      4  H   UNL     1       6.417   8.314  16.372  0.00  0.00    +0.000 HD
ENDROOT
BRANCH   3   5
ATOM      5  C   UNL     1       5.666   6.493  17.002  0.00  0.00    +0.000 A 
ATOM      6  C   UNL     1       5.856   5.370  16.190  0.00  0.00    +0.000 A 
ATOM      7  C   UNL     1       4.961   4.299  16.222  0.00  0.00    +0.000 A 
ATOM      8  C   UNL     1       3.857   4.341  17.062  0.00  0.00    +0.000 A 
ATOM      9  C   UNL     1       3.654   5.452  17.886  0.00  0.00    +0.000 A 
ATOM     10  C   UNL     1       4.550   6.528  17.849  0.00  0.00    +0.000 A 
ATOM     11  O   UNL     1       2.591   5.552  18.751  0.00  0.00    +0.000 OA
ATOM     12  C   UNL     1       1.980   4.274  18.975  0.00  0.00    +0.000 C 
ATOM     13  C   UNL     1       1.777   3.527  17.668  0.00  0.00    +0.000 C 
ATOM     14  O   UNL     1       3.031   3.249  17.041  0.00  0.00    +0.000 OA
ENDBRANCH   3   5
BRANCH   2  15
ATOM     15  C   UNL     1       8.323   9.024  17.810  0.00  0.00    +0.000 C 
ATOM     16  C   UNL     1       8.912   9.544  18.897  0.00  0.00    +0.000 C 
BRANCH  16  17
ATOM     17  C   UNL     1       9.592  10.848  18.935  0.00  0.00    +0.000 A 
ATOM     18  C   UNL     1       9.615  11.713  17.829  0.00  0.00    +0.000 A 
ATOM     19  C   UNL     1      10.279  12.940  17.900  0.00  0.00    +0.000 A 
ATOM     20  C   UNL     1      10.905  13.315  19.080  0.00  0.00    +0.000 A 
ATOM     21  F   UNL     1      11.545  14.489  19.142  0.00  0.00    +0.000 F 
ATOM     22  C   UNL     1      10.870  12.491  20.197  0.00  0.00    +0.000 A 
ATOM     23  C   UNL     1      10.208  11.262  20.127  0.00  0.00    +0.000 A 
ENDBRANCH  16  17
ENDBRANCH   2  15
TORSDOF 3
ENDMDL
MODEL 2
REMARK VINA RESULT:      -8.3      0.670      1.077
REMARK  Name = 
REMARK  3 active torsions:
REMARK  status: ('A' for Active; 'I' for Inactive)
REMARK    1  A    between atoms: C_2  and  C_3
REMARK    2  A    between atoms: C_4  and  C_5
REMARK    3  A    between atoms: N_12  and  C_13
REMARK                            x       y       z     vdW  Elec       q    Type
REMARK                         _______ _______ _______ _____ _____    ______ ____
ROOT
ATOM      1  O   UNL     1       7.936   6.669  18.692  0.00  0.00    +0.000 OA
ATOM      2  C   UNL     1       7.613   7.414  17.776  0.00  0.00    +0.000 C 
ATOM      3  N   UNL     1       6.591   7.214  16.867  0.00  0.00    +0.000 N 
ATOM      4  H   UNL     1       6.527   7.839  16.072  0.00  0.00    +0.000 HD
ENDROOT
BRANCH   3   5
ATOM      5  C   UNL     1       5.609   6.196  16.929  0.00  0.00    +0.000 A 
ATOM      6  C   UNL     1       5.710   5.005  16.202  0.00  0.00    +0.000 A 
ATOM      7  C   UNL     1       4.751   3.999  16.334  0.00  0.00    +0.000 A 
ATOM      8  C   UNL     1       3.673   4.174  17.191  0.00  0.00    +0.000 A 
ATOM      9  C   UNL     1       3.559   5.354  17.931  0.00  0.00    +0.000 A 
ATOM     10  C   UNL     1       4.519   6.366  17.793  0.00  0.00    +0.000 A 
ATOM     11  O   UNL     1       2.527   5.587  18.807  0.00  0.00    +0.000 OA
ATOM     12  C   UNL     1       1.844   4.370  19.141  0.00  0.00    +0.000 C 
ATOM     13  C   UNL     1       1.562   3.541  17.899  0.00  0.00    +0.000 C 
ATOM     14  O   UNL     1       2.781   3.138  17.269  0.00  0.00    +0.000 OA
ENDBRANCH   3   5
BRANCH   2  15
ATOM     15  C   UNL     1       8.364   8.679  17.529  0.00  0.00    +0.000 C 
ATOM     16  C   UNL     1       8.629   9.506  18.552  0.00  0.00    +0.000 C 
BRANCH  16  17
ATOM     17  C   UNL     1       9.362  10.776  18.431  0.00  0.00    +0.000 A 
ATOM     18  C   UNL     1      10.708  10.903  18.814  0.00  0.00    +0.000 A 
ATOM     19  C   UNL     1      11.369  12.127  18.692  0.00  0.00    +0.000 A 
ATOM     20  C   UNL     1      10.695  13.222  18.171  0.00  0.00    +0.000 A 
ATOM     21  F   UNL     1      11.330  14.397  18.061  0.00  0.00    +0.000 F 
ATOM     22  C   UNL     1       9.374  13.114  17.756  0.00  0.00    +0.000 A 
ATOM     23  C   UNL     1       8.711  11.890  17.880  0.00  0.00    +0.000 A 
ENDBRANCH  16  17
ENDBRANCH   2  15
TORSDOF 3
ENDMDL
MODEL 3
REMARK VINA RESULT:      -8.3      1.496      1.572
REMARK  Name = 
REMARK  3 active torsions:
REMARK  status: ('A' for Active; 'I' for Inactive)
REMARK    1  A    between atoms: C_2  and  C_3
REMARK    2  A    between atoms: C_4  and  C_5
REMARK    3  A    between atoms: N_12  and  C_13
REMARK                            x       y       z     vdW  Elec       q    Type
REMARK                         _______ _______ _______ _____ _____    ______ ____
ROOT
ATOM      1  O   UNL     1       6.623   7.544  16.592  0.00  0.00    +0.000 OA
ATOM      2  C   UNL     1       7.094   7.296  17.695  0.00  0.00    +0.000 C 
ATOM      3  N   UNL     1       6.665   6.323  18.578  0.00  0.00    +0.000 N 
ATOM      4  H   UNL     1       7.050   6.324  19.515  0.00  0.00    +0.000 HD
ENDROOT
BRANCH   3   5
ATOM      5  C   UNL     1       5.714   5.311  18.304  0.00  0.00    +0.000 A 
ATOM      6  C   UNL     1       5.747   4.541  17.137  0.00  0.00    +0.000 A 
ATOM      7  C   UNL     1       4.828   3.511  16.929  0.00  0.00    +0.000 A 
ATOM      8  C   UNL     1       3.856   3.243  17.884  0.00  0.00    +0.000 A 
ATOM      9  C   UNL     1       3.812   3.998  19.060  0.00  0.00    +0.000 A 
ATOM     10  C   UNL     1       4.732   5.035  19.264  0.00  0.00    +0.000 A 
ATOM     11  O   UNL     1       2.888   3.777  20.051  0.00  0.00    +0.000 OA
ATOM     12  C   UNL     1       2.269   2.490  19.909  0.00  0.00    +0.000 C 
ATOM     13  C   UNL     1       1.856   2.238  18.469  0.00  0.00    +0.000 C 
ATOM     14  O   UNL     1       2.997   2.213  17.609  0.00  0.00    +0.000 OA
ENDBRANCH   3   5
BRANCH   2  15
ATOM     15  C   UNL     1       8.234   8.097  18.228  0.00  0.00    +0.000 C 
ATOM     16  C   UNL     1       8.227   9.432  18.098  0.00  0.00    +0.000 C 
BRANCH  16  17
ATOM     17  C   UNL     1       9.292  10.324  18.585  0.00  0.00    +0.000 A 
ATOM     18  C   UNL     1      10.194  10.958  17.715  0.00  0.00    +0.000 A 
ATOM     19  C   UNL     1      11.197  11.791  18.214  0.00  0.00    +0.000 A 
ATOM     20  C   UNL     1      11.291  12.009  19.582  0.00  0.00    +0.000 A 
ATOM     21  F   UNL     1      12.259  12.804  20.057  0.00  0.00    +0.000 F 
ATOM     22  C   UNL     1      10.392  11.419  20.460  0.00  0.00    +0.000 A 
ATOM     23  C   UNL     1       9.389  10.583  19.961  0.00  0.00    +0.000 A 
ENDBRANCH  16  17
ENDBRANCH   2  15
TORSDOF 3
ENDMDL
MODEL 4
REMARK VINA RESULT:      -8.1      1.317      1.774
REMARK  Name = 
REMARK  3 active torsions:
REMARK  status: ('A' for Active; 'I' for Inactive)
REMARK    1  A    between atoms: C_2  and  C_3
REMARK    2  A    between atoms: C_4  and  C_5
REMARK    3  A    between atoms: N_12  and  C_13
REMARK                            x       y       z     vdW  Elec       q    Type
REMARK                         _______ _______ _______ _____ _____    ______ ____
ROOT
ATOM      1  O   UNL     1       7.540   6.389  16.424  0.00  0.00    +0.000 OA
ATOM      2  C   UNL     1       7.317   6.832  17.544  0.00  0.00    +0.000 C 
ATOM      3  N   UNL     1       6.209   6.577  18.330  0.00  0.00    +0.000 N 
ATOM      4  H   UNL     1       6.084   7.125  19.173  0.00  0.00    +0.000 HD
ENDROOT
BRANCH   3   5
ATOM      5  C   UNL     1       5.205   5.615  18.066  0.00  0.00    +0.000 A 
ATOM      6  C   UNL     1       4.963   5.109  16.784  0.00  0.00    +0.000 A 
ATOM      7  C   UNL     1       4.003   4.117  16.573  0.00  0.00    +0.000 A 
ATOM      8  C   UNL     1       3.265   3.625  17.640  0.00  0.00    +0.000 A 
ATOM      9  C   UNL     1       3.497   4.114  18.929  0.00  0.00    +0.000 A 
ATOM     10  C   UNL     1       4.457   5.113  19.139  0.00  0.00    +0.000 A 
ATOM     11  O   UNL     1       2.814   3.662  20.031  0.00  0.00    +0.000 OA
ATOM     12  C   UNL     1       2.157   2.415  19.761  0.00  0.00    +0.000 C 
ATOM     13  C   UNL     1       1.429   2.457  18.429  0.00  0.00    +0.000 C 
ATOM     14  O   UNL     1       2.349   2.650  17.351  0.00  0.00    +0.000 OA
ENDBRANCH   3   5
BRANCH   2  15
ATOM     15  C   UNL     1       8.279   7.773  18.189  0.00  0.00    +0.000 C 
ATOM     16  C   UNL     1       8.152   9.094  17.990  0.00  0.00    +0.000 C 
BRANCH  16  17
ATOM     17  C   UNL     1       9.036  10.114  18.575  0.00  0.00    +0.000 A 
ATOM     18  C   UNL     1       9.136  10.313  19.962  0.00  0.00    +0.000 A 
ATOM     19  C   UNL     1       9.980  11.298  20.480  0.00  0.00    +0.000 A 
ATOM     20  C   UNL     1      10.741  12.074  19.617  0.00  0.00    +0.000 A 
ATOM     21  F   UNL     1      11.544  13.021  20.117  0.00  0.00    +0.000 F 
ATOM     22  C   UNL     1      10.684  11.875  18.244  0.00  0.00    +0.000 A 
ATOM     23  C   UNL     1       9.837  10.892  17.724  0.00  0.00    +0.000 A 
ENDBRANCH  16  17
ENDBRANCH   2  15
TORSDOF 3
ENDMDL
MODEL 5
REMARK VINA RESULT:      -8.1      1.005      1.008
REMARK  Name = 
REMARK  3 active torsions:
REMARK  status: ('A' for Active; 'I' for Inactive)
REMARK    1  A    between atoms: C_2  and  C_3
REMARK    2  A    between atoms: C_4  and  C_5
REMARK    3  A    between atoms: N_12  and  C_13
REMARK                            x       y       z     vdW  Elec       q    Type
REMARK                         _______ _______ _______ _____ _____    ______ ____
ROOT
ATOM      1  O   UNL     1       8.291   7.088  18.699  0.00  0.00    +0.000 OA
ATOM      2  C   UNL     1       7.739   7.842  17.908  0.00  0.00    +0.000 C 
ATOM      3  N   UNL     1       6.683   7.535  17.071  0.00  0.00    +0.000 N 
ATOM      4  H   UNL     1       6.420   8.212  16.363  0.00  0.00    +0.000 HD
ENDROOT
BRANCH   3   5
ATOM      5  C   UNL     1       5.922   6.342  17.093  0.00  0.00    +0.000 A 
ATOM      6  C   UNL     1       5.900   5.440  16.024  0.00  0.00    +0.000 A 
ATOM      7  C   UNL     1       5.184   4.245  16.107  0.00  0.00    +0.000 A 
ATOM      8  C   UNL     1       4.473   3.938  17.259  0.00  0.00    +0.000 A 
ATOM      9  C   UNL     1       4.488   4.824  18.340  0.00  0.00    +0.000 A 
ATOM     10  C   UNL     1       5.203   6.026  18.254  0.00  0.00    +0.000 A 
ATOM     11  O   UNL     1       3.819   4.577  19.513  0.00  0.00    +0.000 OA
ATOM     12  C   UNL     1       3.456   3.194  19.625  0.00  0.00    +0.000 C 
ATOM     13  C   UNL     1       2.852   2.680  18.329  0.00  0.00    +0.000 C 
ATOM     14  O   UNL     1       3.803   2.744  17.264  0.00  0.00    +0.000 OA
ENDBRANCH   3   5
BRANCH   2  15
ATOM     15  C   UNL     1       8.210   9.249  17.751  0.00  0.00    +0.000 C 
ATOM     16  C   UNL     1       9.054   9.773  18.652  0.00  0.00    +0.000 C 
BRANCH  16  17
ATOM     17  C   UNL     1       9.586  11.144  18.600  0.00  0.00    +0.000 A 
ATOM     18  C   UNL     1      10.581  11.527  17.685  0.00  0.00    +0.000 A 
ATOM     19  C   UNL     1      11.067  12.836  17.671  0.00  0.00    +0.000 A 
ATOM     20  C   UNL     1      10.550  13.770  18.556  0.00  0.00    +0.000 A 
ATOM     21  F   UNL     1      11.023  15.023  18.543  0.00  0.00    +0.000 F 
ATOM     22  C   UNL     1       9.544  13.425  19.449  0.00  0.00    +0.000 A 
ATOM     23  C   UNL     1       9.058  12.114  19.466  0.00  0.00    +0.000 A 
ENDBRANCH  16  17
ENDBRANCH   2  15
TORSDOF 3
ENDMDL
MODEL 6
REMARK VINA RESULT:      -8.0      1.384      1.814
REMARK  Name = 
REMARK  3 active torsions:
REMARK  status: ('A' for Active; 'I' for Inactive)
REMARK    1  A    between atoms: C_2  and  C_3
REMARK    2  A    between atoms: C_4  and  C_5
REMARK    3  A    between atoms: N_12  and  C_13
REMARK                            x       y       z     vdW  Elec       q    Type
REMARK                         _______ _______ _______ _____ _____    ______ ____
ROOT
ATOM      1  O   UNL     1       7.654   6.416  16.441  0.00  0.00    +0.000 OA
ATOM      2  C   UNL     1       7.276   7.216  17.289  0.00  0.00    +0.000 C 
ATOM      3  N   UNL     1       6.206   7.065  18.151  0.00  0.00    +0.000 N 
ATOM      4  H   UNL     1       5.917   7.866  18.700  0.00  0.00    +0.000 HD
ENDROOT
BRANCH   3   5
ATOM      5  C   UNL     1       5.449   5.884  18.340  0.00  0.00    +0.000 A 
ATOM      6  C   UNL     1       5.938   4.779  19.044  0.00  0.00    +0.000 A 
ATOM      7  C   UNL     1       5.140   3.654  19.261  0.00  0.00    +0.000 A 
ATOM      8  C   UNL     1       3.842   3.617  18.768  0.00  0.00    +0.000 A 
ATOM      9  C   UNL     1       3.335   4.714  18.067  0.00  0.00    +0.000 A 
ATOM     10  C   UNL     1       4.139   5.840  17.845  0.00  0.00    +0.000 A 
ATOM     11  O   UNL     1       2.057   4.750  17.564  0.00  0.00    +0.000 OA
ATOM     12  C   UNL     1       1.233   3.740  18.164  0.00  0.00    +0.000 C 
ATOM     13  C   UNL     1       1.953   2.403  18.210  0.00  0.00    +0.000 C 
ATOM     14  O   UNL     1       3.122   2.482  19.028  0.00  0.00    +0.000 OA
ENDBRANCH   3   5
BRANCH   2  15
ATOM     15  C   UNL     1       7.974   8.524  17.459  0.00  0.00    +0.000 C 
ATOM     16  C   UNL     1       8.459   8.868  18.661  0.00  0.00    +0.000 C 
BRANCH  16  17
ATOM     17  C   UNL     1       9.165  10.127  18.947  0.00  0.00    +0.000 A 
ATOM     18  C   UNL     1       9.461  10.539  20.257  0.00  0.00    +0.000 A 
ATOM     19  C   UNL     1      10.125  11.745  20.490  0.00  0.00    +0.000 A 
ATOM     20  C   UNL     1      10.513  12.533  19.416  0.00  0.00    +0.000 A 
ATOM     21  F   UNL     1      11.145  13.693  19.644  0.00  0.00    +0.000 F 
ATOM     22  C   UNL     1      10.260  12.133  18.111  0.00  0.00    +0.000 A 
ATOM     23  C   UNL     1       9.593  10.928  17.877  0.00  0.00    +0.000 A 
ENDBRANCH  16  17
ENDBRANCH   2  15
TORSDOF 3
ENDMDL
MODEL 7
REMARK VINA RESULT:      -7.9      1.357      1.462
REMARK  Name = 
REMARK  3 active torsions:
REMARK  status: ('A' for Active; 'I' for Inactive)
REMARK    1  A    between atoms: C_2  and  C_3
REMARK    2  A    between atoms: C_4  and  C_5
REMARK    3  A    between atoms: N_12  and  C_13
REMARK                            x       y       z     vdW  Elec       q    Type
REMARK                         _______ _______ _______ _____ _____    ______ ____
ROOT
ATOM      1  O   UNL     1       7.651   6.519  16.300  0.00  0.00    +0.000 OA
ATOM      2  C   UNL     1       7.319   7.293  17.190  0.00  0.00    +0.000 C 
ATOM      3  N   UNL     1       6.285   7.123  18.091  0.00  0.00    +0.000 N 
ATOM      4  H   UNL     1       6.029   7.908  18.679  0.00  0.00    +0.000 HD
ENDROOT
BRANCH   3   5
ATOM      5  C   UNL     1       5.524   5.944  18.273  0.00  0.00    +0.000 A 
ATOM      6  C   UNL     1       6.024   4.817  18.932  0.00  0.00    +0.000 A 
ATOM      7  C   UNL     1       5.223   3.693  19.144  0.00  0.00    +0.000 A 
ATOM      8  C   UNL     1       3.911   3.679  18.691  0.00  0.00    +0.000 A 
ATOM      9  C   UNL     1       3.391   4.799  18.036  0.00  0.00    +0.000 A 
ATOM     10  C   UNL     1       4.198   5.924  17.818  0.00  0.00    +0.000 A 
ATOM     11  O   UNL     1       2.099   4.858  17.575  0.00  0.00    +0.000 OA
ATOM     12  C   UNL     1       1.286   3.839  18.173  0.00  0.00    +0.000 C 
ATOM     13  C   UNL     1       1.994   2.495  18.162  0.00  0.00    +0.000 C 
ATOM     14  O   UNL     1       3.189   2.544  18.944  0.00  0.00    +0.000 OA
ENDBRANCH   3   5
BRANCH   2  15
ATOM     15  C   UNL     1       8.038   8.588  17.373  0.00  0.00    +0.000 C 
ATOM     16  C   UNL     1       8.461   8.947  18.594  0.00  0.00    +0.000 C 
BRANCH  16  17
ATOM     17  C   UNL     1       9.181  10.194  18.895  0.00  0.00    +0.000 A 
ATOM     18  C   UNL     1       9.587  11.086  17.888  0.00  0.00    +0.000 A 
ATOM     19  C   UNL     1      10.276  12.257  18.212  0.00  0.00    +0.000 A 
ATOM     20  C   UNL     1      10.544  12.551  19.541  0.00  0.00    +0.000 A 
ATOM     21  F   UNL     1      11.210  13.672  19.847  0.00  0.00    +0.000 F 
ATOM     22  C   UNL     1      10.125  11.702  20.556  0.00  0.00    +0.000 A 
ATOM     23  C   UNL     1       9.438  10.528  20.234  0.00  0.00    +0.000 A 
ENDBRANCH  16  17
ENDBRANCH   2  15
TORSDOF 3
ENDMDL
MODEL 8
REMARK VINA RESULT:      -7.9      1.611      2.046
REMARK  Name = 
REMARK  3 active torsions:
REMARK  status: ('A' for Active; 'I' for Inactive)
REMARK    1  A    between atoms: C_2  and  C_3
REMARK    2  A    between atoms: C_4  and  C_5
REMARK    3  A    between atoms: N_12  and  C_13
REMARK                            x       y       z     vdW  Elec       q    Type
REMARK                         _______ _______ _______ _____ _____    ______ ____
ROOT
ATOM      1  O   UNL     1       7.691   6.541  16.411  0.00  0.00    +0.000 OA
ATOM      2  C   UNL     1       7.474   7.068  17.496  0.00  0.00    +0.000 C 
ATOM      3  N   UNL     1       6.407   6.821  18.338  0.00  0.00    +0.000 N 
ATOM      4  H   UNL     1       6.273   7.433  19.134  0.00  0.00    +0.000 HD
ENDROOT
BRANCH   3   5
ATOM      5  C   UNL     1       5.454   5.785  18.192  0.00  0.00    +0.000 A 
ATOM      6  C   UNL     1       4.491   5.782  17.177  0.00  0.00    +0.000 A 
ATOM      7  C   UNL     1       3.605   4.713  17.029  0.00  0.00    +0.000 A 
ATOM      8  C   UNL     1       3.665   3.635  17.901  0.00  0.00    +0.000 A 
ATOM      9  C   UNL     1       4.625   3.617  18.917  0.00  0.00    +0.000 A 
ATOM     10  C   UNL     1       5.509   4.693  19.068  0.00  0.00    +0.000 A 
ATOM     11  O   UNL     1       4.749   2.576  19.805  0.00  0.00    +0.000 OA
ATOM     12  C   UNL     1       4.071   1.404  19.331  0.00  0.00    +0.000 C 
ATOM     13  C   UNL     1       2.686   1.745  18.810  0.00  0.00    +0.000 C 
ATOM     14  O   UNL     1       2.767   2.624  17.686  0.00  0.00    +0.000 OA
ENDBRANCH   3   5
BRANCH   2  15
ATOM     15  C   UNL     1       8.396   8.115  18.025  0.00  0.00    +0.000 C 
ATOM     16  C   UNL     1       8.036   9.406  17.975  0.00  0.00    +0.000 C 
BRANCH  16  17
ATOM     17  C   UNL     1       8.858  10.522  18.467  0.00  0.00    +0.000 A 
ATOM     18  C   UNL     1       9.571  10.452  19.676  0.00  0.00    +0.000 A 
ATOM     19  C   UNL     1      10.335  11.535  20.114  0.00  0.00    +0.000 A 
ATOM     20  C   UNL     1      10.406  12.684  19.339  0.00  0.00    +0.000 A 
ATOM     21  F   UNL     1      11.135  13.723  19.767  0.00  0.00    +0.000 F 
ATOM     22  C   UNL     1       9.736  12.767  18.126  0.00  0.00    +0.000 A 
ATOM     23  C   UNL     1       8.969  11.684  17.687  0.00  0.00    +0.000 A 
ENDBRANCH  16  17
ENDBRANCH   2  15
TORSDOF 3
ENDMDL
MODEL 9
REMARK VINA RESULT:      -7.8      1.439      1.870
REMARK  Name = 
REMARK  3 active torsions:
REMARK  status: ('A' for Active; 'I' for Inactive)
REMARK    1  A    between atoms: C_2  and  C_3
REMARK    2  A    between atoms: C_4  and  C_5
REMARK    3  A    between atoms: N_12  and  C_13
REMARK                            x       y       z     vdW  Elec       q    Type
REMARK                         _______ _______ _______ _____ _____    ______ ____
ROOT
ATOM      1  O   UNL     1       7.343   6.389  16.322  0.00  0.00    +0.000 OA
ATOM      2  C   UNL     1       7.253   7.034  17.360  0.00  0.00    +0.000 C 
ATOM      3  N   UNL     1       6.186   7.046  18.237  0.00  0.00    +0.000 N 
ATOM      4  H   UNL     1       6.183   7.735  18.979  0.00  0.00    +0.000 HD
ENDROOT
BRANCH   3   5
ATOM      5  C   UNL     1       5.065   6.181  18.197  0.00  0.00    +0.000 A 
ATOM      6  C   UNL     1       3.788   6.618  17.829  0.00  0.00    +0.000 A 
ATOM      7  C   UNL     1       2.720   5.723  17.744  0.00  0.00    +0.000 A 
ATOM      8  C   UNL     1       2.913   4.380  18.035  0.00  0.00    +0.000 A 
ATOM      9  C   UNL     1       4.183   3.924  18.398  0.00  0.00    +0.000 A 
ATOM     10  C   UNL     1       5.254   4.824  18.488  0.00  0.00    +0.000 A 
ATOM     11  O   UNL     1       4.448   2.608  18.685  0.00  0.00    +0.000 OA
ATOM     12  C   UNL     1       3.404   1.749  18.202  0.00  0.00    +0.000 C 
ATOM     13  C   UNL     1       2.034   2.303  18.554  0.00  0.00    +0.000 C 
ATOM     14  O   UNL     1       1.817   3.566  17.922  0.00  0.00    +0.000 OA
ENDBRANCH   3   5
BRANCH   2  15
ATOM     15  C   UNL     1       8.357   7.945  17.781  0.00  0.00    +0.000 C 
ATOM     16  C   UNL     1       8.075   9.204  18.149  0.00  0.00    +0.000 C 
BRANCH  16  17
ATOM     17  C   UNL     1       9.077  10.190  18.585  0.00  0.00    +0.000 A 
ATOM     18  C   UNL     1       9.850  10.926  17.671  0.00  0.00    +0.000 A 
ATOM     19  C   UNL     1      10.798  11.847  18.123  0.00  0.00    +0.000 A 
ATOM     20  C   UNL     1      10.962  12.051  19.485  0.00  0.00    +0.000 A 
ATOM     21  F   UNL     1      11.876  12.932  19.914  0.00  0.00    +0.000 F 
ATOM     22  C   UNL     1      10.188  11.360  20.407  0.00  0.00    +0.000 A 
ATOM     23  C   UNL     1       9.241  10.435  19.957  0.00  0.00    +0.000 A 
ENDBRANCH  16  17
ENDBRANCH   2  15
TORSDOF 3
ENDMDL
