MODEL 1
REMARK VINA RESULT:      -9.1      0.000      0.000
REMARK  Name = 
REMARK  6 active torsions:
REMARK  status: ('A' for Active; 'I' for Inactive)
REMARK    1  A    between atoms: C_1  and  C_2
REMARK    2  A    between atoms: C_2  and  N_3
REMARK    3  A    between atoms: N_3  and  C_4
REMARK    4  A    between atoms: C_4  and  C_5
REMARK    5  A    between atoms: C_9  and  C_10
REMARK    6  A    between atoms: C_16  and  C_17
REMARK                            x       y       z     vdW  Elec       q    Type
REMARK                         _______ _______ _______ _____ _____    ______ ____
ROOT
ATOM      1  C   UNL     1       6.105   4.654  15.831  0.00  0.00    +0.000 A 
ATOM      2  C   UNL     1       7.078   4.555  16.848  0.00  0.00    +0.000 A 
ATOM      3  N   UNL     1       6.838   4.371  18.170  0.00  0.00    +0.000 NA
ATOM      4  C   UNL     1       5.544   4.368  18.493  0.00  0.00    +0.000 A 
ATOM      5  C   UNL     1       4.519   4.642  17.620  0.00  0.00    +0.000 A 
ATOM      6  C   UNL     1       4.770   4.766  16.261  0.00  0.00    +0.000 A 
ATOM      7  C   UNL     1       3.306   4.610  18.472  0.00  0.00    +0.000 C 
ATOM      8  N   UNL     1       3.816   3.867  19.682  0.00  0.00    +0.000 NA
ATOM      9  N   UNL     1       5.086   3.901  19.733  0.00  0.00    +0.000 NA
ENDROOT
BRANCH   7  10
ATOM     10  C   UNL     1       2.879   5.972  18.962  0.00  0.00    +0.000 A 
ATOM     11  N   UNL     1       2.428   6.320  20.154  0.00  0.00    +0.000 NA
ATOM     12  C   UNL     1       1.907   7.585  19.997  0.00  0.00    +0.000 A 
ATOM     13  C   UNL     1       1.153   8.365  20.884  0.00  0.00    +0.000 A 
ATOM     14  C   UNL     1       0.687   9.600  20.430  0.00  0.00    +0.000 A 
ATOM     15  F   UNL     1      -0.120  10.320  21.222  0.00  0.00    +0.000 F 
ATOM     16  C   UNL     1       1.010  10.098  19.170  0.00  0.00    +0.000 A 
ATOM     17  C   UNL     1       1.775   9.342  18.278  0.00  0.00    +0.000 A 
ATOM     18  C   UNL     1       2.162   8.076  18.721  0.00  0.00    +0.000 A 
ATOM     19  N   UNL     1       2.762   7.028  18.080  0.00  0.00    +0.000 N 
ATOM     20  H   UNL     1       2.913   6.955  17.083  0.00  0.00    +0.000 HD
ENDBRANCH   7  10
BRANCH   1  25
ATOM     21  C   UNL     1       6.018   3.587  12.173  0.00  0.00    +0.000 A 
ATOM     22  C   UNL     1       7.120   4.289  11.713  0.00  0.00    +0.000 A 
ATOM     23  N   UNL     1       7.911   5.052  12.502  0.00  0.00    +0.000 NA
ATOM     24  C   UNL     1       7.583   5.139  13.817  0.00  0.00    +0.000 A 
ATOM     25  C   UNL     1       6.500   4.494  14.411  0.00  0.00    +0.000 A 
ATOM     26  C   UNL     1       5.722   3.708  13.538  0.00  0.00    +0.000 A 
BRANCH  21  27
ATOM     27  C   UNL     1       5.184   2.718  11.267  0.00  0.00    +0.000 C 
BRANCH  27  28
ATOM     28  N   UNL     1       3.754   3.001  11.411  0.00  0.00    +0.000 NA
ATOM     29  H   UNL     1       3.328   2.319  12.035  0.00  0.00    +0.000 HD
BRANCH  28  31
ATOM     30  C   UNL     1       2.957   4.370   9.560  0.00  0.00    +0.000 C 
ATOM     31  C   UNL     1       3.067   2.959  10.121  0.00  0.00    +0.000 C 
ENDBRANCH  28  31
ENDBRANCH  27  28
ENDBRANCH  21  27
ENDBRANCH   1  25
TORSDOF 5
ENDMDL
MODEL 2
REMARK VINA RESULT:      -9.0      3.214      8.543
REMARK  Name = 
REMARK  6 active torsions:
REMARK  status: ('A' for Active; 'I' for Inactive)
REMARK    1  A    between atoms: C_1  and  C_2
REMARK    2  A    between atoms: C_2  and  N_3
REMARK    3  A    between atoms: N_3  and  C_4
REMARK    4  A    between atoms: C_4  and  C_5
REMARK    5  A    between atoms: C_9  and  C_10
REMARK    6  A    between atoms: C_16  and  C_17
REMARK                            x       y       z     vdW  Elec       q    Type
REMARK                         _______ _______ _______ _____ _____    ______ ____
ROOT
ATOM      1  C   UNL     1       2.879   6.674  19.315  0.00  0.00    +0.000 A 
ATOM      2  C   UNL     1       2.744   5.334  19.735  0.00  0.00    +0.000 A 
ATOM      3  N   UNL     1       3.672   4.354  19.598  0.00  0.00    +0.000 NA
ATOM      4  C   UNL     1       4.762   4.728  18.927  0.00  0.00    +0.000 A 
ATOM      5  C   UNL     1       4.922   5.945  18.310  0.00  0.00    +0.000 A 
ATOM      6  C   UNL     1       3.997   6.960  18.510  0.00  0.00    +0.000 A 
ATOM      7  C   UNL     1       6.236   5.831  17.631  0.00  0.00    +0.000 C 
ATOM      8  N   UNL     1       6.841   4.655  18.356  0.00  0.00    +0.000 NA
ATOM      9  N   UNL     1       5.941   3.970  18.939  0.00  0.00    +0.000 NA
ENDROOT
BRANCH   7  10
ATOM     10  C   UNL     1       6.131   5.424  16.183  0.00  0.00    +0.000 A 
ATOM     11  N   UNL     1       5.188   4.718  15.586  0.00  0.00    +0.000 NA
ATOM     12  C   UNL     1       5.704   4.377  14.355  0.00  0.00    +0.000 A 
ATOM     13  C   UNL     1       5.208   3.498  13.383  0.00  0.00    +0.000 A 
ATOM     14  C   UNL     1       5.984   3.283  12.243  0.00  0.00    +0.000 A 
ATOM     15  F   UNL     1       5.582   2.373  11.345  0.00  0.00    +0.000 F 
ATOM     16  C   UNL     1       7.179   3.964  12.019  0.00  0.00    +0.000 A 
ATOM     17  C   UNL     1       7.680   4.857  12.970  0.00  0.00    +0.000 A 
ATOM     18  C   UNL     1       6.930   4.996  14.139  0.00  0.00    +0.000 A 
ATOM     19  N   UNL     1       7.187   5.638  15.318  0.00  0.00    +0.000 N 
ATOM     20  H   UNL     1       8.076   6.032  15.593  0.00  0.00    +0.000 HD
ENDBRANCH   7  10
BRANCH   1  25
ATOM     21  C   UNL     1       0.593   9.720  19.435  0.00  0.00    +0.000 A 
ATOM     22  C   UNL     1       0.116   9.587  20.729  0.00  0.00    +0.000 A 
ATOM     23  N   UNL     1       0.504   8.608  21.578  0.00  0.00    +0.000 NA
ATOM     24  C   UNL     1       1.402   7.699  21.115  0.00  0.00    +0.000 A 
ATOM     25  C   UNL     1       1.956   7.710  19.837  0.00  0.00    +0.000 A 
ATOM     26  C   UNL     1       1.518   8.760  19.006  0.00  0.00    +0.000 A 
BRANCH  21  27
ATOM     27  C   UNL     1       0.162  10.848  18.533  0.00  0.00    +0.000 C 
BRANCH  27  28
ATOM     28  N   UNL     1      -0.777  10.392  17.506  0.00  0.00    +0.000 NA
ATOM     29  H   UNL     1      -0.488  10.742  16.594  0.00  0.00    +0.000 HD
BRANCH  28  31
ATOM     30  C   UNL     1      -3.134   9.866  17.188  0.00  0.00    +0.000 C 
ATOM     31  C   UNL     1      -2.137  10.852  17.781  0.00  0.00    +0.000 C 
ENDBRANCH  28  31
ENDBRANCH  27  28
ENDBRANCH  21  27
ENDBRANCH   1  25
TORSDOF 5
ENDMDL
MODEL 3
REMARK VINA RESULT:      -8.9      3.339      9.306
REMARK  Name = 
REMARK  6 active torsions:
REMARK  status: ('A' for Active; 'I' for Inactive)
REMARK    1  A    between atoms: C_1  and  C_2
REMARK    2  A    between atoms: C_2  and  N_3
REMARK    3  A    between atoms: N_3  and  C_4
REMARK    4  A    between atoms: C_4  and  C_5
REMARK    5  A    between atoms: C_9  and  C_10
REMARK    6  A    between atoms: C_16  and  C_17
REMARK                            x       y       z     vdW  Elec       q    Type
REMARK                         _______ _______ _______ _____ _____    ______ ____
ROOT
ATOM      1  C   UNL     1       2.845   7.020  18.771  0.00  0.00    +0.000 A 
ATOM      2  C   UNL     1       2.695   5.723  19.305  0.00  0.00    +0.000 A 
ATOM      3  N   UNL     1       3.616   4.728  19.264  0.00  0.00    +0.000 NA
ATOM      4  C   UNL     1       4.717   5.034  18.574  0.00  0.00    +0.000 A 
ATOM      5  C   UNL     1       4.892   6.192  17.856  0.00  0.00    +0.000 A 
ATOM      6  C   UNL     1       3.974   7.226  17.956  0.00  0.00    +0.000 A 
ATOM      7  C   UNL     1       6.212   6.010  17.204  0.00  0.00    +0.000 C 
ATOM      8  N   UNL     1       6.800   4.897  18.035  0.00  0.00    +0.000 NA
ATOM      9  N   UNL     1       5.889   4.271  18.666  0.00  0.00    +0.000 NA
ENDROOT
BRANCH   7  10
ATOM     10  C   UNL     1       6.119   5.479  15.795  0.00  0.00    +0.000 A 
ATOM     11  N   UNL     1       5.173   4.735  15.250  0.00  0.00    +0.000 NA
ATOM     12  C   UNL     1       5.698   4.281  14.061  0.00  0.00    +0.000 A 
ATOM     13  C   UNL     1       5.201   3.327  13.163  0.00  0.00    +0.000 A 
ATOM     14  C   UNL     1       5.988   3.002  12.057  0.00  0.00    +0.000 A 
ATOM     15  F   UNL     1       5.583   2.022  11.237  0.00  0.00    +0.000 F 
ATOM     16  C   UNL     1       7.196   3.645  11.790  0.00  0.00    +0.000 A 
ATOM     17  C   UNL     1       7.699   4.610  12.665  0.00  0.00    +0.000 A 
ATOM     18  C   UNL     1       6.936   4.862  13.807  0.00  0.00    +0.000 A 
ATOM     19  N   UNL     1       7.188   5.601  14.929  0.00  0.00    +0.000 N 
ATOM     20  H   UNL     1       8.080   6.005  15.181  0.00  0.00    +0.000 HD
ENDBRANCH   7  10
BRANCH   1  25
ATOM     21  C   UNL     1       0.636   9.207  20.975  0.00  0.00    +0.000 A 
ATOM     22  C   UNL     1       0.322  10.197  20.058  0.00  0.00    +0.000 A 
ATOM     23  N   UNL     1       0.741  10.194  18.772  0.00  0.00    +0.000 NA
ATOM     24  C   UNL     1       1.528   9.160  18.374  0.00  0.00    +0.000 A 
ATOM     25  C   UNL     1       1.925   8.104  19.191  0.00  0.00    +0.000 A 
ATOM     26  C   UNL     1       1.448   8.162  20.516  0.00  0.00    +0.000 A 
BRANCH  21  27
ATOM     27  C   UNL     1       0.118   9.230  22.390  0.00  0.00    +0.000 C 
BRANCH  27  28
ATOM     28  N   UNL     1      -0.008  10.597  22.899  0.00  0.00    +0.000 NA
ATOM     29  H   UNL     1       0.563  10.708  23.736  0.00  0.00    +0.000 HD
BRANCH  28  31
ATOM     30  C   UNL     1      -1.666  12.381  22.877  0.00  0.00    +0.000 C 
ATOM     31  C   UNL     1      -1.395  10.923  23.224  0.00  0.00    +0.000 C 
ENDBRANCH  28  31
ENDBRANCH  27  28
ENDBRANCH  21  27
ENDBRANCH   1  25
TORSDOF 5
ENDMDL
MODEL 4
REMARK VINA RESULT:      -8.8      1.028      1.505
REMARK  Name = 
REMARK  6 active torsions:
REMARK  status: ('A' for Active; 'I' for Inactive)
REMARK    1  A    between atoms: C_1  and  C_2
REMARK    2  A    between atoms: C_2  and  N_3
REMARK    3  A    between atoms: N_3  and  C_4
REMARK    4  A    between atoms: C_4  and  C_5
REMARK    5  A    between atoms: C_9  and  C_10
REMARK    6  A    between atoms: C_16  and  C_17
REMARK                            x       y       z     vdW  Elec       q    Type
REMARK                         _______ _______ _______ _____ _____    ______ ____
ROOT
ATOM      1  C   UNL     1       6.221   4.822  15.972  0.00  0.00    +0.000 A 
ATOM      2  C   UNL     1       7.133   4.656  17.035  0.00  0.00    +0.000 A 
ATOM      3  N   UNL     1       6.817   4.400  18.329  0.00  0.00    +0.000 NA
ATOM      4  C   UNL     1       5.506   4.393  18.577  0.00  0.00    +0.000 A 
ATOM      5  C   UNL     1       4.535   4.726  17.664  0.00  0.00    +0.000 A 
ATOM      6  C   UNL     1       4.864   4.924  16.331  0.00  0.00    +0.000 A 
ATOM      7  C   UNL     1       3.275   4.659  18.443  0.00  0.00    +0.000 C 
ATOM      8  N   UNL     1       3.709   3.843  19.636  0.00  0.00    +0.000 NA
ATOM      9  N   UNL     1       4.975   3.861  19.761  0.00  0.00    +0.000 NA
ENDROOT
BRANCH   7  10
ATOM     10  C   UNL     1       2.831   5.994  18.986  0.00  0.00    +0.000 A 
ATOM     11  N   UNL     1       2.421   6.300  20.203  0.00  0.00    +0.000 NA
ATOM     12  C   UNL     1       1.858   7.553  20.101  0.00  0.00    +0.000 A 
ATOM     13  C   UNL     1       1.120   8.288  21.038  0.00  0.00    +0.000 A 
ATOM     14  C   UNL     1       0.600   9.519  20.636  0.00  0.00    +0.000 A 
ATOM     15  F   UNL     1      -0.192  10.196  21.479  0.00  0.00    +0.000 F 
ATOM     16  C   UNL     1       0.855  10.057  19.376  0.00  0.00    +0.000 A 
ATOM     17  C   UNL     1       1.602   9.346  18.434  0.00  0.00    +0.000 A 
ATOM     18  C   UNL     1       2.044   8.082  18.828  0.00  0.00    +0.000 A 
ATOM     19  N   UNL     1       2.646   7.068  18.136  0.00  0.00    +0.000 N 
ATOM     20  H   UNL     1       2.756   7.024  17.132  0.00  0.00    +0.000 HD
ENDBRANCH   7  10
BRANCH   1  25
ATOM     21  C   UNL     1       6.432   3.818  12.302  0.00  0.00    +0.000 A 
ATOM     22  C   UNL     1       7.455   4.662  11.901  0.00  0.00    +0.000 A 
ATOM     23  N   UNL     1       8.107   5.504  12.734  0.00  0.00    +0.000 NA
ATOM     24  C   UNL     1       7.712   5.527  14.034  0.00  0.00    +0.000 A 
ATOM     25  C   UNL     1       6.695   4.739  14.570  0.00  0.00    +0.000 A 
ATOM     26  C   UNL     1       6.063   3.876  13.652  0.00  0.00    +0.000 A 
BRANCH  21  27
ATOM     27  C   UNL     1       5.756   2.866  11.348  0.00  0.00    +0.000 C 
BRANCH  27  28
ATOM     28  N   UNL     1       5.729   1.500  11.875  0.00  0.00    +0.000 NA
ATOM     29  H   UNL     1       6.221   1.464  12.765  0.00  0.00    +0.000 HD
BRANCH  28  31
ATOM     30  C   UNL     1       5.991  -0.865  11.357  0.00  0.00    +0.000 C 
ATOM     31  C   UNL     1       6.352   0.556  10.949  0.00  0.00    +0.000 C 
ENDBRANCH  28  31
ENDBRANCH  27  28
ENDBRANCH  21  27
ENDBRANCH   1  25
TORSDOF 5
ENDMDL
MODEL 5
REMARK VINA RESULT:      -8.8      3.261      9.100
REMARK  Name = 
REMARK  6 active torsions:
REMARK  status: ('A' for Active; 'I' for Inactive)
REMARK    1  A    between atoms: C_1  and  C_2
REMARK    2  A    between atoms: C_2  and  N_3
REMARK    3  A    between atoms: N_3  and  C_4
REMARK    4  A    between atoms: C_4  and  C_5
REMARK    5  A    between atoms: C_9  and  C_10
REMARK    6  A    between atoms: C_16  and  C_17
REMARK                            x       y       z     vdW  Elec       q    Type
REMARK                         _______ _______ _______ _____ _____    ______ ____
ROOT
ATOM      1  C   UNL     1       2.881   6.875  18.541  0.00  0.00    +0.000 A 
ATOM      2  C   UNL     1       2.447   5.587  18.919  0.00  0.00    +0.000 A 
ATOM      3  N   UNL     1       3.229   4.488  19.060  0.00  0.00    +0.000 NA
ATOM      4  C   UNL     1       4.505   4.681  18.723  0.00  0.00    +0.000 A 
ATOM      5  C   UNL     1       5.000   5.835  18.165  0.00  0.00    +0.000 A 
ATOM      6  C   UNL     1       4.209   6.971  18.084  0.00  0.00    +0.000 A 
ATOM      7  C   UNL     1       6.422   5.515  17.889  0.00  0.00    +0.000 C 
ATOM      8  N   UNL     1       6.628   4.306  18.767  0.00  0.00    +0.000 NA
ATOM      9  N   UNL     1       5.514   3.775  19.077  0.00  0.00    +0.000 NA
ENDROOT
BRANCH   7  10
ATOM     10  C   UNL     1       6.671   5.055  16.474  0.00  0.00    +0.000 A 
ATOM     11  N   UNL     1       7.572   5.484  15.609  0.00  0.00    +0.000 NA
ATOM     12  C   UNL     1       7.192   4.964  14.391  0.00  0.00    +0.000 A 
ATOM     13  C   UNL     1       7.684   5.231  13.106  0.00  0.00    +0.000 A 
ATOM     14  C   UNL     1       7.056   4.607  12.026  0.00  0.00    +0.000 A 
ATOM     15  F   UNL     1       7.440   4.920  10.781  0.00  0.00    +0.000 F 
ATOM     16  C   UNL     1       6.022   3.688  12.199  0.00  0.00    +0.000 A 
ATOM     17  C   UNL     1       5.530   3.398  13.474  0.00  0.00    +0.000 A 
ATOM     18  C   UNL     1       6.117   4.094  14.532  0.00  0.00    +0.000 A 
ATOM     19  N   UNL     1       5.794   4.184  15.857  0.00  0.00    +0.000 N 
ATOM     20  H   UNL     1       4.944   3.838  16.281  0.00  0.00    +0.000 HD
ENDBRANCH   7  10
BRANCH   1  25
ATOM     21  C   UNL     1       0.840   9.540  20.345  0.00  0.00    +0.000 A 
ATOM     22  C   UNL     1       0.487  10.321  19.257  0.00  0.00    +0.000 A 
ATOM     23  N   UNL     1       0.827  10.032  17.980  0.00  0.00    +0.000 NA
ATOM     24  C   UNL     1       1.574   8.917  17.769  0.00  0.00    +0.000 A 
ATOM     25  C   UNL     1       2.004   8.049  18.770  0.00  0.00    +0.000 A 
ATOM     26  C   UNL     1       1.609   8.400  20.076  0.00  0.00    +0.000 A 
BRANCH  21  27
ATOM     27  C   UNL     1       0.408   9.877  21.750  0.00  0.00    +0.000 C 
BRANCH  27  28
ATOM     28  N   UNL     1       0.074  11.296  21.888  0.00  0.00    +0.000 NA
ATOM     29  H   UNL     1       0.817  11.778  22.391  0.00  0.00    +0.000 HD
BRANCH  28  31
ATOM     30  C   UNL     1      -1.281  12.923  23.091  0.00  0.00    +0.000 C 
ATOM     31  C   UNL     1      -1.185  11.483  22.606  0.00  0.00    +0.000 C 
ENDBRANCH  28  31
ENDBRANCH  27  28
ENDBRANCH  21  27
ENDBRANCH   1  25
TORSDOF 5
ENDMDL
MODEL 6
REMARK VINA RESULT:      -8.7      3.169      8.710
REMARK  Name = 
REMARK  6 active torsions:
REMARK  status: ('A' for Active; 'I' for Inactive)
REMARK    1  A    between atoms: C_1  and  C_2
REMARK    2  A    between atoms: C_2  and  N_3
REMARK    3  A    between atoms: N_3  and  C_4
REMARK    4  A    between atoms: C_4  and  C_5
REMARK    5  A    between atoms: C_9  and  C_10
REMARK    6  A    between atoms: C_16  and  C_17
REMARK                            x       y       z     vdW  Elec       q    Type
REMARK                         _______ _______ _______ _____ _____    ______ ____
ROOT
ATOM      1  C   UNL     1       2.738   6.690  19.366  0.00  0.00    +0.000 A 
ATOM      2  C   UNL     1       2.532   5.347  19.746  0.00  0.00    +0.000 A 
ATOM      3  N   UNL     1       3.422   4.332  19.616  0.00  0.00    +0.000 NA
ATOM      4  C   UNL     1       4.551   4.674  18.993  0.00  0.00    +0.000 A 
ATOM      5  C   UNL     1       4.784   5.898  18.414  0.00  0.00    +0.000 A 
ATOM      6  C   UNL     1       3.896   6.947  18.607  0.00  0.00    +0.000 A 
ATOM      7  C   UNL     1       6.115   5.744  17.778  0.00  0.00    +0.000 C 
ATOM      8  N   UNL     1       6.643   4.525  18.493  0.00  0.00    +0.000 NA
ATOM      9  N   UNL     1       5.695   3.866  19.026  0.00  0.00    +0.000 NA
ENDROOT
BRANCH   7  10
ATOM     10  C   UNL     1       6.045   5.377  16.317  0.00  0.00    +0.000 A 
ATOM     11  N   UNL     1       5.135   4.658  15.685  0.00  0.00    +0.000 NA
ATOM     12  C   UNL     1       5.680   4.372  14.453  0.00  0.00    +0.000 A 
ATOM     13  C   UNL     1       5.228   3.505  13.448  0.00  0.00    +0.000 A 
ATOM     14  C   UNL     1       6.028   3.351  12.314  0.00  0.00    +0.000 A 
ATOM     15  F   UNL     1       5.669   2.455  11.384  0.00  0.00    +0.000 F 
ATOM     16  C   UNL     1       7.201   4.079  12.129  0.00  0.00    +0.000 A 
ATOM     17  C   UNL     1       7.658   4.959  13.113  0.00  0.00    +0.000 A 
ATOM     18  C   UNL     1       6.887   5.037  14.274  0.00  0.00    +0.000 A 
ATOM     19  N   UNL     1       7.105   5.652  15.475  0.00  0.00    +0.000 N 
ATOM     20  H   UNL     1       7.977   6.067  15.775  0.00  0.00    +0.000 HD
ENDBRANCH   7  10
BRANCH   1  25
ATOM     21  C   UNL     1       0.718   9.916  19.544  0.00  0.00    +0.000 A 
ATOM     22  C   UNL     1       0.060   9.697  20.743  0.00  0.00    +0.000 A 
ATOM     23  N   UNL     1       0.246   8.604  21.517  0.00  0.00    +0.000 NA
ATOM     24  C   UNL     1       1.120   7.664  21.070  0.00  0.00    +0.000 A 
ATOM     25  C   UNL     1       1.843   7.752  19.882  0.00  0.00    +0.000 A 
ATOM     26  C   UNL     1       1.611   8.919  19.128  0.00  0.00    +0.000 A 
BRANCH  21  27
ATOM     27  C   UNL     1       0.509  11.167  18.729  0.00  0.00    +0.000 C 
BRANCH  27  28
ATOM     28  N   UNL     1       1.704  11.516  17.957  0.00  0.00    +0.000 NA
ATOM     29  H   UNL     1       2.396  10.774  18.038  0.00  0.00    +0.000 HD
BRANCH  28  31
ATOM     30  C   UNL     1       1.199  13.672  18.972  0.00  0.00    +0.000 C 
ATOM     31  C   UNL     1       2.295  12.769  18.422  0.00  0.00    +0.000 C 
ENDBRANCH  28  31
ENDBRANCH  27  28
ENDBRANCH  21  27
ENDBRANCH   1  25
TORSDOF 5
ENDMDL
MODEL 7
REMARK VINA RESULT:      -8.6      0.598      1.229
REMARK  Name = 
REMARK  6 active torsions:
REMARK  status: ('A' for Active; 'I' for Inactive)
REMARK    1  A    between atoms: C_1  and  C_2
REMARK    2  A    between atoms: C_2  and  N_3
REMARK    3  A    between atoms: N_3  and  C_4
REMARK    4  A    between atoms: C_4  and  C_5
REMARK    5  A    between atoms: C_9  and  C_10
REMARK    6  A    between atoms: C_16  and  C_17
REMARK                            x       y       z     vdW  Elec       q    Type
REMARK                         _______ _______ _______ _____ _____    ______ ____
ROOT
ATOM      1  C   UNL     1       6.032   4.911  15.875  0.00  0.00    +0.000 A 
ATOM      2  C   UNL     1       7.003   5.249  16.841  0.00  0.00    +0.000 A 
ATOM      3  N   UNL     1       6.831   5.242  18.187  0.00  0.00    +0.000 NA
ATOM      4  C   UNL     1       5.587   4.956  18.575  0.00  0.00    +0.000 A 
ATOM      5  C   UNL     1       4.520   4.796  17.724  0.00  0.00    +0.000 A 
ATOM      6  C   UNL     1       4.718   4.742  16.352  0.00  0.00    +0.000 A 
ATOM      7  C   UNL     1       3.366   4.596  18.634  0.00  0.00    +0.000 C 
ATOM      8  N   UNL     1       4.065   4.235  19.922  0.00  0.00    +0.000 NA
ATOM      9  N   UNL     1       5.281   4.609  19.898  0.00  0.00    +0.000 NA
ENDROOT
BRANCH   7  10
ATOM     10  C   UNL     1       2.595   5.862  18.915  0.00  0.00    +0.000 A 
ATOM     11  N   UNL     1       2.282   6.843  18.087  0.00  0.00    +0.000 NA
ATOM     12  C   UNL     1       1.849   7.877  18.887  0.00  0.00    +0.000 A 
ATOM     13  C   UNL     1       1.555   9.207  18.558  0.00  0.00    +0.000 A 
ATOM     14  C   UNL     1       1.202  10.072  19.595  0.00  0.00    +0.000 A 
ATOM     15  F   UNL     1       1.013  11.370  19.323  0.00  0.00    +0.000 F 
ATOM     16  C   UNL     1       1.064   9.635  20.911  0.00  0.00    +0.000 A 
ATOM     17  C   UNL     1       1.337   8.308  21.255  0.00  0.00    +0.000 A 
ATOM     18  C   UNL     1       1.768   7.480  20.217  0.00  0.00    +0.000 A 
ATOM     19  N   UNL     1       2.263   6.207  20.210  0.00  0.00    +0.000 N 
ATOM     20  H   UNL     1       2.534   5.675  21.027  0.00  0.00    +0.000 HD
ENDBRANCH   7  10
BRANCH   1  25
ATOM     21  C   UNL     1       5.956   3.554  12.316  0.00  0.00    +0.000 A 
ATOM     22  C   UNL     1       7.102   4.158  11.825  0.00  0.00    +0.000 A 
ATOM     23  N   UNL     1       7.917   4.943  12.567  0.00  0.00    +0.000 NA
ATOM     24  C   UNL     1       7.569   5.155  13.863  0.00  0.00    +0.000 A 
ATOM     25  C   UNL     1       6.444   4.616  14.482  0.00  0.00    +0.000 A 
ATOM     26  C   UNL     1       5.642   3.801  13.659  0.00  0.00    +0.000 A 
BRANCH  21  27
ATOM     27  C   UNL     1       5.095   2.656  11.465  0.00  0.00    +0.000 C 
BRANCH  27  28
ATOM     28  N   UNL     1       3.709   3.126  11.411  0.00  0.00    +0.000 NA
ATOM     29  H   UNL     1       3.142   2.605  12.077  0.00  0.00    +0.000 HD
BRANCH  28  31
ATOM     30  C   UNL     1       2.779   4.334   9.511  0.00  0.00    +0.000 C 
ATOM     31  C   UNL     1       3.140   2.966  10.075  0.00  0.00    +0.000 C 
ENDBRANCH  28  31
ENDBRANCH  27  28
ENDBRANCH  21  27
ENDBRANCH   1  25
TORSDOF 5
ENDMDL
MODEL 8
REMARK VINA RESULT:      -8.6      1.023      1.274
REMARK  Name = 
REMARK  6 active torsions:
REMARK  status: ('A' for Active; 'I' for Inactive)
REMARK    1  A    between atoms: C_1  and  C_2
REMARK    2  A    between atoms: C_2  and  N_3
REMARK    3  A    between atoms: N_3  and  C_4
REMARK    4  A    between atoms: C_4  and  C_5
REMARK    5  A    between atoms: C_9  and  C_10
REMARK    6  A    between atoms: C_16  and  C_17
REMARK                            x       y       z     vdW  Elec       q    Type
REMARK                         _______ _______ _______ _____ _____    ______ ____
ROOT
ATOM      1  C   UNL     1       5.538   4.836  16.887  0.00  0.00    +0.000 A 
ATOM      2  C   UNL     1       6.178   4.333  18.039  0.00  0.00    +0.000 A 
ATOM      3  N   UNL     1       5.583   4.043  19.223  0.00  0.00    +0.000 NA
ATOM      4  C   UNL     1       4.287   4.355  19.272  0.00  0.00    +0.000 A 
ATOM      5  C   UNL     1       3.605   5.019  18.281  0.00  0.00    +0.000 A 
ATOM      6  C   UNL     1       4.204   5.254  17.052  0.00  0.00    +0.000 A 
ATOM      7  C   UNL     1       2.247   5.208  18.848  0.00  0.00    +0.000 C 
ATOM      8  N   UNL     1       2.251   4.194  19.965  0.00  0.00    +0.000 NA
ATOM      9  N   UNL     1       3.440   3.867  20.277  0.00  0.00    +0.000 NA
ENDROOT
BRANCH   7  10
ATOM     10  C   UNL     1       2.050   6.554  19.501  0.00  0.00    +0.000 A 
ATOM     11  N   UNL     1       1.786   6.831  20.765  0.00  0.00    +0.000 NA
ATOM     12  C   UNL     1       1.410   8.156  20.782  0.00  0.00    +0.000 A 
ATOM     13  C   UNL     1       0.864   8.923  21.820  0.00  0.00    +0.000 A 
ATOM     14  C   UNL     1       0.502  10.241  21.535  0.00  0.00    +0.000 A 
ATOM     15  F   UNL     1      -0.112  10.965  22.480  0.00  0.00    +0.000 F 
ATOM     16  C   UNL     1       0.736  10.821  20.289  0.00  0.00    +0.000 A 
ATOM     17  C   UNL     1       1.294  10.076  19.247  0.00  0.00    +0.000 A 
ATOM     18  C   UNL     1       1.572   8.738  19.530  0.00  0.00    +0.000 A 
ATOM     19  N   UNL     1       1.961   7.698  18.733  0.00  0.00    +0.000 N 
ATOM     20  H   UNL     1       1.985   7.707  17.722  0.00  0.00    +0.000 HD
ENDBRANCH   7  10
BRANCH   1  25
ATOM     21  C   UNL     1       6.232   3.999  13.235  0.00  0.00    +0.000 A 
ATOM     22  C   UNL     1       7.389   4.740  13.055  0.00  0.00    +0.000 A 
ATOM     23  N   UNL     1       7.982   5.460  14.034  0.00  0.00    +0.000 NA
ATOM     24  C   UNL     1       7.388   5.462  15.256  0.00  0.00    +0.000 A 
ATOM     25  C   UNL     1       6.221   4.770  15.573  0.00  0.00    +0.000 A 
ATOM     26  C   UNL     1       5.658   4.031  14.513  0.00  0.00    +0.000 A 
BRANCH  21  27
ATOM     27  C   UNL     1       5.623   3.179  12.126  0.00  0.00    +0.000 C 
BRANCH  27  28
ATOM     28  N   UNL     1       4.225   3.543  11.889  0.00  0.00    +0.000 NA
ATOM     29  H   UNL     1       3.648   3.220  12.664  0.00  0.00    +0.000 HD
BRANCH  28  31
ATOM     30  C   UNL     1       3.077   4.047   9.800  0.00  0.00    +0.000 C 
ATOM     31  C   UNL     1       3.722   2.958  10.647  0.00  0.00    +0.000 C 
ENDBRANCH  28  31
ENDBRANCH  27  28
ENDBRANCH  21  27
ENDBRANCH   1  25
TORSDOF 5
ENDMDL
MODEL 9
REMARK VINA RESULT:      -8.5      1.545      2.000
REMARK  Name = 
REMARK  6 active torsions:
REMARK  status: ('A' for Active; 'I' for Inactive)
REMARK    1  A    between atoms: C_1  and  C_2
REMARK    2  A    between atoms: C_2  and  N_3
REMARK    3  A    between atoms: N_3  and  C_4
REMARK    4  A    between atoms: C_4  and  C_5
REMARK    5  A    between atoms: C_9  and  C_10
REMARK    6  A    between atoms: C_16  and  C_17
REMARK                            x       y       z     vdW  Elec       q    Type
REMARK                         _______ _______ _______ _____ _____    ______ ____
ROOT
ATOM      1  C   UNL     1       5.368   4.794  17.005  0.00  0.00    +0.000 A 
ATOM      2  C   UNL     1       5.959   4.235  18.158  0.00  0.00    +0.000 A 
ATOM      3  N   UNL     1       5.325   3.939  19.319  0.00  0.00    +0.000 NA
ATOM      4  C   UNL     1       4.042   4.303  19.347  0.00  0.00    +0.000 A 
ATOM      5  C   UNL     1       3.411   5.021  18.360  0.00  0.00    +0.000 A 
ATOM      6  C   UNL     1       4.049   5.263  17.152  0.00  0.00    +0.000 A 
ATOM      7  C   UNL     1       2.050   5.251  18.901  0.00  0.00    +0.000 C 
ATOM      8  N   UNL     1       1.986   4.209  19.990  0.00  0.00    +0.000 NA
ATOM      9  N   UNL     1       3.153   3.825  20.319  0.00  0.00    +0.000 NA
ENDROOT
BRANCH   7  10
ATOM     10  C   UNL     1       1.893   6.586  19.586  0.00  0.00    +0.000 A 
ATOM     11  N   UNL     1       1.600   6.841  20.848  0.00  0.00    +0.000 NA
ATOM     12  C   UNL     1       1.284   8.181  20.892  0.00  0.00    +0.000 A 
ATOM     13  C   UNL     1       0.740   8.944  21.934  0.00  0.00    +0.000 A 
ATOM     14  C   UNL     1       0.448  10.284  21.675  0.00  0.00    +0.000 A 
ATOM     15  F   UNL     1      -0.164  11.010  22.621  0.00  0.00    +0.000 F 
ATOM     16  C   UNL     1       0.748  10.887  20.455  0.00  0.00    +0.000 A 
ATOM     17  C   UNL     1       1.305  10.146  19.410  0.00  0.00    +0.000 A 
ATOM     18  C   UNL     1       1.513   8.789  19.662  0.00  0.00    +0.000 A 
ATOM     19  N   UNL     1       1.880   7.754  18.848  0.00  0.00    +0.000 N 
ATOM     20  H   UNL     1       1.938   7.790  17.839  0.00  0.00    +0.000 HD
ENDBRANCH   7  10
BRANCH   1  25
ATOM     21  C   UNL     1       6.167   3.926  13.382  0.00  0.00    +0.000 A 
ATOM     22  C   UNL     1       7.296   4.711  13.211  0.00  0.00    +0.000 A 
ATOM     23  N   UNL     1       7.840   5.472  14.188  0.00  0.00    +0.000 NA
ATOM     24  C   UNL     1       7.222   5.469  15.398  0.00  0.00    +0.000 A 
ATOM     25  C   UNL     1       6.079   4.735  15.706  0.00  0.00    +0.000 A 
ATOM     26  C   UNL     1       5.568   3.956  14.648  0.00  0.00    +0.000 A 
BRANCH  21  27
ATOM     27  C   UNL     1       5.614   3.063  12.276  0.00  0.00    +0.000 C 
BRANCH  27  28
ATOM     28  N   UNL     1       6.607   2.103  11.790  0.00  0.00    +0.000 NA
ATOM     29  H   UNL     1       7.351   2.596  11.298  0.00  0.00    +0.000 HD
BRANCH  28  31
ATOM     30  C   UNL     1       6.229  -0.277  11.443  0.00  0.00    +0.000 C 
ATOM     31  C   UNL     1       6.008   1.123  10.887  0.00  0.00    +0.000 C 
ENDBRANCH  28  31
ENDBRANCH  27  28
ENDBRANCH  21  27
ENDBRANCH   1  25
TORSDOF 5
ENDMDL
