MODEL 1
REMARK VINA RESULT:      -7.8      0.000      0.000
REMARK  Name = 
REMARK  5 active torsions:
REMARK  status: ('A' for Active; 'I' for Inactive)
REMARK    1  A    between atoms: C_4  and  O_5
REMARK    2  A    between atoms: O_5  and  C_6
REMARK    3  A    between atoms: C_6  and  C_7
REMARK    4  A    between atoms: N_9  and  C_10
REMARK    5  A    between atoms: C_13  and  N_14
REMARK                            x       y       z     vdW  Elec       q    Type
REMARK                         _______ _______ _______ _____ _____    ______ ____
ROOT
ATOM      1  C   UNL     1       2.469   7.813  18.742  0.00  0.00    +0.000 A 
ATOM      2  C   UNL     1       1.739   8.953  18.993  0.00  0.00    +0.000 A 
ATOM      3  N   UNL     1       1.207   8.762  20.239  0.00  0.00    +0.000 N 
ATOM      4  N   UNL     1       1.585   7.550  20.710  0.00  0.00    +0.000 NA
ATOM      5  N   UNL     1       2.353   6.965  19.803  0.00  0.00    +0.000 NA
ENDROOT
BRANCH   3   6
ATOM      6  C   UNL     1       0.375   9.634  20.991  0.00  0.00    +0.000 A 
ATOM      7  C   UNL     1      -0.122  10.817  20.421  0.00  0.00    +0.000 A 
ATOM      8  C   UNL     1      -0.947  11.661  21.169  0.00  0.00    +0.000 A 
ATOM      9  C   UNL     1      -1.269  11.327  22.491  0.00  0.00    +0.000 A 
ATOM     10  C   UNL     1      -0.776  10.152  23.070  0.00  0.00    +0.000 A 
ATOM     11  C   UNL     1       0.046   9.307  22.318  0.00  0.00    +0.000 A 
BRANCH   9  12
ATOM     12  N   UNL     1      -2.136  12.219  23.271  0.00  0.00    +0.000 N 
ATOM     13  O   UNL     1      -3.208  11.761  23.689  0.00  0.00    +0.000 OA
ATOM     14  O   UNL     1      -1.738  13.374  23.474  0.00  0.00    +0.000 OA
ENDBRANCH   9  12
ENDBRANCH   3   6
BRANCH   1  15
ATOM     15  C   UNL     1       3.270   7.465  17.545  0.00  0.00    +0.000 C 
BRANCH  15  16
ATOM     16  O   UNL     1       3.953   6.219  17.743  0.00  0.00    +0.000 OA
BRANCH  16  20
ATOM     17  O   UNL     1       8.279   7.094  18.601  0.00  0.00    +0.000 OA
ATOM     18  C   UNL     1       7.420   6.403  18.048  0.00  0.00    +0.000 C 
ATOM     19  C   UNL     1       6.217   7.045  17.392  0.00  0.00    +0.000 C 
ATOM     20  C   UNL     1       5.128   6.060  16.925  0.00  0.00    +0.000 C 
ATOM     21  C   UNL     1       5.534   4.566  17.010  0.00  0.00    +0.000 C 
ATOM     22  C   UNL     1       6.570   4.165  15.980  0.00  0.00    +0.000 C 
ATOM     23  O   UNL     1       7.811   4.639  16.514  0.00  0.00    +0.000 OA
ATOM     24  C   UNL     1       7.540   4.895  17.896  0.00  0.00    +0.000 C 
ATOM     25  O   UNL     1       6.261   4.350  18.227  0.00  0.00    +0.000 OA
ENDBRANCH  16  20
ENDBRANCH  15  16
ENDBRANCH   1  15
TORSDOF 5
ENDMDL
MODEL 2
REMARK VINA RESULT:      -7.7      2.787      3.681
REMARK  Name = 
REMARK  5 active torsions:
REMARK  status: ('A' for Active; 'I' for Inactive)
REMARK    1  A    between atoms: C_4  and  O_5
REMARK    2  A    between atoms: O_5  and  C_6
REMARK    3  A    between atoms: C_6  and  C_7
REMARK    4  A    between atoms: N_9  and  C_10
REMARK    5  A    between atoms: C_13  and  N_14
REMARK                            x       y       z     vdW  Elec       q    Type
REMARK                         _______ _______ _______ _____ _____    ______ ____
ROOT
ATOM      1  C   UNL     1       2.198   8.126  18.513  0.00  0.00    +0.000 A 
ATOM      2  C   UNL     1       1.648   8.411  19.742  0.00  0.00    +0.000 A 
ATOM      3  N   UNL     1       0.893   9.533  19.539  0.00  0.00    +0.000 N 
ATOM      4  N   UNL     1       0.998   9.919  18.245  0.00  0.00    +0.000 NA
ATOM      5  N   UNL     1       1.793   9.067  17.614  0.00  0.00    +0.000 NA
ENDROOT
BRANCH   3   6
ATOM      6  C   UNL     1       0.100  10.251  20.474  0.00  0.00    +0.000 A 
ATOM      7  C   UNL     1      -0.657  11.360  20.066  0.00  0.00    +0.000 A 
ATOM      8  C   UNL     1      -1.440  12.053  20.994  0.00  0.00    +0.000 A 
ATOM      9  C   UNL     1      -1.460  11.640  22.333  0.00  0.00    +0.000 A 
ATOM     10  C   UNL     1      -0.705  10.538  22.750  0.00  0.00    +0.000 A 
ATOM     11  C   UNL     1       0.074   9.844  21.820  0.00  0.00    +0.000 A 
BRANCH   9  12
ATOM     12  N   UNL     1      -2.284  12.372  23.302  0.00  0.00    +0.000 N 
ATOM     13  O   UNL     1      -1.935  13.521  23.606  0.00  0.00    +0.000 OA
ATOM     14  O   UNL     1      -3.287  11.801  23.751  0.00  0.00    +0.000 OA
ENDBRANCH   9  12
ENDBRANCH   3   6
BRANCH   1  15
ATOM     15  C   UNL     1       3.100   7.014  18.131  0.00  0.00    +0.000 C 
BRANCH  15  16
ATOM     16  O   UNL     1       2.349   5.811  17.914  0.00  0.00    +0.000 OA
BRANCH  16  20
ATOM     17  O   UNL     1       1.078   3.146  21.305  0.00  0.00    +0.000 OA
ATOM     18  C   UNL     1       1.617   3.288  20.204  0.00  0.00    +0.000 C 
ATOM     19  C   UNL     1       2.528   4.466  19.937  0.00  0.00    +0.000 C 
ATOM     20  C   UNL     1       2.963   4.631  18.467  0.00  0.00    +0.000 C 
ATOM     21  C   UNL     1       2.572   3.448  17.545  0.00  0.00    +0.000 C 
ATOM     22  C   UNL     1       3.370   2.188  17.811  0.00  0.00    +0.000 C 
ATOM     23  O   UNL     1       2.762   1.617  18.974  0.00  0.00    +0.000 OA
ATOM     24  C   UNL     1       1.492   2.269  19.082  0.00  0.00    +0.000 C 
ATOM     25  O   UNL     1       1.249   3.010  17.885  0.00  0.00    +0.000 OA
ENDBRANCH  16  20
ENDBRANCH  15  16
ENDBRANCH   1  15
TORSDOF 5
ENDMDL
MODEL 3
REMARK VINA RESULT:      -7.7      2.895      3.760
REMARK  Name = 
REMARK  5 active torsions:
REMARK  status: ('A' for Active; 'I' for Inactive)
REMARK    1  A    between atoms: C_4  and  O_5
REMARK    2  A    between atoms: O_5  and  C_6
REMARK    3  A    between atoms: C_6  and  C_7
REMARK    4  A    between atoms: N_9  and  C_10
REMARK    5  A    between atoms: C_13  and  N_14
REMARK                            x       y       z     vdW  Elec       q    Type
REMARK                         _______ _______ _______ _____ _____    ______ ____
ROOT
ATOM      1  C   UNL     1       2.668   7.485  18.314  0.00  0.00    +0.000 A 
ATOM      2  C   UNL     1       2.078   7.764  19.526  0.00  0.00    +0.000 A 
ATOM      3  N   UNL     1       1.465   8.974  19.349  0.00  0.00    +0.000 N 
ATOM      4  N   UNL     1       1.692   9.414  18.089  0.00  0.00    +0.000 NA
ATOM      5  N   UNL     1       2.425   8.513  17.452  0.00  0.00    +0.000 NA
ENDROOT
BRANCH   3   6
ATOM      6  C   UNL     1       0.701   9.726  20.281  0.00  0.00    +0.000 A 
ATOM      7  C   UNL     1       0.112  10.943  19.904  0.00  0.00    +0.000 A 
ATOM      8  C   UNL     1      -0.646  11.670  20.827  0.00  0.00    +0.000 A 
ATOM      9  C   UNL     1      -0.808  11.183  22.131  0.00  0.00    +0.000 A 
ATOM     10  C   UNL     1      -0.220   9.973  22.518  0.00  0.00    +0.000 A 
ATOM     11  C   UNL     1       0.533   9.246  21.591  0.00  0.00    +0.000 A 
BRANCH   9  12
ATOM     12  N   UNL     1      -1.604  11.951  23.095  0.00  0.00    +0.000 N 
ATOM     13  O   UNL     1      -2.699  11.486  23.439  0.00  0.00    +0.000 OA
ATOM     14  O   UNL     1      -1.128  13.015  23.516  0.00  0.00    +0.000 OA
ENDBRANCH   9  12
ENDBRANCH   3   6
BRANCH   1  15
ATOM     15  C   UNL     1       3.463   6.300  17.916  0.00  0.00    +0.000 C 
BRANCH  15  16
ATOM     16  O   UNL     1       3.804   5.515  19.068  0.00  0.00    +0.000 OA
BRANCH  16  20
ATOM     17  O   UNL     1       2.719   2.409  22.132  0.00  0.00    +0.000 OA
ATOM     18  C   UNL     1       2.612   2.864  20.991  0.00  0.00    +0.000 C 
ATOM     19  C   UNL     1       3.824   3.385  20.250  0.00  0.00    +0.000 C 
ATOM     20  C   UNL     1       3.515   4.111  18.926  0.00  0.00    +0.000 C 
ATOM     21  C   UNL     1       2.039   4.002  18.464  0.00  0.00    +0.000 C 
ATOM     22  C   UNL     1       1.659   2.616  17.984  0.00  0.00    +0.000 C 
ATOM     23  O   UNL     1       1.446   1.866  19.184  0.00  0.00    +0.000 OA
ATOM     24  C   UNL     1       1.305   2.852  20.212  0.00  0.00    +0.000 C 
ATOM     25  O   UNL     1       1.182   4.140  19.605  0.00  0.00    +0.000 OA
ENDBRANCH  16  20
ENDBRANCH  15  16
ENDBRANCH   1  15
TORSDOF 5
ENDMDL
MODEL 4
REMARK VINA RESULT:      -7.7      2.504      3.729
REMARK  Name = 
REMARK  5 active torsions:
REMARK  status: ('A' for Active; 'I' for Inactive)
REMARK    1  A    between atoms: C_4  and  O_5
REMARK    2  A    between atoms: O_5  and  C_6
REMARK    3  A    between atoms: C_6  and  C_7
REMARK    4  A    between atoms: N_9  and  C_10
REMARK    5  A    between atoms: C_13  and  N_14
REMARK                            x       y       z     vdW  Elec       q    Type
REMARK                         _______ _______ _______ _____ _____    ______ ____
ROOT
ATOM      1  C   UNL     1       2.293   8.163  18.429  0.00  0.00    +0.000 A 
ATOM      2  C   UNL     1       1.760   8.424  19.671  0.00  0.00    +0.000 A 
ATOM      3  N   UNL     1       0.967   9.524  19.489  0.00  0.00    +0.000 N 
ATOM      4  N   UNL     1       1.034   9.919  18.195  0.00  0.00    +0.000 NA
ATOM      5  N   UNL     1       1.841   9.095  17.543  0.00  0.00    +0.000 NA
ENDROOT
BRANCH   3   6
ATOM      6  C   UNL     1       0.173  10.213  20.444  0.00  0.00    +0.000 A 
ATOM      7  C   UNL     1       0.054   9.731  21.757  0.00  0.00    +0.000 A 
ATOM      8  C   UNL     1      -0.723  10.423  22.690  0.00  0.00    +0.000 A 
ATOM      9  C   UNL     1      -1.389  11.596  22.307  0.00  0.00    +0.000 A 
ATOM     10  C   UNL     1      -1.280  12.083  20.999  0.00  0.00    +0.000 A 
ATOM     11  C   UNL     1      -0.498  11.390  20.070  0.00  0.00    +0.000 A 
BRANCH   9  12
ATOM     12  N   UNL     1      -2.203  12.318  23.292  0.00  0.00    +0.000 N 
ATOM     13  O   UNL     1      -1.821  13.442  23.643  0.00  0.00    +0.000 OA
ATOM     14  O   UNL     1      -3.231  11.763  23.705  0.00  0.00    +0.000 OA
ENDBRANCH   9  12
ENDBRANCH   3   6
BRANCH   1  15
ATOM     15  C   UNL     1       3.220   7.080  18.023  0.00  0.00    +0.000 C 
BRANCH  15  16
ATOM     16  O   UNL     1       2.496   5.867  17.772  0.00  0.00    +0.000 OA
BRANCH  16  20
ATOM     17  O   UNL     1       0.305   2.014  18.524  0.00  0.00    +0.000 OA
ATOM     18  C   UNL     1       1.353   2.664  18.534  0.00  0.00    +0.000 C 
ATOM     19  C   UNL     1       1.367   4.100  19.011  0.00  0.00    +0.000 C 
ATOM     20  C   UNL     1       2.692   4.851  18.774  0.00  0.00    +0.000 C 
ATOM     21  C   UNL     1       3.859   3.956  18.283  0.00  0.00    +0.000 C 
ATOM     22  C   UNL     1       4.389   3.020  19.350  0.00  0.00    +0.000 C 
ATOM     23  O   UNL     1       3.444   1.946  19.387  0.00  0.00    +0.000 OA
ATOM     24  C   UNL     1       2.703   2.066  18.169  0.00  0.00    +0.000 C 
ATOM     25  O   UNL     1       3.354   3.018  17.323  0.00  0.00    +0.000 OA
ENDBRANCH  16  20
ENDBRANCH  15  16
ENDBRANCH   1  15
TORSDOF 5
ENDMDL
MODEL 5
REMARK VINA RESULT:      -7.7      2.607      3.628
REMARK  Name = 
REMARK  5 active torsions:
REMARK  status: ('A' for Active; 'I' for Inactive)
REMARK    1  A    between atoms: C_4  and  O_5
REMARK    2  A    between atoms: O_5  and  C_6
REMARK    3  A    between atoms: C_6  and  C_7
REMARK    4  A    between atoms: N_9  and  C_10
REMARK    5  A    between atoms: C_13  and  N_14
REMARK                            x       y       z     vdW  Elec       q    Type
REMARK                         _______ _______ _______ _____ _____    ______ ____
ROOT
ATOM      1  C   UNL     1       2.383   8.018  18.371  0.00  0.00    +0.000 A 
ATOM      2  C   UNL     1       1.841   8.281  19.608  0.00  0.00    +0.000 A 
ATOM      3  N   UNL     1       1.079   9.401  19.428  0.00  0.00    +0.000 N 
ATOM      4  N   UNL     1       1.173   9.808  18.139  0.00  0.00    +0.000 NA
ATOM      5  N   UNL     1       1.967   8.971  17.489  0.00  0.00    +0.000 NA
ENDROOT
BRANCH   3   6
ATOM      6  C   UNL     1       0.290  10.101  20.380  0.00  0.00    +0.000 A 
ATOM      7  C   UNL     1       0.292   9.717  21.730  0.00  0.00    +0.000 A 
ATOM      8  C   UNL     1      -0.482  10.420  22.658  0.00  0.00    +0.000 A 
ATOM      9  C   UNL     1      -1.265  11.502  22.235  0.00  0.00    +0.000 A 
ATOM     10  C   UNL     1      -1.277  11.889  20.890  0.00  0.00    +0.000 A 
ATOM     11  C   UNL     1      -0.499  11.188  19.964  0.00  0.00    +0.000 A 
BRANCH   9  12
ATOM     12  N   UNL     1      -2.075  12.235  23.215  0.00  0.00    +0.000 N 
ATOM     13  O   UNL     1      -1.666  13.341  23.590  0.00  0.00    +0.000 OA
ATOM     14  O   UNL     1      -3.127  11.706  23.601  0.00  0.00    +0.000 OA
ENDBRANCH   9  12
ENDBRANCH   3   6
BRANCH   1  15
ATOM     15  C   UNL     1       3.288   6.917  17.965  0.00  0.00    +0.000 C 
BRANCH  15  16
ATOM     16  O   UNL     1       3.393   5.942  19.012  0.00  0.00    +0.000 OA
BRANCH  16  20
ATOM     17  O   UNL     1       4.948   1.953  20.383  0.00  0.00    +0.000 OA
ATOM     18  C   UNL     1       4.018   2.650  19.973  0.00  0.00    +0.000 C 
ATOM     19  C   UNL     1       4.240   3.663  18.870  0.00  0.00    +0.000 C 
ATOM     20  C   UNL     1       3.049   4.604  18.602  0.00  0.00    +0.000 C 
ATOM     21  C   UNL     1       1.749   4.225  19.355  0.00  0.00    +0.000 C 
ATOM     22  C   UNL     1       1.089   2.970  18.821  0.00  0.00    +0.000 C 
ATOM     23  O   UNL     1       1.850   1.896  19.383  0.00  0.00    +0.000 OA
ATOM     24  C   UNL     1       2.585   2.491  20.457  0.00  0.00    +0.000 C 
ATOM     25  O   UNL     1       2.085   3.811  20.686  0.00  0.00    +0.000 OA
ENDBRANCH  16  20
ENDBRANCH  15  16
ENDBRANCH   1  15
TORSDOF 5
ENDMDL
MODEL 6
REMARK VINA RESULT:      -7.6      2.874      3.834
REMARK  Name = 
REMARK  5 active torsions:
REMARK  status: ('A' for Active; 'I' for Inactive)
REMARK    1  A    between atoms: C_4  and  O_5
REMARK    2  A    between atoms: O_5  and  C_6
REMARK    3  A    between atoms: C_6  and  C_7
REMARK    4  A    between atoms: N_9  and  C_10
REMARK    5  A    between atoms: C_13  and  N_14
REMARK                            x       y       z     vdW  Elec       q    Type
REMARK                         _______ _______ _______ _____ _____    ______ ____
ROOT
ATOM      1  C   UNL     1       2.170   8.221  18.688  0.00  0.00    +0.000 A 
ATOM      2  C   UNL     1       1.467   8.401  19.857  0.00  0.00    +0.000 A 
ATOM      3  N   UNL     1       0.900   9.640  19.740  0.00  0.00    +0.000 N 
ATOM      4  N   UNL     1       1.262  10.191  18.556  0.00  0.00    +0.000 NA
ATOM      5  N   UNL     1       2.037   9.332  17.911  0.00  0.00    +0.000 NA
ENDROOT
BRANCH   3   6
ATOM      6  C   UNL     1       0.061  10.324  20.660  0.00  0.00    +0.000 A 
ATOM      7  C   UNL     1       0.007   9.930  22.006  0.00  0.00    +0.000 A 
ATOM      8  C   UNL     1      -0.816  10.617  22.903  0.00  0.00    +0.000 A 
ATOM      9  C   UNL     1      -1.591  11.693  22.452  0.00  0.00    +0.000 A 
ATOM     10  C   UNL     1      -1.547  12.091  21.111  0.00  0.00    +0.000 A 
ATOM     11  C   UNL     1      -0.721  11.405  20.216  0.00  0.00    +0.000 A 
BRANCH   9  12
ATOM     12  N   UNL     1      -2.454  12.410  23.400  0.00  0.00    +0.000 N 
ATOM     13  O   UNL     1      -2.136  13.566  23.708  0.00  0.00    +0.000 OA
ATOM     14  O   UNL     1      -3.454  11.818  23.827  0.00  0.00    +0.000 OA
ENDBRANCH   9  12
ENDBRANCH   3   6
BRANCH   1  15
ATOM     15  C   UNL     1       2.978   7.055  18.258  0.00  0.00    +0.000 C 
BRANCH  15  16
ATOM     16  O   UNL     1       2.171   5.869  18.229  0.00  0.00    +0.000 OA
BRANCH  16  20
ATOM     17  O   UNL     1       1.078   2.799  21.327  0.00  0.00    +0.000 OA
ATOM     18  C   UNL     1       1.606   3.086  20.250  0.00  0.00    +0.000 C 
ATOM     19  C   UNL     1       2.438   4.341  20.107  0.00  0.00    +0.000 C 
ATOM     20  C   UNL     1       2.860   4.682  18.664  0.00  0.00    +0.000 C 
ATOM     21  C   UNL     1       2.546   3.574  17.626  0.00  0.00    +0.000 C 
ATOM     22  C   UNL     1       3.425   2.348  17.769  0.00  0.00    +0.000 C 
ATOM     23  O   UNL     1       2.857   1.625  18.865  0.00  0.00    +0.000 OA
ATOM     24  C   UNL     1       1.547   2.179  19.030  0.00  0.00    +0.000 C 
ATOM     25  O   UNL     1       1.255   3.020  17.912  0.00  0.00    +0.000 OA
ENDBRANCH  16  20
ENDBRANCH  15  16
ENDBRANCH   1  15
TORSDOF 5
ENDMDL
MODEL 7
REMARK VINA RESULT:      -7.6      5.790      8.109
REMARK  Name = 
REMARK  5 active torsions:
REMARK  status: ('A' for Active; 'I' for Inactive)
REMARK    1  A    between atoms: C_4  and  O_5
REMARK    2  A    between atoms: O_5  and  C_6
REMARK    3  A    between atoms: C_6  and  C_7
REMARK    4  A    between atoms: N_9  and  C_10
REMARK    5  A    between atoms: C_13  and  N_14
REMARK                            x       y       z     vdW  Elec       q    Type
REMARK                         _______ _______ _______ _____ _____    ______ ____
ROOT
ATOM      1  C   UNL     1       7.354   6.362  17.850  0.00  0.00    +0.000 A 
ATOM      2  C   UNL     1       8.155   7.218  18.571  0.00  0.00    +0.000 A 
ATOM      3  N   UNL     1       7.978   8.442  17.988  0.00  0.00    +0.000 N 
ATOM      4  N   UNL     1       7.120   8.325  16.946  0.00  0.00    +0.000 NA
ATOM      5  N   UNL     1       6.736   7.060  16.855  0.00  0.00    +0.000 NA
ENDROOT
BRANCH   3   6
ATOM      6  C   UNL     1       8.562   9.687  18.342  0.00  0.00    +0.000 A 
ATOM      7  C   UNL     1       9.400   9.790  19.464  0.00  0.00    +0.000 A 
ATOM      8  C   UNL     1       9.976  11.019  19.796  0.00  0.00    +0.000 A 
ATOM      9  C   UNL     1       9.708  12.148  19.011  0.00  0.00    +0.000 A 
ATOM     10  C   UNL     1       8.871  12.057  17.893  0.00  0.00    +0.000 A 
ATOM     11  C   UNL     1       8.299  10.825  17.560  0.00  0.00    +0.000 A 
BRANCH   9  12
ATOM     12  N   UNL     1      10.317  13.436  19.367  0.00  0.00    +0.000 N 
ATOM     13  O   UNL     1       9.856  14.457  18.838  0.00  0.00    +0.000 OA
ATOM     14  O   UNL     1      11.248  13.426  20.183  0.00  0.00    +0.000 OA
ENDBRANCH   9  12
ENDBRANCH   3   6
BRANCH   1  15
ATOM     15  C   UNL     1       7.140   4.907  18.036  0.00  0.00    +0.000 C 
BRANCH  15  16
ATOM     16  O   UNL     1       6.184   4.671  19.080  0.00  0.00    +0.000 OA
BRANCH  16  20
ATOM     17  O   UNL     1       2.988   2.486  21.366  0.00  0.00    +0.000 OA
ATOM     18  C   UNL     1       3.318   3.215  20.428  0.00  0.00    +0.000 C 
ATOM     19  C   UNL     1       4.573   2.929  19.632  0.00  0.00    +0.000 C 
ATOM     20  C   UNL     1       4.974   4.031  18.631  0.00  0.00    +0.000 C 
ATOM     21  C   UNL     1       3.916   5.148  18.448  0.00  0.00    +0.000 C 
ATOM     22  C   UNL     1       2.679   4.690  17.703  0.00  0.00    +0.000 C 
ATOM     23  O   UNL     1       1.911   3.981  18.680  0.00  0.00    +0.000 OA
ATOM     24  C   UNL     1       2.466   4.376  19.939  0.00  0.00    +0.000 C 
ATOM     25  O   UNL     1       3.357   5.474  19.728  0.00  0.00    +0.000 OA
ENDBRANCH  16  20
ENDBRANCH  15  16
ENDBRANCH   1  15
TORSDOF 5
ENDMDL
MODEL 8
REMARK VINA RESULT:      -7.6      1.416      2.107
REMARK  Name = 
REMARK  5 active torsions:
REMARK  status: ('A' for Active; 'I' for Inactive)
REMARK    1  A    between atoms: C_4  and  O_5
REMARK    2  A    between atoms: O_5  and  C_6
REMARK    3  A    between atoms: C_6  and  C_7
REMARK    4  A    between atoms: N_9  and  C_10
REMARK    5  A    between atoms: C_13  and  N_14
REMARK                            x       y       z     vdW  Elec       q    Type
REMARK                         _______ _______ _______ _____ _____    ______ ____
ROOT
ATOM      1  C   UNL     1       2.622   6.738  18.779  0.00  0.00    +0.000 A 
ATOM      2  C   UNL     1       1.971   7.152  19.919  0.00  0.00    +0.000 A 
ATOM      3  N   UNL     1       1.619   8.450  19.671  0.00  0.00    +0.000 N 
ATOM      4  N   UNL     1       2.057   8.809  18.440  0.00  0.00    +0.000 NA
ATOM      5  N   UNL     1       2.670   7.771  17.891  0.00  0.00    +0.000 NA
ENDROOT
BRANCH   3   6
ATOM      6  C   UNL     1       0.916   9.355  20.510  0.00  0.00    +0.000 A 
ATOM      7  C   UNL     1       0.610  10.651  20.066  0.00  0.00    +0.000 A 
ATOM      8  C   UNL     1      -0.090  11.529  20.898  0.00  0.00    +0.000 A 
ATOM      9  C   UNL     1      -0.479  11.113  22.179  0.00  0.00    +0.000 A 
ATOM     10  C   UNL     1      -0.175   9.824  22.632  0.00  0.00    +0.000 A 
ATOM     11  C   UNL     1       0.522   8.946  21.796  0.00  0.00    +0.000 A 
BRANCH   9  12
ATOM     12  N   UNL     1      -1.214  12.040  23.047  0.00  0.00    +0.000 N 
ATOM     13  O   UNL     1      -2.373  11.739  23.363  0.00  0.00    +0.000 OA
ATOM     14  O   UNL     1      -0.627  13.064  23.422  0.00  0.00    +0.000 OA
ENDBRANCH   9  12
ENDBRANCH   3   6
BRANCH   1  15
ATOM     15  C   UNL     1       3.218   5.415  18.476  0.00  0.00    +0.000 C 
BRANCH  15  16
ATOM     16  O   UNL     1       4.376   5.187  19.292  0.00  0.00    +0.000 OA
BRANCH  16  20
ATOM     17  O   UNL     1       5.092   4.365  14.931  0.00  0.00    +0.000 OA
ATOM     18  C   UNL     1       5.534   4.582  16.061  0.00  0.00    +0.000 C 
ATOM     19  C   UNL     1       4.906   3.931  17.275  0.00  0.00    +0.000 C 
ATOM     20  C   UNL     1       5.422   4.449  18.632  0.00  0.00    +0.000 C 
ATOM     21  C   UNL     1       6.645   5.396  18.534  0.00  0.00    +0.000 C 
ATOM     22  C   UNL     1       7.923   4.687  18.133  0.00  0.00    +0.000 C 
ATOM     23  O   UNL     1       7.811   4.518  16.716  0.00  0.00    +0.000 OA
ATOM     24  C   UNL     1       6.775   5.423  16.320  0.00  0.00    +0.000 C 
ATOM     25  O   UNL     1       6.462   6.280  17.420  0.00  0.00    +0.000 OA
ENDBRANCH  16  20
ENDBRANCH  15  16
ENDBRANCH   1  15
TORSDOF 5
ENDMDL
MODEL 9
REMARK VINA RESULT:      -7.6      2.917      3.924
REMARK  Name = 
REMARK  5 active torsions:
REMARK  status: ('A' for Active; 'I' for Inactive)
REMARK    1  A    between atoms: C_4  and  O_5
REMARK    2  A    between atoms: O_5  and  C_6
REMARK    3  A    between atoms: C_6  and  C_7
REMARK    4  A    between atoms: N_9  and  C_10
REMARK    5  A    between atoms: C_13  and  N_14
REMARK                            x       y       z     vdW  Elec       q    Type
REMARK                         _______ _______ _______ _____ _____    ______ ____
ROOT
ATOM      1  C   UNL     1       2.595   7.438  18.405  0.00  0.00    +0.000 A 
ATOM      2  C   UNL     1       2.042   7.764  19.622  0.00  0.00    +0.000 A 
ATOM      3  N   UNL     1       1.461   8.987  19.429  0.00  0.00    +0.000 N 
ATOM      4  N   UNL     1       1.672   9.390  18.153  0.00  0.00    +0.000 NA
ATOM      5  N   UNL     1       2.363   8.451  17.523  0.00  0.00    +0.000 NA
ENDROOT
BRANCH   3   6
ATOM      6  C   UNL     1       0.740   9.785  20.358  0.00  0.00    +0.000 A 
ATOM      7  C   UNL     1       0.250   9.227  21.549  0.00  0.00    +0.000 A 
ATOM      8  C   UNL     1      -0.450  10.025  22.459  0.00  0.00    +0.000 A 
ATOM      9  C   UNL     1      -0.666  11.380  22.174  0.00  0.00    +0.000 A 
ATOM     10  C   UNL     1      -0.184  11.944  20.987  0.00  0.00    +0.000 A 
ATOM     11  C   UNL     1       0.519  11.145  20.080  0.00  0.00    +0.000 A 
BRANCH   9  12
ATOM     12  N   UNL     1      -1.401  12.211  23.134  0.00  0.00    +0.000 N 
ATOM     13  O   UNL     1      -2.522  11.825  23.493  0.00  0.00    +0.000 OA
ATOM     14  O   UNL     1      -0.853  13.246  23.536  0.00  0.00    +0.000 OA
ENDBRANCH   9  12
ENDBRANCH   3   6
BRANCH   1  15
ATOM     15  C   UNL     1       3.346   6.220  18.019  0.00  0.00    +0.000 C 
BRANCH  15  16
ATOM     16  O   UNL     1       3.790   5.514  19.187  0.00  0.00    +0.000 OA
BRANCH  16  20
ATOM     17  O   UNL     1       1.852   2.732  22.140  0.00  0.00    +0.000 OA
ATOM     18  C   UNL     1       2.088   3.052  20.973  0.00  0.00    +0.000 C 
ATOM     19  C   UNL     1       3.464   3.533  20.566  0.00  0.00    +0.000 C 
ATOM     20  C   UNL     1       3.560   4.093  19.133  0.00  0.00    +0.000 C 
ATOM     21  C   UNL     1       2.289   3.876  18.272  0.00  0.00    +0.000 C 
ATOM     22  C   UNL     1       2.074   2.432  17.870  0.00  0.00    +0.000 C 
ATOM     23  O   UNL     1       1.516   1.813  19.034  0.00  0.00    +0.000 OA
ATOM     24  C   UNL     1       1.072   2.902  19.850  0.00  0.00    +0.000 C 
ATOM     25  O   UNL     1       1.131   4.108  19.086  0.00  0.00    +0.000 OA
ENDBRANCH  16  20
ENDBRANCH  15  16
ENDBRANCH   1  15
TORSDOF 5
ENDMDL
