MODEL 1
REMARK VINA RESULT:      -8.9      0.000      0.000
REMARK  Name = 
REMARK  8 active torsions:
REMARK  status: ('A' for Active; 'I' for Inactive)
REMARK    1  A    between atoms: C_1  and  O_2
REMARK    2  A    between atoms: O_2  and  C_3
REMARK    3  A    between atoms: C_6  and  C_7
REMARK    4  A    between atoms: C_8  and  C_9
REMARK    5  A    between atoms: N_11  and  C_12
REMARK    6  A    between atoms: C_16  and  N_17
REMARK    7  A    between atoms: C_25  and  O_26
REMARK    8  A    between atoms: O_26  and  C_27
REMARK                            x       y       z     vdW  Elec       q    Type
REMARK                         _______ _______ _______ _____ _____    ______ ____
ROOT
ATOM      1  C   UNL     1       7.605   7.608  17.850  0.00  0.00    +0.000 C 
ATOM      2  O   UNL     1       8.057   6.772  18.629  0.00  0.00    +0.000 OA
ATOM      3  N   UNL     1       6.569   7.428  16.960  0.00  0.00    +0.000 N 
ATOM      4  H   UNL     1       6.403   8.141  16.262  0.00  0.00    +0.000 HD
ENDROOT
BRANCH   3   5
ATOM      5  C   UNL     1       5.759   6.268  16.894  0.00  0.00    +0.000 A 
ATOM      6  C   UNL     1       6.094   5.165  16.106  0.00  0.00    +0.000 A 
ATOM      7  C   UNL     1       5.280   4.039  16.081  0.00  0.00    +0.000 A 
ATOM      8  C   UNL     1       4.110   4.013  16.836  0.00  0.00    +0.000 A 
ATOM      9  C   UNL     1       3.721   5.109  17.616  0.00  0.00    +0.000 A 
ATOM     10  C   UNL     1       4.583   6.221  17.653  0.00  0.00    +0.000 A 
BRANCH   9  11
ATOM     11  N   UNL     1       2.510   5.084  18.278  0.00  0.00    +0.000 N 
ATOM     12  C   UNL     1       2.308   5.739  19.576  0.00  0.00    +0.000 C 
ATOM     13  C   UNL     1       2.023   4.696  20.663  0.00  0.00    +0.000 C 
ATOM     14  O   UNL     1       0.929   3.838  20.297  0.00  0.00    +0.000 OA
ATOM     15  C   UNL     1       1.236   3.137  19.079  0.00  0.00    +0.000 C 
ATOM     16  C   UNL     1       1.478   4.103  17.908  0.00  0.00    +0.000 C 
ENDBRANCH   9  11
ENDBRANCH   3   5
BRANCH   1  18
ATOM     17  C   UNL     1       8.909   9.371  18.880  0.00  0.00    +0.000 C 
ATOM     18  C   UNL     1       8.215   8.960  17.800  0.00  0.00    +0.000 C 
BRANCH  17  22
ATOM     19  C   UNL     1      10.531  13.311  19.263  0.00  0.00    +0.000 A 
ATOM     20  C   UNL     1      10.579  12.612  18.045  0.00  0.00    +0.000 A 
ATOM     21  C   UNL     1      10.032  11.335  17.923  0.00  0.00    +0.000 A 
ATOM     22  C   UNL     1       9.503  10.691  19.040  0.00  0.00    +0.000 A 
ATOM     23  C   UNL     1       9.524  11.357  20.266  0.00  0.00    +0.000 A 
ATOM     24  C   UNL     1      10.036  12.657  20.400  0.00  0.00    +0.000 A 
BRANCH  19  26
ATOM     25  C   UNL     1       9.953  15.587  18.997  0.00  0.00    +0.000 C 
ATOM     26  O   UNL     1      10.950  14.614  19.334  0.00  0.00    +0.000 OA
ENDBRANCH  19  26
BRANCH  24  27
ATOM     27  O   UNL     1       9.923  13.078  21.694  0.00  0.00    +0.000 OA
ATOM     28  C   UNL     1       8.772  13.774  22.125  0.00  0.00    +0.000 C 
ENDBRANCH  24  27
ENDBRANCH  17  22
ENDBRANCH   1  18
TORSDOF 6
ENDMDL
MODEL 2
REMARK VINA RESULT:      -8.8      0.857      1.826
REMARK  Name = 
REMARK  8 active torsions:
REMARK  status: ('A' for Active; 'I' for Inactive)
REMARK    1  A    between atoms: C_1  and  O_2
REMARK    2  A    between atoms: O_2  and  C_3
REMARK    3  A    between atoms: C_6  and  C_7
REMARK    4  A    between atoms: C_8  and  C_9
REMARK    5  A    between atoms: N_11  and  C_12
REMARK    6  A    between atoms: C_16  and  N_17
REMARK    7  A    between atoms: C_25  and  O_26
REMARK    8  A    between atoms: O_26  and  C_27
REMARK                            x       y       z     vdW  Elec       q    Type
REMARK                         _______ _______ _______ _____ _____    ______ ____
ROOT
ATOM      1  C   UNL     1       7.732   7.763  17.919  0.00  0.00    +0.000 C 
ATOM      2  O   UNL     1       8.166   6.881  18.658  0.00  0.00    +0.000 OA
ATOM      3  N   UNL     1       6.706   7.642  17.009  0.00  0.00    +0.000 N 
ATOM      4  H   UNL     1       6.555   8.393  16.349  0.00  0.00    +0.000 HD
ENDROOT
BRANCH   3   5
ATOM      5  C   UNL     1       5.884   6.496  16.871  0.00  0.00    +0.000 A 
ATOM      6  C   UNL     1       6.224   5.427  16.040  0.00  0.00    +0.000 A 
ATOM      7  C   UNL     1       5.399   4.313  15.944  0.00  0.00    +0.000 A 
ATOM      8  C   UNL     1       4.212   4.266  16.673  0.00  0.00    +0.000 A 
ATOM      9  C   UNL     1       3.819   5.328  17.496  0.00  0.00    +0.000 A 
ATOM     10  C   UNL     1       4.692   6.428  17.603  0.00  0.00    +0.000 A 
BRANCH   9  11
ATOM     11  N   UNL     1       2.594   5.286  18.130  0.00  0.00    +0.000 N 
ATOM     12  C   UNL     1       2.315   6.044  19.355  0.00  0.00    +0.000 C 
ATOM     13  C   UNL     1       2.065   5.091  20.529  0.00  0.00    +0.000 C 
ATOM     14  O   UNL     1       1.037   4.133  20.221  0.00  0.00    +0.000 OA
ATOM     15  C   UNL     1       1.421   3.344  19.082  0.00  0.00    +0.000 C 
ATOM     16  C   UNL     1       1.636   4.211  17.831  0.00  0.00    +0.000 C 
ENDBRANCH   9  11
ENDBRANCH   3   5
BRANCH   1  18
ATOM     17  C   UNL     1       9.075   9.438  19.040  0.00  0.00    +0.000 C 
ATOM     18  C   UNL     1       8.356   9.109  17.949  0.00  0.00    +0.000 C 
BRANCH  17  22
ATOM     19  C   UNL     1      10.971  13.188  19.848  0.00  0.00    +0.000 A 
ATOM     20  C   UNL     1      10.084  12.600  20.766  0.00  0.00    +0.000 A 
ATOM     21  C   UNL     1       9.484  11.368  20.504  0.00  0.00    +0.000 A 
ATOM     22  C   UNL     1       9.687  10.738  19.278  0.00  0.00    +0.000 A 
ATOM     23  C   UNL     1      10.509  11.360  18.337  0.00  0.00    +0.000 A 
ATOM     24  C   UNL     1      11.151  12.581  18.597  0.00  0.00    +0.000 A 
BRANCH  19  26
ATOM     25  C   UNL     1      10.834  15.414  20.627  0.00  0.00    +0.000 C 
ATOM     26  O   UNL     1      11.655  14.329  20.175  0.00  0.00    +0.000 OA
ENDBRANCH  19  26
BRANCH  24  27
ATOM     27  O   UNL     1      11.903  12.959  17.521  0.00  0.00    +0.000 OA
ATOM     28  C   UNL     1      11.356  13.792  16.520  0.00  0.00    +0.000 C 
ENDBRANCH  24  27
ENDBRANCH  17  22
ENDBRANCH   1  18
TORSDOF 6
ENDMDL
MODEL 3
REMARK VINA RESULT:      -8.5      1.203      1.551
REMARK  Name = 
REMARK  8 active torsions:
REMARK  status: ('A' for Active; 'I' for Inactive)
REMARK    1  A    between atoms: C_1  and  O_2
REMARK    2  A    between atoms: O_2  and  C_3
REMARK    3  A    between atoms: C_6  and  C_7
REMARK    4  A    between atoms: C_8  and  C_9
REMARK    5  A    between atoms: N_11  and  C_12
REMARK    6  A    between atoms: C_16  and  N_17
REMARK    7  A    between atoms: C_25  and  O_26
REMARK    8  A    between atoms: O_26  and  C_27
REMARK                            x       y       z     vdW  Elec       q    Type
REMARK                         _______ _______ _______ _____ _____    ______ ____
ROOT
ATOM      1  C   UNL     1       7.853   7.787  17.872  0.00  0.00    +0.000 C 
ATOM      2  O   UNL     1       8.176   7.034  18.789  0.00  0.00    +0.000 OA
ATOM      3  N   UNL     1       7.037   7.481  16.806  0.00  0.00    +0.000 N 
ATOM      4  H   UNL     1       6.982   8.135  16.036  0.00  0.00    +0.000 HD
ENDROOT
BRANCH   3   5
ATOM      5  C   UNL     1       6.320   6.267  16.664  0.00  0.00    +0.000 A 
ATOM      6  C   UNL     1       6.819   5.184  15.937  0.00  0.00    +0.000 A 
ATOM      7  C   UNL     1       6.092   4.004  15.835  0.00  0.00    +0.000 A 
ATOM      8  C   UNL     1       4.846   3.903  16.450  0.00  0.00    +0.000 A 
ATOM      9  C   UNL     1       4.296   4.975  17.163  0.00  0.00    +0.000 A 
ATOM     10  C   UNL     1       5.070   6.145  17.282  0.00  0.00    +0.000 A 
BRANCH   9  11
ATOM     11  N   UNL     1       3.020   4.871  17.680  0.00  0.00    +0.000 N 
ATOM     12  C   UNL     1       2.472   5.849  18.627  0.00  0.00    +0.000 C 
ATOM     13  C   UNL     1       2.223   5.194  19.990  0.00  0.00    +0.000 C 
ATOM     14  O   UNL     1       1.404   4.018  19.868  0.00  0.00    +0.000 OA
ATOM     15  C   UNL     1       2.049   3.051  19.022  0.00  0.00    +0.000 C 
ATOM     16  C   UNL     1       2.287   3.598  17.605  0.00  0.00    +0.000 C 
ENDBRANCH   9  11
ENDBRANCH   3   5
BRANCH   1  18
ATOM     17  C   UNL     1       8.997   9.625  18.958  0.00  0.00    +0.000 C 
ATOM     18  C   UNL     1       8.388   9.171  17.845  0.00  0.00    +0.000 C 
BRANCH  17  22
ATOM     19  C   UNL     1      10.624  13.556  19.406  0.00  0.00    +0.000 A 
ATOM     20  C   UNL     1      11.149  12.459  20.112  0.00  0.00    +0.000 A 
ATOM     21  C   UNL     1      10.625  11.177  19.946  0.00  0.00    +0.000 A 
ATOM     22  C   UNL     1       9.506  10.978  19.140  0.00  0.00    +0.000 A 
ATOM     23  C   UNL     1       8.940  12.081  18.499  0.00  0.00    +0.000 A 
ATOM     24  C   UNL     1       9.476  13.372  18.624  0.00  0.00    +0.000 A 
BRANCH  19  26
ATOM     25  C   UNL     1      12.310  14.974  18.548  0.00  0.00    +0.000 C 
ATOM     26  O   UNL     1      11.233  14.782  19.476  0.00  0.00    +0.000 OA
ENDBRANCH  19  26
BRANCH  24  27
ATOM     27  O   UNL     1       8.745  14.261  17.888  0.00  0.00    +0.000 OA
ATOM     28  C   UNL     1       8.005  15.283  18.523  0.00  0.00    +0.000 C 
ENDBRANCH  24  27
ENDBRANCH  17  22
ENDBRANCH   1  18
TORSDOF 6
ENDMDL
MODEL 4
REMARK VINA RESULT:      -8.5      1.016      2.098
REMARK  Name = 
REMARK  8 active torsions:
REMARK  status: ('A' for Active; 'I' for Inactive)
REMARK    1  A    between atoms: C_1  and  O_2
REMARK    2  A    between atoms: O_2  and  C_3
REMARK    3  A    between atoms: C_6  and  C_7
REMARK    4  A    between atoms: C_8  and  C_9
REMARK    5  A    between atoms: N_11  and  C_12
REMARK    6  A    between atoms: C_16  and  N_17
REMARK    7  A    between atoms: C_25  and  O_26
REMARK    8  A    between atoms: O_26  and  C_27
REMARK                            x       y       z     vdW  Elec       q    Type
REMARK                         _______ _______ _______ _____ _____    ______ ____
ROOT
ATOM      1  C   UNL     1       7.723   7.702  17.895  0.00  0.00    +0.000 C 
ATOM      2  O   UNL     1       8.197   6.848  18.642  0.00  0.00    +0.000 OA
ATOM      3  N   UNL     1       6.773   7.505  16.919  0.00  0.00    +0.000 N 
ATOM      4  H   UNL     1       6.589   8.255  16.266  0.00  0.00    +0.000 HD
ENDROOT
BRANCH   3   5
ATOM      5  C   UNL     1       6.081   6.288  16.704  0.00  0.00    +0.000 A 
ATOM      6  C   UNL     1       6.153   5.588  15.498  0.00  0.00    +0.000 A 
ATOM      7  C   UNL     1       5.472   4.389  15.333  0.00  0.00    +0.000 A 
ATOM      8  C   UNL     1       4.696   3.883  16.374  0.00  0.00    +0.000 A 
ATOM      9  C   UNL     1       4.573   4.567  17.590  0.00  0.00    +0.000 A 
ATOM     10  C   UNL     1       5.304   5.761  17.743  0.00  0.00    +0.000 A 
BRANCH   9  11
ATOM     11  N   UNL     1       3.724   4.084  18.564  0.00  0.00    +0.000 N 
ATOM     12  C   UNL     1       2.673   3.101  18.277  0.00  0.00    +0.000 C 
ATOM     13  C   UNL     1       1.287   3.718  18.495  0.00  0.00    +0.000 C 
ATOM     14  O   UNL     1       1.166   4.294  19.807  0.00  0.00    +0.000 OA
ATOM     15  C   UNL     1       2.148   5.330  19.986  0.00  0.00    +0.000 C 
ATOM     16  C   UNL     1       3.581   4.791  19.847  0.00  0.00    +0.000 C 
ENDBRANCH   9  11
ENDBRANCH   3   5
BRANCH   1  18
ATOM     17  C   UNL     1       9.104   9.386  18.958  0.00  0.00    +0.000 C 
ATOM     18  C   UNL     1       8.206   9.102  17.993  0.00  0.00    +0.000 C 
BRANCH  17  22
ATOM     19  C   UNL     1      10.724  13.222  19.940  0.00  0.00    +0.000 A 
ATOM     20  C   UNL     1       9.826  12.562  20.797  0.00  0.00    +0.000 A 
ATOM     21  C   UNL     1       9.316  11.303  20.479  0.00  0.00    +0.000 A 
ATOM     22  C   UNL     1       9.622  10.714  19.254  0.00  0.00    +0.000 A 
ATOM     23  C   UNL     1      10.455  11.404  18.371  0.00  0.00    +0.000 A 
ATOM     24  C   UNL     1      11.006  12.655  18.690  0.00  0.00    +0.000 A 
BRANCH  19  26
ATOM     25  C   UNL     1      10.491  15.558  20.208  0.00  0.00    +0.000 C 
ATOM     26  O   UNL     1      11.319  14.394  20.326  0.00  0.00    +0.000 OA
ENDBRANCH  19  26
BRANCH  24  27
ATOM     27  O   UNL     1      11.791  13.101  17.664  0.00  0.00    +0.000 OA
ATOM     28  C   UNL     1      11.334  14.122  16.802  0.00  0.00    +0.000 C 
ENDBRANCH  24  27
ENDBRANCH  17  22
ENDBRANCH   1  18
TORSDOF 6
ENDMDL
MODEL 5
REMARK VINA RESULT:      -8.5      1.364      1.984
REMARK  Name = 
REMARK  8 active torsions:
REMARK  status: ('A' for Active; 'I' for Inactive)
REMARK    1  A    between atoms: C_1  and  O_2
REMARK    2  A    between atoms: O_2  and  C_3
REMARK    3  A    between atoms: C_6  and  C_7
REMARK    4  A    between atoms: C_8  and  C_9
REMARK    5  A    between atoms: N_11  and  C_12
REMARK    6  A    between atoms: C_16  and  N_17
REMARK    7  A    between atoms: C_25  and  O_26
REMARK    8  A    between atoms: O_26  and  C_27
REMARK                            x       y       z     vdW  Elec       q    Type
REMARK                         _______ _______ _______ _____ _____    ______ ____
ROOT
ATOM      1  C   UNL     1       7.804   7.729  17.825  0.00  0.00    +0.000 C 
ATOM      2  O   UNL     1       8.209   6.980  18.711  0.00  0.00    +0.000 OA
ATOM      3  N   UNL     1       6.997   7.387  16.763  0.00  0.00    +0.000 N 
ATOM      4  H   UNL     1       6.872   8.057  16.016  0.00  0.00    +0.000 HD
ENDROOT
BRANCH   3   5
ATOM      5  C   UNL     1       6.385   6.120  16.593  0.00  0.00    +0.000 A 
ATOM      6  C   UNL     1       6.709   5.269  15.535  0.00  0.00    +0.000 A 
ATOM      7  C   UNL     1       6.097   4.027  15.413  0.00  0.00    +0.000 A 
ATOM      8  C   UNL     1       5.141   3.631  16.346  0.00  0.00    +0.000 A 
ATOM      9  C   UNL     1       4.766   4.466  17.405  0.00  0.00    +0.000 A 
ATOM     10  C   UNL     1       5.428   5.703  17.526  0.00  0.00    +0.000 A 
BRANCH   9  11
ATOM     11  N   UNL     1       3.750   4.080  18.256  0.00  0.00    +0.000 N 
ATOM     12  C   UNL     1       3.679   2.734  18.837  0.00  0.00    +0.000 C 
ATOM     13  C   UNL     1       2.447   1.988  18.310  0.00  0.00    +0.000 C 
ATOM     14  O   UNL     1       1.243   2.747  18.514  0.00  0.00    +0.000 OA
ATOM     15  C   UNL     1       1.328   4.006  17.825  0.00  0.00    +0.000 C 
ATOM     16  C   UNL     1       2.504   4.858  18.332  0.00  0.00    +0.000 C 
ENDBRANCH   9  11
ENDBRANCH   3   5
BRANCH   1  18
ATOM     17  C   UNL     1       8.982   9.576  18.861  0.00  0.00    +0.000 C 
ATOM     18  C   UNL     1       8.217   9.155  17.834  0.00  0.00    +0.000 C 
BRANCH  17  22
ATOM     19  C   UNL     1      10.387  13.575  19.438  0.00  0.00    +0.000 A 
ATOM     20  C   UNL     1      10.787  12.526  20.284  0.00  0.00    +0.000 A 
ATOM     21  C   UNL     1      10.339  11.221  20.078  0.00  0.00    +0.000 A 
ATOM     22  C   UNL     1       9.410  10.951  19.076  0.00  0.00    +0.000 A 
ATOM     23  C   UNL     1       8.956  12.007  18.285  0.00  0.00    +0.000 A 
ATOM     24  C   UNL     1       9.423  13.320  18.453  0.00  0.00    +0.000 A 
BRANCH  19  26
ATOM     25  C   UNL     1      12.132  15.038  18.804  0.00  0.00    +0.000 C 
ATOM     26  O   UNL     1      10.938  14.823  19.570  0.00  0.00    +0.000 OA
ENDBRANCH  19  26
BRANCH  24  27
ATOM     27  O   UNL     1       8.832  14.152  17.546  0.00  0.00    +0.000 OA
ATOM     28  C   UNL     1       7.957  15.176  17.973  0.00  0.00    +0.000 C 
ENDBRANCH  24  27
ENDBRANCH  17  22
ENDBRANCH   1  18
TORSDOF 6
ENDMDL
MODEL 6
REMARK VINA RESULT:      -8.5      0.956      1.274
REMARK  Name = 
REMARK  8 active torsions:
REMARK  status: ('A' for Active; 'I' for Inactive)
REMARK    1  A    between atoms: C_1  and  O_2
REMARK    2  A    between atoms: O_2  and  C_3
REMARK    3  A    between atoms: C_6  and  C_7
REMARK    4  A    between atoms: C_8  and  C_9
REMARK    5  A    between atoms: N_11  and  C_12
REMARK    6  A    between atoms: C_16  and  N_17
REMARK    7  A    between atoms: C_25  and  O_26
REMARK    8  A    between atoms: O_26  and  C_27
REMARK                            x       y       z     vdW  Elec       q    Type
REMARK                         _______ _______ _______ _____ _____    ______ ____
ROOT
ATOM      1  C   UNL     1       7.689   7.643  17.887  0.00  0.00    +0.000 C 
ATOM      2  O   UNL     1       8.234   6.832  18.634  0.00  0.00    +0.000 OA
ATOM      3  N   UNL     1       6.677   7.384  16.991  0.00  0.00    +0.000 N 
ATOM      4  H   UNL     1       6.430   8.100  16.321  0.00  0.00    +0.000 HD
ENDROOT
BRANCH   3   5
ATOM      5  C   UNL     1       5.998   6.145  16.879  0.00  0.00    +0.000 A 
ATOM      6  C   UNL     1       5.949   5.424  15.685  0.00  0.00    +0.000 A 
ATOM      7  C   UNL     1       5.287   4.204  15.621  0.00  0.00    +0.000 A 
ATOM      8  C   UNL     1       4.652   3.700  16.754  0.00  0.00    +0.000 A 
ATOM      9  C   UNL     1       4.652   4.405  17.964  0.00  0.00    +0.000 A 
ATOM     10  C   UNL     1       5.362   5.620  18.011  0.00  0.00    +0.000 A 
BRANCH   9  11
ATOM     11  N   UNL     1       3.936   3.920  19.039  0.00  0.00    +0.000 N 
ATOM     12  C   UNL     1       3.688   2.487  19.239  0.00  0.00    +0.000 C 
ATOM     13  C   UNL     1       2.191   2.180  19.118  0.00  0.00    +0.000 C 
ATOM     14  O   UNL     1       1.411   3.008  19.998  0.00  0.00    +0.000 OA
ATOM     15  C   UNL     1       1.607   4.396  19.676  0.00  0.00    +0.000 C 
ATOM     16  C   UNL     1       3.079   4.816  19.830  0.00  0.00    +0.000 C 
ENDBRANCH   9  11
ENDBRANCH   3   5
BRANCH   1  18
ATOM     17  C   UNL     1       9.032   9.421  18.837  0.00  0.00    +0.000 C 
ATOM     18  C   UNL     1       8.147   9.055  17.890  0.00  0.00    +0.000 C 
BRANCH  17  22
ATOM     19  C   UNL     1      10.349  13.458  19.361  0.00  0.00    +0.000 A 
ATOM     20  C   UNL     1      10.393  12.828  18.105  0.00  0.00    +0.000 A 
ATOM     21  C   UNL     1       9.944  11.517  17.939  0.00  0.00    +0.000 A 
ATOM     22  C   UNL     1       9.526  10.776  19.042  0.00  0.00    +0.000 A 
ATOM     23  C   UNL     1       9.553  11.379  20.300  0.00  0.00    +0.000 A 
ATOM     24  C   UNL     1       9.966  12.708  20.482  0.00  0.00    +0.000 A 
BRANCH  19  26
ATOM     25  C   UNL     1      12.033  15.107  19.196  0.00  0.00    +0.000 C 
ATOM     26  O   UNL     1      10.666  14.785  19.484  0.00  0.00    +0.000 OA
ENDBRANCH  19  26
BRANCH  24  27
ATOM     27  O   UNL     1       9.884  13.052  21.801  0.00  0.00    +0.000 OA
ATOM     28  C   UNL     1       8.709  13.644  22.317  0.00  0.00    +0.000 C 
ENDBRANCH  24  27
ENDBRANCH  17  22
ENDBRANCH   1  18
TORSDOF 6
ENDMDL
MODEL 7
REMARK VINA RESULT:      -8.2      1.385      1.662
REMARK  Name = 
REMARK  8 active torsions:
REMARK  status: ('A' for Active; 'I' for Inactive)
REMARK    1  A    between atoms: C_1  and  O_2
REMARK    2  A    between atoms: O_2  and  C_3
REMARK    3  A    between atoms: C_6  and  C_7
REMARK    4  A    between atoms: C_8  and  C_9
REMARK    5  A    between atoms: N_11  and  C_12
REMARK    6  A    between atoms: C_16  and  N_17
REMARK    7  A    between atoms: C_25  and  O_26
REMARK    8  A    between atoms: O_26  and  C_27
REMARK                            x       y       z     vdW  Elec       q    Type
REMARK                         _______ _______ _______ _____ _____    ______ ____
ROOT
ATOM      1  C   UNL     1       7.952   7.530  18.227  0.00  0.00    +0.000 C 
ATOM      2  O   UNL     1       8.236   6.590  18.967  0.00  0.00    +0.000 OA
ATOM      3  N   UNL     1       7.007   7.532  17.226  0.00  0.00    +0.000 N 
ATOM      4  H   UNL     1       6.985   8.313  16.584  0.00  0.00    +0.000 HD
ENDROOT
BRANCH   3   5
ATOM      5  C   UNL     1       6.102   6.472  16.973  0.00  0.00    +0.000 A 
ATOM      6  C   UNL     1       6.370   5.465  16.043  0.00  0.00    +0.000 A 
ATOM      7  C   UNL     1       5.463   4.433  15.835  0.00  0.00    +0.000 A 
ATOM      8  C   UNL     1       4.267   4.408  16.549  0.00  0.00    +0.000 A 
ATOM      9  C   UNL     1       3.945   5.413  17.469  0.00  0.00    +0.000 A 
ATOM     10  C   UNL     1       4.898   6.426  17.687  0.00  0.00    +0.000 A 
BRANCH   9  11
ATOM     11  N   UNL     1       2.712   5.406  18.089  0.00  0.00    +0.000 N 
ATOM     12  C   UNL     1       2.465   6.099  19.358  0.00  0.00    +0.000 C 
ATOM     13  C   UNL     1       2.143   5.090  20.466  0.00  0.00    +0.000 C 
ATOM     14  O   UNL     1       1.064   4.218  20.089  0.00  0.00    +0.000 OA
ATOM     15  C   UNL     1       1.413   3.481  18.904  0.00  0.00    +0.000 C 
ATOM     16  C   UNL     1       1.694   4.412  17.713  0.00  0.00    +0.000 C 
ENDBRANCH   9  11
ENDBRANCH   3   5
BRANCH   1  18
ATOM     17  C   UNL     1       8.085   9.929  17.917  0.00  0.00    +0.000 C 
ATOM     18  C   UNL     1       8.690   8.810  18.364  0.00  0.00    +0.000 C 
BRANCH  17  22
ATOM     19  C   UNL     1       9.759  13.865  17.974  0.00  0.00    +0.000 A 
ATOM     20  C   UNL     1       8.472  13.621  17.463  0.00  0.00    +0.000 A 
ATOM     21  C   UNL     1       7.926  12.338  17.465  0.00  0.00    +0.000 A 
ATOM     22  C   UNL     1       8.689  11.254  17.895  0.00  0.00    +0.000 A 
ATOM     23  C   UNL     1       9.993  11.488  18.332  0.00  0.00    +0.000 A 
ATOM     24  C   UNL     1      10.547  12.777  18.372  0.00  0.00    +0.000 A 
BRANCH  19  26
ATOM     25  C   UNL     1      10.975  15.619  16.959  0.00  0.00    +0.000 C 
ATOM     26  O   UNL     1      10.229  15.148  18.089  0.00  0.00    +0.000 OA
ENDBRANCH  19  26
BRANCH  24  27
ATOM     27  O   UNL     1      11.825  12.728  18.851  0.00  0.00    +0.000 OA
ATOM     28  C   UNL     1      12.333  11.540  19.422  0.00  0.00    +0.000 C 
ENDBRANCH  24  27
ENDBRANCH  17  22
ENDBRANCH   1  18
TORSDOF 6
ENDMDL
MODEL 8
REMARK VINA RESULT:      -8.1      1.057      1.881
REMARK  Name = 
REMARK  8 active torsions:
REMARK  status: ('A' for Active; 'I' for Inactive)
REMARK    1  A    between atoms: C_1  and  O_2
REMARK    2  A    between atoms: O_2  and  C_3
REMARK    3  A    between atoms: C_6  and  C_7
REMARK    4  A    between atoms: C_8  and  C_9
REMARK    5  A    between atoms: N_11  and  C_12
REMARK    6  A    between atoms: C_16  and  N_17
REMARK    7  A    between atoms: C_25  and  O_26
REMARK    8  A    between atoms: O_26  and  C_27
REMARK                            x       y       z     vdW  Elec       q    Type
REMARK                         _______ _______ _______ _____ _____    ______ ____
ROOT
ATOM      1  C   UNL     1       7.212   7.703  17.235  0.00  0.00    +0.000 C 
ATOM      2  O   UNL     1       7.981   6.842  16.812  0.00  0.00    +0.000 OA
ATOM      3  N   UNL     1       5.862   7.559  17.461  0.00  0.00    +0.000 N 
ATOM      4  H   UNL     1       5.314   8.387  17.653  0.00  0.00    +0.000 HD
ENDROOT
BRANCH   3   5
ATOM      5  C   UNL     1       5.155   6.335  17.365  0.00  0.00    +0.000 A 
ATOM      6  C   UNL     1       5.465   5.365  16.409  0.00  0.00    +0.000 A 
ATOM      7  C   UNL     1       4.759   4.170  16.358  0.00  0.00    +0.000 A 
ATOM      8  C   UNL     1       3.721   3.939  17.258  0.00  0.00    +0.000 A 
ATOM      9  C   UNL     1       3.358   4.897  18.213  0.00  0.00    +0.000 A 
ATOM     10  C   UNL     1       4.115   6.083  18.267  0.00  0.00    +0.000 A 
BRANCH   9  11
ATOM     11  N   UNL     1       2.266   4.673  19.026  0.00  0.00    +0.000 N 
ATOM     12  C   UNL     1       2.193   5.177  20.403  0.00  0.00    +0.000 C 
ATOM     13  C   UNL     1       2.175   4.012  21.399  0.00  0.00    +0.000 C 
ATOM     14  O   UNL     1       1.129   3.073  21.094  0.00  0.00    +0.000 OA
ATOM     15  C   UNL     1       1.322   2.528  19.777  0.00  0.00    +0.000 C 
ATOM     16  C   UNL     1       1.293   3.621  18.696  0.00  0.00    +0.000 C 
ENDBRANCH   9  11
ENDBRANCH   3   5
BRANCH   1  18
ATOM     17  C   UNL     1       8.642   9.184  18.512  0.00  0.00    +0.000 C 
ATOM     18  C   UNL     1       7.732   9.062  17.525  0.00  0.00    +0.000 C 
BRANCH  17  22
ATOM     19  C   UNL     1      10.415  12.811  19.928  0.00  0.00    +0.000 A 
ATOM     20  C   UNL     1      10.108  11.753  20.802  0.00  0.00    +0.000 A 
ATOM     21  C   UNL     1       9.547  10.566  20.329  0.00  0.00    +0.000 A 
ATOM     22  C   UNL     1       9.197  10.445  18.987  0.00  0.00    +0.000 A 
ATOM     23  C   UNL     1       9.434  11.524  18.135  0.00  0.00    +0.000 A 
ATOM     24  C   UNL     1      10.031  12.712  18.584  0.00  0.00    +0.000 A 
BRANCH  19  26
ATOM     25  C   UNL     1      10.252  14.952  20.915  0.00  0.00    +0.000 C 
ATOM     26  O   UNL     1      11.088  13.915  20.383  0.00  0.00    +0.000 OA
ENDBRANCH  19  26
BRANCH  24  27
ATOM     27  O   UNL     1      10.160  13.596  17.551  0.00  0.00    +0.000 OA
ATOM     28  C   UNL     1      11.396  13.744  16.883  0.00  0.00    +0.000 C 
ENDBRANCH  24  27
ENDBRANCH  17  22
ENDBRANCH   1  18
TORSDOF 6
ENDMDL
MODEL 9
REMARK VINA RESULT:      -8.1      1.229      1.590
REMARK  Name = 
REMARK  8 active torsions:
REMARK  status: ('A' for Active; 'I' for Inactive)
REMARK    1  A    between atoms: C_1  and  O_2
REMARK    2  A    between atoms: O_2  and  C_3
REMARK    3  A    between atoms: C_6  and  C_7
REMARK    4  A    between atoms: C_8  and  C_9
REMARK    5  A    between atoms: N_11  and  C_12
REMARK    6  A    between atoms: C_16  and  N_17
REMARK    7  A    between atoms: C_25  and  O_26
REMARK    8  A    between atoms: O_26  and  C_27
REMARK                            x       y       z     vdW  Elec       q    Type
REMARK                         _______ _______ _______ _____ _____    ______ ____
ROOT
ATOM      1  C   UNL     1       7.602   7.160  17.695  0.00  0.00    +0.000 C 
ATOM      2  O   UNL     1       7.779   7.043  16.484  0.00  0.00    +0.000 OA
ATOM      3  N   UNL     1       6.656   6.509  18.454  0.00  0.00    +0.000 N 
ATOM      4  H   UNL     1       6.507   6.816  19.406  0.00  0.00    +0.000 HD
ENDROOT
BRANCH   3   5
ATOM      5  C   UNL     1       5.805   5.484  17.973  0.00  0.00    +0.000 A 
ATOM      6  C   UNL     1       5.784   5.096  16.632  0.00  0.00    +0.000 A 
ATOM      7  C   UNL     1       4.946   4.074  16.203  0.00  0.00    +0.000 A 
ATOM      8  C   UNL     1       4.107   3.437  17.115  0.00  0.00    +0.000 A 
ATOM      9  C   UNL     1       4.075   3.815  18.463  0.00  0.00    +0.000 A 
ATOM     10  C   UNL     1       4.961   4.828  18.878  0.00  0.00    +0.000 A 
BRANCH   9  11
ATOM     11  N   UNL     1       3.165   3.226  19.318  0.00  0.00    +0.000 N 
ATOM     12  C   UNL     1       2.361   2.061  18.931  0.00  0.00    +0.000 C 
ATOM     13  C   UNL     1       0.874   2.430  18.879  0.00  0.00    +0.000 C 
ATOM     14  O   UNL     1       0.435   3.024  20.113  0.00  0.00    +0.000 OA
ATOM     15  C   UNL     1       1.181   4.225  20.377  0.00  0.00    +0.000 C 
ATOM     16  C   UNL     1       2.688   3.945  20.509  0.00  0.00    +0.000 C 
ENDBRANCH   9  11
ENDBRANCH   3   5
BRANCH   1  18
ATOM     17  C   UNL     1       8.448   9.396  18.084  0.00  0.00    +0.000 C 
ATOM     18  C   UNL     1       8.450   8.104  18.465  0.00  0.00    +0.000 C 
BRANCH  17  22
ATOM     19  C   UNL     1      10.796  12.578  19.717  0.00  0.00    +0.000 A 
ATOM     20  C   UNL     1      10.933  12.176  18.376  0.00  0.00    +0.000 A 
ATOM     21  C   UNL     1      10.150  11.151  17.846  0.00  0.00    +0.000 A 
ATOM     22  C   UNL     1       9.276  10.442  18.668  0.00  0.00    +0.000 A 
ATOM     23  C   UNL     1       9.196  10.793  20.016  0.00  0.00    +0.000 A 
ATOM     24  C   UNL     1       9.948  11.846  20.559  0.00  0.00    +0.000 A 
BRANCH  19  26
ATOM     25  C   UNL     1      11.001  14.932  19.688  0.00  0.00    +0.000 C 
ATOM     26  O   UNL     1      11.473  13.673  20.187  0.00  0.00    +0.000 OA
ENDBRANCH  19  26
BRANCH  24  27
ATOM     27  O   UNL     1       9.672  11.988  21.889  0.00  0.00    +0.000 OA
ATOM     28  C   UNL     1       8.710  12.925  22.328  0.00  0.00    +0.000 C 
ENDBRANCH  24  27
ENDBRANCH  17  22
ENDBRANCH   1  18
TORSDOF 6
ENDMDL
