MODEL 1
REMARK VINA RESULT:      -6.9      0.000      0.000
REMARK  Name = 
REMARK  10 active torsions:
REMARK  status: ('A' for Active; 'I' for Inactive)
REMARK    1  A    between atoms: C_1  and  C_2
REMARK    2  A    between atoms: C_2  and  N_3
REMARK    3  A    between atoms: N_3  and  C_4
REMARK    4  A    between atoms: N_3  and  C_6
REMARK    5  A    between atoms: N_3  and  C_8
REMARK    6  A    between atoms: C_4  and  C_5
REMARK    7  A    between atoms: C_6  and  C_7
REMARK    8  A    between atoms: C_8  and  C_9
REMARK    9  A    between atoms: C_15  and  O_16
REMARK   10  A    between atoms: O_16  and  C_17
REMARK                            x       y       z     vdW  Elec       q    Type
REMARK                         _______ _______ _______ _____ _____    ______ ____
ROOT
ATOM      1  C   UNL     1       3.193   5.847  18.146  0.00  0.00    +0.000 A 
ATOM      2  C   UNL     1       2.697   7.180  18.193  0.00  0.00    +0.000 A 
ATOM      3  C   UNL     1       2.709   8.314  17.321  0.00  0.00    +0.000 A 
ATOM      4  C   UNL     1       2.255   9.389  18.046  0.00  0.00    +0.000 A 
ATOM      5  O   UNL     1       1.849   8.982  19.264  0.00  0.00    +0.000 OA
ATOM      6  C   UNL     1       2.064   7.635  19.345  0.00  0.00    +0.000 A 
ATOM      7  C   UNL     1       1.719   6.853  20.452  0.00  0.00    +0.000 A 
ATOM      8  C   UNL     1       2.021   5.491  20.286  0.00  0.00    +0.000 A 
ATOM      9  O   UNL     1       1.706   4.616  21.361  0.00  0.00    +0.000 OA
ATOM     10  C   UNL     1       1.963   3.255  21.345  0.00  0.00    +0.000 A 
ATOM     11  O   UNL     1       1.804   2.541  22.324  0.00  0.00    +0.000 OA
ATOM     12  C   UNL     1       2.395   2.712  20.058  0.00  0.00    +0.000 A 
ATOM     13  C   UNL     1       2.736   3.514  19.033  0.00  0.00    +0.000 A 
ATOM     14  C   UNL     1       2.681   4.974  19.154  0.00  0.00    +0.000 A 
ENDROOT
BRANCH   7  15
ATOM     15  O   UNL     1       1.143   7.505  21.494  0.00  0.00    +0.000 OA
ATOM     16  C   UNL     1      -0.173   8.016  21.362  0.00  0.00    +0.000 C 
ENDBRANCH   7  15
BRANCH   1  17
ATOM     17  C   UNL     1       4.283   5.396  17.166  0.00  0.00    +0.000 C 
BRANCH  17  18
ATOM     18  N   UNL     1       5.785   5.744  17.568  0.00  0.00    +0.000 N 
BRANCH  18  20
ATOM     19  C   UNL     1       7.615   7.537  17.442  0.00  0.00    +0.000 C 
ATOM     20  C   UNL     1       6.182   7.153  17.093  0.00  0.00    +0.000 C 
ENDBRANCH  18  20
BRANCH  18  21
ATOM     21  C   UNL     1       6.734   4.683  16.904  0.00  0.00    +0.000 C 
ATOM     22  C   UNL     1       6.133   4.052  15.647  0.00  0.00    +0.000 C 
ENDBRANCH  18  21
BRANCH  18  23
ATOM     23  C   UNL     1       5.954   5.705  19.109  0.00  0.00    +0.000 C 
ATOM     24  C   UNL     1       7.350   5.335  19.593  0.00  0.00    +0.000 C 
ENDBRANCH  18  23
ENDBRANCH  17  18
ENDBRANCH   1  17
TORSDOF 6
ENDMDL
MODEL 2
REMARK VINA RESULT:      -6.8      0.414      1.790
REMARK  Name = 
REMARK  10 active torsions:
REMARK  status: ('A' for Active; 'I' for Inactive)
REMARK    1  A    between atoms: C_1  and  C_2
REMARK    2  A    between atoms: C_2  and  N_3
REMARK    3  A    between atoms: N_3  and  C_4
REMARK    4  A    between atoms: N_3  and  C_6
REMARK    5  A    between atoms: N_3  and  C_8
REMARK    6  A    between atoms: C_4  and  C_5
REMARK    7  A    between atoms: C_6  and  C_7
REMARK    8  A    between atoms: C_8  and  C_9
REMARK    9  A    between atoms: C_15  and  O_16
REMARK   10  A    between atoms: O_16  and  C_17
REMARK                            x       y       z     vdW  Elec       q    Type
REMARK                         _______ _______ _______ _____ _____    ______ ____
ROOT
ATOM      1  C   UNL     1       3.018   6.003  18.090  0.00  0.00    +0.000 A 
ATOM      2  C   UNL     1       2.576   7.352  18.194  0.00  0.00    +0.000 A 
ATOM      3  C   UNL     1       2.607   8.513  17.358  0.00  0.00    +0.000 A 
ATOM      4  C   UNL     1       2.216   9.580  18.129  0.00  0.00    +0.000 A 
ATOM      5  O   UNL     1       1.830   9.149  19.346  0.00  0.00    +0.000 OA
ATOM      6  C   UNL     1       1.995   7.793  19.378  0.00  0.00    +0.000 A 
ATOM      7  C   UNL     1       1.652   6.990  20.471  0.00  0.00    +0.000 A 
ATOM      8  C   UNL     1       1.895   5.623  20.253  0.00  0.00    +0.000 A 
ATOM      9  O   UNL     1       1.578   4.726  21.309  0.00  0.00    +0.000 OA
ATOM     10  C   UNL     1       1.781   3.359  21.243  0.00  0.00    +0.000 A 
ATOM     11  O   UNL     1       1.622   2.619  22.204  0.00  0.00    +0.000 OA
ATOM     12  C   UNL     1       2.154   2.841  19.928  0.00  0.00    +0.000 A 
ATOM     13  C   UNL     1       2.497   3.661  18.919  0.00  0.00    +0.000 A 
ATOM     14  C   UNL     1       2.501   5.118  19.086  0.00  0.00    +0.000 A 
ENDROOT
BRANCH   7  15
ATOM     15  O   UNL     1       1.132   7.629  21.549  0.00  0.00    +0.000 OA
ATOM     16  C   UNL     1      -0.176   8.174  21.480  0.00  0.00    +0.000 C 
ENDBRANCH   7  15
BRANCH   1  17
ATOM     17  C   UNL     1       4.061   5.543  17.065  0.00  0.00    +0.000 C 
BRANCH  17  18
ATOM     18  N   UNL     1       5.589   5.696  17.491  0.00  0.00    +0.000 N 
BRANCH  18  20
ATOM     19  C   UNL     1       5.931   4.042  19.421  0.00  0.00    +0.000 C 
ATOM     20  C   UNL     1       5.773   5.500  19.006  0.00  0.00    +0.000 C 
ENDBRANCH  18  20
BRANCH  18  21
ATOM     21  C   UNL     1       6.074   7.134  17.088  0.00  0.00    +0.000 C 
ATOM     22  C   UNL     1       7.515   7.417  17.518  0.00  0.00    +0.000 C 
ENDBRANCH  18  21
BRANCH  18  23
ATOM     23  C   UNL     1       6.458   4.631  16.772  0.00  0.00    +0.000 C 
ATOM     24  C   UNL     1       5.784   3.939  15.594  0.00  0.00    +0.000 C 
ENDBRANCH  18  23
ENDBRANCH  17  18
ENDBRANCH   1  17
TORSDOF 6
ENDMDL
MODEL 3
REMARK VINA RESULT:      -6.8      0.423      1.612
REMARK  Name = 
REMARK  10 active torsions:
REMARK  status: ('A' for Active; 'I' for Inactive)
REMARK    1  A    between atoms: C_1  and  C_2
REMARK    2  A    between atoms: C_2  and  N_3
REMARK    3  A    between atoms: N_3  and  C_4
REMARK    4  A    between atoms: N_3  and  C_6
REMARK    5  A    between atoms: N_3  and  C_8
REMARK    6  A    between atoms: C_4  and  C_5
REMARK    7  A    between atoms: C_6  and  C_7
REMARK    8  A    between atoms: C_8  and  C_9
REMARK    9  A    between atoms: C_15  and  O_16
REMARK   10  A    between atoms: O_16  and  C_17
REMARK                            x       y       z     vdW  Elec       q    Type
REMARK                         _______ _______ _______ _____ _____    ______ ____
ROOT
ATOM      1  C   UNL     1       3.001   5.941  18.096  0.00  0.00    +0.000 A 
ATOM      2  C   UNL     1       2.574   7.295  18.200  0.00  0.00    +0.000 A 
ATOM      3  C   UNL     1       2.616   8.454  17.364  0.00  0.00    +0.000 A 
ATOM      4  C   UNL     1       2.237   9.526  18.135  0.00  0.00    +0.000 A 
ATOM      5  O   UNL     1       1.848   9.100  19.352  0.00  0.00    +0.000 OA
ATOM      6  C   UNL     1       1.999   7.742  19.384  0.00  0.00    +0.000 A 
ATOM      7  C   UNL     1       1.648   6.942  20.478  0.00  0.00    +0.000 A 
ATOM      8  C   UNL     1       1.878   5.573  20.260  0.00  0.00    +0.000 A 
ATOM      9  O   UNL     1       1.552   4.680  21.317  0.00  0.00    +0.000 OA
ATOM     10  C   UNL     1       1.740   3.311  21.252  0.00  0.00    +0.000 A 
ATOM     11  O   UNL     1       1.575   2.573  22.212  0.00  0.00    +0.000 OA
ATOM     12  C   UNL     1       2.106   2.788  19.936  0.00  0.00    +0.000 A 
ATOM     13  C   UNL     1       2.457   3.605  18.926  0.00  0.00    +0.000 A 
ATOM     14  C   UNL     1       2.477   5.062  19.093  0.00  0.00    +0.000 A 
ENDROOT
BRANCH   7  15
ATOM     15  O   UNL     1       1.137   7.587  21.557  0.00  0.00    +0.000 OA
ATOM     16  C   UNL     1      -0.167   8.143  21.490  0.00  0.00    +0.000 C 
ENDBRANCH   7  15
BRANCH   1  17
ATOM     17  C   UNL     1       4.039   5.470  17.070  0.00  0.00    +0.000 C 
BRANCH  17  18
ATOM     18  N   UNL     1       5.569   5.657  17.471  0.00  0.00    +0.000 N 
BRANCH  18  20
ATOM     19  C   UNL     1       5.793   3.944  15.575  0.00  0.00    +0.000 C 
ATOM     20  C   UNL     1       6.467   4.630  16.757  0.00  0.00    +0.000 C 
ENDBRANCH  18  20
BRANCH  18  21
ATOM     21  C   UNL     1       5.700   5.474  19.025  0.00  0.00    +0.000 C 
ATOM     22  C   UNL     1       5.892   4.013  19.437  0.00  0.00    +0.000 C 
ENDBRANCH  18  21
BRANCH  18  23
ATOM     23  C   UNL     1       6.064   7.071  17.068  0.00  0.00    +0.000 C 
ATOM     24  C   UNL     1       7.482   7.405  17.509  0.00  0.00    +0.000 C 
ENDBRANCH  18  23
ENDBRANCH  17  18
ENDBRANCH   1  17
TORSDOF 6
ENDMDL
MODEL 4
REMARK VINA RESULT:      -6.8      2.414      4.930
REMARK  Name = 
REMARK  10 active torsions:
REMARK  status: ('A' for Active; 'I' for Inactive)
REMARK    1  A    between atoms: C_1  and  C_2
REMARK    2  A    between atoms: C_2  and  N_3
REMARK    3  A    between atoms: N_3  and  C_4
REMARK    4  A    between atoms: N_3  and  C_6
REMARK    5  A    between atoms: N_3  and  C_8
REMARK    6  A    between atoms: C_4  and  C_5
REMARK    7  A    between atoms: C_6  and  C_7
REMARK    8  A    between atoms: C_8  and  C_9
REMARK    9  A    between atoms: C_15  and  O_16
REMARK   10  A    between atoms: O_16  and  C_17
REMARK                            x       y       z     vdW  Elec       q    Type
REMARK                         _______ _______ _______ _____ _____    ______ ____
ROOT
ATOM      1  C   UNL     1       2.932   5.968  19.757  0.00  0.00    +0.000 A 
ATOM      2  C   UNL     1       2.121   7.065  20.164  0.00  0.00    +0.000 A 
ATOM      3  C   UNL     1       1.354   7.403  21.323  0.00  0.00    +0.000 A 
ATOM      4  C   UNL     1       0.607   8.511  21.008  0.00  0.00    +0.000 A 
ATOM      5  O   UNL     1       0.942   8.956  19.781  0.00  0.00    +0.000 OA
ATOM      6  C   UNL     1       1.898   8.116  19.282  0.00  0.00    +0.000 A 
ATOM      7  C   UNL     1       2.523   8.292  18.042  0.00  0.00    +0.000 A 
ATOM      8  C   UNL     1       3.487   7.308  17.763  0.00  0.00    +0.000 A 
ATOM      9  O   UNL     1       4.176   7.403  16.523  0.00  0.00    +0.000 OA
ATOM     10  C   UNL     1       5.137   6.498  16.107  0.00  0.00    +0.000 A 
ATOM     11  O   UNL     1       5.627   6.521  14.987  0.00  0.00    +0.000 OA
ATOM     12  C   UNL     1       5.569   5.531  17.115  0.00  0.00    +0.000 A 
ATOM     13  C   UNL     1       4.915   5.390  18.282  0.00  0.00    +0.000 A 
ATOM     14  C   UNL     1       3.742   6.209  18.605  0.00  0.00    +0.000 A 
ENDROOT
BRANCH   7  15
ATOM     15  O   UNL     1       2.128   9.367  17.315  0.00  0.00    +0.000 OA
ATOM     16  C   UNL     1       2.234  10.668  17.871  0.00  0.00    +0.000 C 
ENDBRANCH   7  15
BRANCH   1  17
ATOM     17  C   UNL     1       2.865   4.589  20.422  0.00  0.00    +0.000 C 
BRANCH  17  18
ATOM     18  N   UNL     1       2.097   3.449  19.617  0.00  0.00    +0.000 N 
BRANCH  18  20
ATOM     19  C   UNL     1       2.194   3.400  17.054  0.00  0.00    +0.000 C 
ATOM     20  C   UNL     1       1.525   3.985  18.292  0.00  0.00    +0.000 C 
ENDBRANCH  18  20
BRANCH  18  21
ATOM     21  C   UNL     1       0.923   2.914  20.514  0.00  0.00    +0.000 C 
ATOM     22  C   UNL     1       1.351   2.655  21.960  0.00  0.00    +0.000 C 
ENDBRANCH  18  21
BRANCH  18  23
ATOM     23  C   UNL     1       3.063   2.286  19.273  0.00  0.00    +0.000 C 
ATOM     24  C   UNL     1       4.395   2.316  20.011  0.00  0.00    +0.000 C 
ENDBRANCH  18  23
ENDBRANCH  17  18
ENDBRANCH   1  17
TORSDOF 6
ENDMDL
MODEL 5
REMARK VINA RESULT:      -6.7      2.417      5.021
REMARK  Name = 
REMARK  10 active torsions:
REMARK  status: ('A' for Active; 'I' for Inactive)
REMARK    1  A    between atoms: C_1  and  C_2
REMARK    2  A    between atoms: C_2  and  N_3
REMARK    3  A    between atoms: N_3  and  C_4
REMARK    4  A    between atoms: N_3  and  C_6
REMARK    5  A    between atoms: N_3  and  C_8
REMARK    6  A    between atoms: C_4  and  C_5
REMARK    7  A    between atoms: C_6  and  C_7
REMARK    8  A    between atoms: C_8  and  C_9
REMARK    9  A    between atoms: C_15  and  O_16
REMARK   10  A    between atoms: O_16  and  C_17
REMARK                            x       y       z     vdW  Elec       q    Type
REMARK                         _______ _______ _______ _____ _____    ______ ____
ROOT
ATOM      1  C   UNL     1       2.959   5.989  19.767  0.00  0.00    +0.000 A 
ATOM      2  C   UNL     1       2.145   7.079  20.185  0.00  0.00    +0.000 A 
ATOM      3  C   UNL     1       1.394   7.414  21.356  0.00  0.00    +0.000 A 
ATOM      4  C   UNL     1       0.632   8.515  21.049  0.00  0.00    +0.000 A 
ATOM      5  O   UNL     1       0.942   8.958  19.816  0.00  0.00    +0.000 OA
ATOM      6  C   UNL     1       1.897   8.126  19.303  0.00  0.00    +0.000 A 
ATOM      7  C   UNL     1       2.499   8.303  18.053  0.00  0.00    +0.000 A 
ATOM      8  C   UNL     1       3.467   7.328  17.760  0.00  0.00    +0.000 A 
ATOM      9  O   UNL     1       4.135   7.425  16.508  0.00  0.00    +0.000 OA
ATOM     10  C   UNL     1       5.096   6.527  16.078  0.00  0.00    +0.000 A 
ATOM     11  O   UNL     1       5.567   6.552  14.950  0.00  0.00    +0.000 OA
ATOM     12  C   UNL     1       5.554   5.568  17.082  0.00  0.00    +0.000 A 
ATOM     13  C   UNL     1       4.921   5.424  18.261  0.00  0.00    +0.000 A 
ATOM     14  C   UNL     1       3.747   6.233  18.601  0.00  0.00    +0.000 A 
ENDROOT
BRANCH   7  15
ATOM     15  O   UNL     1       2.082   9.373  17.329  0.00  0.00    +0.000 OA
ATOM     16  C   UNL     1       2.287  10.684  17.831  0.00  0.00    +0.000 C 
ENDBRANCH   7  15
BRANCH   1  17
ATOM     17  C   UNL     1       2.916   4.611  20.438  0.00  0.00    +0.000 C 
BRANCH  17  18
ATOM     18  N   UNL     1       2.093   3.478  19.678  0.00  0.00    +0.000 N 
BRANCH  18  20
ATOM     19  C   UNL     1       1.292   2.553  21.933  0.00  0.00    +0.000 C 
ATOM     20  C   UNL     1       0.905   2.984  20.524  0.00  0.00    +0.000 C 
ENDBRANCH  18  20
BRANCH  18  21
ATOM     21  C   UNL     1       3.059   2.276  19.384  0.00  0.00    +0.000 C 
ATOM     22  C   UNL     1       4.437   2.450  20.026  0.00  0.00    +0.000 C 
ENDBRANCH  18  21
BRANCH  18  23
ATOM     23  C   UNL     1       1.522   4.028  18.345  0.00  0.00    +0.000 C 
ATOM     24  C   UNL     1       2.146   3.438  17.087  0.00  0.00    +0.000 C 
ENDBRANCH  18  23
ENDBRANCH  17  18
ENDBRANCH   1  17
TORSDOF 6
ENDMDL
MODEL 6
REMARK VINA RESULT:      -6.5      2.372      4.826
REMARK  Name = 
REMARK  10 active torsions:
REMARK  status: ('A' for Active; 'I' for Inactive)
REMARK    1  A    between atoms: C_1  and  C_2
REMARK    2  A    between atoms: C_2  and  N_3
REMARK    3  A    between atoms: N_3  and  C_4
REMARK    4  A    between atoms: N_3  and  C_6
REMARK    5  A    between atoms: N_3  and  C_8
REMARK    6  A    between atoms: C_4  and  C_5
REMARK    7  A    between atoms: C_6  and  C_7
REMARK    8  A    between atoms: C_8  and  C_9
REMARK    9  A    between atoms: C_15  and  O_16
REMARK   10  A    between atoms: O_16  and  C_17
REMARK                            x       y       z     vdW  Elec       q    Type
REMARK                         _______ _______ _______ _____ _____    ______ ____
ROOT
ATOM      1  C   UNL     1       2.992   5.846  19.774  0.00  0.00    +0.000 A 
ATOM      2  C   UNL     1       2.171   6.937  20.175  0.00  0.00    +0.000 A 
ATOM      3  C   UNL     1       1.390   7.268  21.326  0.00  0.00    +0.000 A 
ATOM      4  C   UNL     1       0.640   8.374  21.005  0.00  0.00    +0.000 A 
ATOM      5  O   UNL     1       0.987   8.823  19.783  0.00  0.00    +0.000 OA
ATOM      6  C   UNL     1       1.953   7.990  19.293  0.00  0.00    +0.000 A 
ATOM      7  C   UNL     1       2.591   8.172  18.061  0.00  0.00    +0.000 A 
ATOM      8  C   UNL     1       3.563   7.194  17.790  0.00  0.00    +0.000 A 
ATOM      9  O   UNL     1       4.265   7.296  16.558  0.00  0.00    +0.000 OA
ATOM     10  C   UNL     1       5.235   6.396  16.150  0.00  0.00    +0.000 A 
ATOM     11  O   UNL     1       5.738   6.425  15.036  0.00  0.00    +0.000 OA
ATOM     12  C   UNL     1       5.661   5.429  17.160  0.00  0.00    +0.000 A 
ATOM     13  C   UNL     1       4.994   5.281  18.320  0.00  0.00    +0.000 A 
ATOM     14  C   UNL     1       3.814   6.093  18.632  0.00  0.00    +0.000 A 
ENDROOT
BRANCH   7  15
ATOM     15  O   UNL     1       2.199   9.247  17.333  0.00  0.00    +0.000 OA
ATOM     16  C   UNL     1       2.169  10.531  17.935  0.00  0.00    +0.000 C 
ENDBRANCH   7  15
BRANCH   1  17
ATOM     17  C   UNL     1       2.925   4.464  20.435  0.00  0.00    +0.000 C 
BRANCH  17  18
ATOM     18  N   UNL     1       2.244   3.303  19.583  0.00  0.00    +0.000 N 
BRANCH  18  20
ATOM     19  C   UNL     1       4.504   2.159  19.988  0.00  0.00    +0.000 C 
ATOM     20  C   UNL     1       3.287   2.288  19.080  0.00  0.00    +0.000 C 
ENDBRANCH  18  20
BRANCH  18  21
ATOM     21  C   UNL     1       1.513   3.952  18.355  0.00  0.00    +0.000 C 
ATOM     22  C   UNL     1       2.040   3.442  17.012  0.00  0.00    +0.000 C 
ENDBRANCH  18  21
BRANCH  18  23
ATOM     23  C   UNL     1       1.218   2.528  20.451  0.00  0.00    +0.000 C 
ATOM     24  C   UNL     1       1.306   2.800  21.947  0.00  0.00    +0.000 C 
ENDBRANCH  18  23
ENDBRANCH  17  18
ENDBRANCH   1  17
TORSDOF 6
ENDMDL
MODEL 7
REMARK VINA RESULT:      -6.4      1.616      2.995
REMARK  Name = 
REMARK  10 active torsions:
REMARK  status: ('A' for Active; 'I' for Inactive)
REMARK    1  A    between atoms: C_1  and  C_2
REMARK    2  A    between atoms: C_2  and  N_3
REMARK    3  A    between atoms: N_3  and  C_4
REMARK    4  A    between atoms: N_3  and  C_6
REMARK    5  A    between atoms: N_3  and  C_8
REMARK    6  A    between atoms: C_4  and  C_5
REMARK    7  A    between atoms: C_6  and  C_7
REMARK    8  A    between atoms: C_8  and  C_9
REMARK    9  A    between atoms: C_15  and  O_16
REMARK   10  A    between atoms: O_16  and  C_17
REMARK                            x       y       z     vdW  Elec       q    Type
REMARK                         _______ _______ _______ _____ _____    ______ ____
ROOT
ATOM      1  C   UNL     1       3.520   5.926  17.900  0.00  0.00    +0.000 A 
ATOM      2  C   UNL     1       2.722   6.665  18.819  0.00  0.00    +0.000 A 
ATOM      3  C   UNL     1       2.263   8.015  18.929  0.00  0.00    +0.000 A 
ATOM      4  C   UNL     1       1.711   8.156  20.179  0.00  0.00    +0.000 A 
ATOM      5  O   UNL     1       1.685   6.963  20.805  0.00  0.00    +0.000 OA
ATOM      6  C   UNL     1       2.248   6.042  19.968  0.00  0.00    +0.000 A 
ATOM      7  C   UNL     1       2.352   4.678  20.263  0.00  0.00    +0.000 A 
ATOM      8  C   UNL     1       2.950   3.932  19.233  0.00  0.00    +0.000 A 
ATOM      9  O   UNL     1       3.099   2.533  19.442  0.00  0.00    +0.000 OA
ATOM     10  C   UNL     1       3.685   1.678  18.525  0.00  0.00    +0.000 A 
ATOM     11  O   UNL     1       3.920   0.504  18.772  0.00  0.00    +0.000 OA
ATOM     12  C   UNL     1       3.963   2.258  17.212  0.00  0.00    +0.000 A 
ATOM     13  C   UNL     1       3.869   3.582  16.992  0.00  0.00    +0.000 A 
ATOM     14  C   UNL     1       3.469   4.507  18.057  0.00  0.00    +0.000 A 
ENDROOT
BRANCH   7  15
ATOM     15  O   UNL     1       1.859   4.282  21.463  0.00  0.00    +0.000 OA
ATOM     16  C   UNL     1       1.321   2.977  21.606  0.00  0.00    +0.000 C 
ENDBRANCH   7  15
BRANCH   1  17
ATOM     17  C   UNL     1       4.461   6.592  16.889  0.00  0.00    +0.000 C 
BRANCH  17  18
ATOM     18  N   UNL     1       6.021   6.478  17.190  0.00  0.00    +0.000 N 
BRANCH  18  20
ATOM     19  C   UNL     1       7.241   4.655  18.520  0.00  0.00    +0.000 C 
ATOM     20  C   UNL     1       6.283   5.840  18.566  0.00  0.00    +0.000 C 
ENDBRANCH  18  20
BRANCH  18  21
ATOM     21  C   UNL     1       6.639   7.921  17.157  0.00  0.00    +0.000 C 
ATOM     22  C   UNL     1       7.973   8.013  17.901  0.00  0.00    +0.000 C 
ENDBRANCH  18  21
BRANCH  18  23
ATOM     23  C   UNL     1       6.713   5.589  16.122  0.00  0.00    +0.000 C 
ATOM     24  C   UNL     1       5.920   5.396  14.836  0.00  0.00    +0.000 C 
ENDBRANCH  18  23
ENDBRANCH  17  18
ENDBRANCH   1  17
TORSDOF 6
ENDMDL
MODEL 8
REMARK VINA RESULT:      -6.4      1.614      2.342
REMARK  Name = 
REMARK  10 active torsions:
REMARK  status: ('A' for Active; 'I' for Inactive)
REMARK    1  A    between atoms: C_1  and  C_2
REMARK    2  A    between atoms: C_2  and  N_3
REMARK    3  A    between atoms: N_3  and  C_4
REMARK    4  A    between atoms: N_3  and  C_6
REMARK    5  A    between atoms: N_3  and  C_8
REMARK    6  A    between atoms: C_4  and  C_5
REMARK    7  A    between atoms: C_6  and  C_7
REMARK    8  A    between atoms: C_8  and  C_9
REMARK    9  A    between atoms: C_15  and  O_16
REMARK   10  A    between atoms: O_16  and  C_17
REMARK                            x       y       z     vdW  Elec       q    Type
REMARK                         _______ _______ _______ _____ _____    ______ ____
ROOT
ATOM      1  C   UNL     1       3.600   5.974  17.714  0.00  0.00    +0.000 A 
ATOM      2  C   UNL     1       2.795   6.765  18.582  0.00  0.00    +0.000 A 
ATOM      3  C   UNL     1       2.361   8.127  18.626  0.00  0.00    +0.000 A 
ATOM      4  C   UNL     1       1.782   8.330  19.855  0.00  0.00    +0.000 A 
ATOM      5  O   UNL     1       1.717   7.164  20.529  0.00  0.00    +0.000 OA
ATOM      6  C   UNL     1       2.281   6.199  19.744  0.00  0.00    +0.000 A 
ATOM      7  C   UNL     1       2.351   4.847  20.096  0.00  0.00    +0.000 A 
ATOM      8  C   UNL     1       2.958   4.048  19.112  0.00  0.00    +0.000 A 
ATOM      9  O   UNL     1       3.075   2.656  19.381  0.00  0.00    +0.000 OA
ATOM     10  C   UNL     1       3.665   1.753  18.514  0.00  0.00    +0.000 A 
ATOM     11  O   UNL     1       3.871   0.586  18.814  0.00  0.00    +0.000 OA
ATOM     12  C   UNL     1       3.986   2.274  17.186  0.00  0.00    +0.000 A 
ATOM     13  C   UNL     1       3.923   3.589  16.910  0.00  0.00    +0.000 A 
ATOM     14  C   UNL     1       3.517   4.564  17.927  0.00  0.00    +0.000 A 
ENDROOT
BRANCH   7  15
ATOM     15  O   UNL     1       1.822   4.509  21.299  0.00  0.00    +0.000 OA
ATOM     16  C   UNL     1       1.382   3.180  21.525  0.00  0.00    +0.000 C 
ENDBRANCH   7  15
BRANCH   1  17
ATOM     17  C   UNL     1       4.578   6.581  16.700  0.00  0.00    +0.000 C 
BRANCH  17  18
ATOM     18  N   UNL     1       6.123   6.530  17.087  0.00  0.00    +0.000 N 
BRANCH  18  20
ATOM     19  C   UNL     1       8.036   8.012  17.938  0.00  0.00    +0.000 C 
ATOM     20  C   UNL     1       6.733   7.942  17.151  0.00  0.00    +0.000 C 
ENDBRANCH  18  20
BRANCH  18  21
ATOM     21  C   UNL     1       6.878   5.684  16.002  0.00  0.00    +0.000 C 
ATOM     22  C   UNL     1       5.981   5.285  14.828  0.00  0.00    +0.000 C 
ENDBRANCH  18  21
BRANCH  18  23
ATOM     23  C   UNL     1       6.309   5.876  18.482  0.00  0.00    +0.000 C 
ATOM     24  C   UNL     1       7.186   4.631  18.496  0.00  0.00    +0.000 C 
ENDBRANCH  18  23
ENDBRANCH  17  18
ENDBRANCH   1  17
TORSDOF 6
ENDMDL
MODEL 9
REMARK VINA RESULT:      -6.3      1.604      2.713
REMARK  Name = 
REMARK  10 active torsions:
REMARK  status: ('A' for Active; 'I' for Inactive)
REMARK    1  A    between atoms: C_1  and  C_2
REMARK    2  A    between atoms: C_2  and  N_3
REMARK    3  A    between atoms: N_3  and  C_4
REMARK    4  A    between atoms: N_3  and  C_6
REMARK    5  A    between atoms: N_3  and  C_8
REMARK    6  A    between atoms: C_4  and  C_5
REMARK    7  A    between atoms: C_6  and  C_7
REMARK    8  A    between atoms: C_8  and  C_9
REMARK    9  A    between atoms: C_15  and  O_16
REMARK   10  A    between atoms: O_16  and  C_17
REMARK                            x       y       z     vdW  Elec       q    Type
REMARK                         _______ _______ _______ _____ _____    ______ ____
ROOT
ATOM      1  C   UNL     1       3.572   5.992  17.742  0.00  0.00    +0.000 A 
ATOM      2  C   UNL     1       2.766   6.773  18.619  0.00  0.00    +0.000 A 
ATOM      3  C   UNL     1       2.324   8.132  18.674  0.00  0.00    +0.000 A 
ATOM      4  C   UNL     1       1.748   8.323  19.906  0.00  0.00    +0.000 A 
ATOM      5  O   UNL     1       1.693   7.153  20.572  0.00  0.00    +0.000 OA
ATOM      6  C   UNL     1       2.260   6.196  19.779  0.00  0.00    +0.000 A 
ATOM      7  C   UNL     1       2.339   4.842  20.122  0.00  0.00    +0.000 A 
ATOM      8  C   UNL     1       2.946   4.053  19.131  0.00  0.00    +0.000 A 
ATOM      9  O   UNL     1       3.072   2.661  19.390  0.00  0.00    +0.000 OA
ATOM     10  C   UNL     1       3.664   1.766  18.515  0.00  0.00    +0.000 A 
ATOM     11  O   UNL     1       3.878   0.599  18.806  0.00  0.00    +0.000 OA
ATOM     12  C   UNL     1       3.977   2.297  17.189  0.00  0.00    +0.000 A 
ATOM     13  C   UNL     1       3.905   3.614  16.922  0.00  0.00    +0.000 A 
ATOM     14  C   UNL     1       3.497   4.580  17.947  0.00  0.00    +0.000 A 
ENDROOT
BRANCH   7  15
ATOM     15  O   UNL     1       1.816   4.494  21.325  0.00  0.00    +0.000 OA
ATOM     16  C   UNL     1       1.446   3.146  21.566  0.00  0.00    +0.000 C 
ENDBRANCH   7  15
BRANCH   1  17
ATOM     17  C   UNL     1       4.542   6.611  16.729  0.00  0.00    +0.000 C 
BRANCH  17  18
ATOM     18  N   UNL     1       6.091   6.531  17.090  0.00  0.00    +0.000 N 
BRANCH  18  20
ATOM     19  C   UNL     1       6.027   5.269  14.858  0.00  0.00    +0.000 C 
ATOM     20  C   UNL     1       6.869   5.702  16.052  0.00  0.00    +0.000 C 
ENDBRANCH  18  20
BRANCH  18  21
ATOM     21  C   UNL     1       6.237   5.865  18.505  0.00  0.00    +0.000 C 
ATOM     22  C   UNL     1       7.171   4.653  18.498  0.00  0.00    +0.000 C 
ENDBRANCH  18  21
BRANCH  18  23
ATOM     23  C   UNL     1       6.714   7.952  17.116  0.00  0.00    +0.000 C 
ATOM     24  C   UNL     1       8.013   8.070  17.900  0.00  0.00    +0.000 C 
ENDBRANCH  18  23
ENDBRANCH  17  18
ENDBRANCH   1  17
TORSDOF 6
ENDMDL
