MODEL 1
REMARK VINA RESULT:      -8.5      0.000      0.000
REMARK  Name = 
REMARK  6 active torsions:
REMARK  status: ('A' for Active; 'I' for Inactive)
REMARK    1  A    between atoms: C_1  and  S_2
REMARK    2  A    between atoms: S_2  and  C_4
REMARK    3  A    between atoms: C_7  and  C_8
REMARK    4  A    between atoms: C_8  and  O_9
REMARK    5  A    between atoms: C_8  and  C_16
REMARK    6  A    between atoms: O_9  and  C_10
REMARK                            x       y       z     vdW  Elec       q    Type
REMARK                         _______ _______ _______ _____ _____    ______ ____
ROOT
ATOM      1  C   UNL     1       2.209   5.723  19.705  0.00  0.00    +0.000 C 
ENDROOT
BRANCH   1   2
ATOM      2  C   UNL     1       1.763   7.101  20.056  0.00  0.00    +0.000 A 
ATOM      3  C   UNL     1       1.256   7.600  21.244  0.00  0.00    +0.000 A 
ATOM      4  C   UNL     1       0.973   8.978  21.051  0.00  0.00    +0.000 A 
ATOM      5  C   UNL     1       0.449  10.013  21.840  0.00  0.00    +0.000 A 
ATOM      6  C   UNL     1       0.329  11.271  21.249  0.00  0.00    +0.000 A 
ATOM      7  C   UNL     1       0.733  11.440  19.930  0.00  0.00    +0.000 A 
ATOM      8  N   UNL     1       1.246  10.477  19.130  0.00  0.00    +0.000 NA
ATOM      9  C   UNL     1       1.333   9.285  19.746  0.00  0.00    +0.000 A 
ATOM     10  N   UNL     1       1.807   8.146  19.162  0.00  0.00    +0.000 N 
ATOM     11  H   UNL     1       2.150   8.096  18.214  0.00  0.00    +0.000 HD
ENDBRANCH   1   2
BRANCH   1  15
ATOM     12  C   UNL     1       5.739   5.248  17.222  0.00  0.00    +0.000 A 
ATOM     13  C   UNL     1       4.470   5.375  16.642  0.00  0.00    +0.000 A 
ATOM     14  C   UNL     1       3.341   5.610  17.434  0.00  0.00    +0.000 A 
ATOM     15  C   UNL     1       3.456   5.702  18.829  0.00  0.00    +0.000 A 
ATOM     16  C   UNL     1       4.745   5.706  19.384  0.00  0.00    +0.000 A 
ATOM     17  C   UNL     1       5.879   5.514  18.590  0.00  0.00    +0.000 A 
ATOM     18 CL   UNL     1       7.420   5.632  19.367  0.00  0.00    +0.000 Cl
BRANCH  12  20
ATOM     19  C   UNL     1       6.156   3.750  14.979  0.00  0.00    +0.000 C 
ATOM     20  S   UNL     1       7.131   4.669  16.212  0.00  0.00    +0.000 S 
ATOM     21  O   UNL     1       7.715   5.929  15.471  0.00  0.00    +0.000 OA
ENDBRANCH  12  20
ENDBRANCH   1  15
BRANCH   1  22
ATOM     22  O   UNL     1       2.532   4.998  20.898  0.00  0.00    +0.000 OA
BRANCH  22  23
ATOM     23  C   UNL     1       1.714   3.873  21.253  0.00  0.00    +0.000 C 
ATOM     24  C   UNL     1       0.693   3.444  20.193  0.00  0.00    +0.000 C 
ATOM     25  C   UNL     1       1.364   3.074  18.875  0.00  0.00    +0.000 C 
ATOM     26  C   UNL     1       2.450   2.013  19.048  0.00  0.00    +0.000 C 
ATOM     27  C   UNL     1       3.397   2.281  20.218  0.00  0.00    +0.000 C 
ATOM     28  C   UNL     1       2.664   2.692  21.497  0.00  0.00    +0.000 C 
ENDBRANCH  22  23
ENDBRANCH   1  22
TORSDOF 5
ENDMDL
MODEL 2
REMARK VINA RESULT:      -8.5      0.871      1.160
REMARK  Name = 
REMARK  6 active torsions:
REMARK  status: ('A' for Active; 'I' for Inactive)
REMARK    1  A    between atoms: C_1  and  S_2
REMARK    2  A    between atoms: S_2  and  C_4
REMARK    3  A    between atoms: C_7  and  C_8
REMARK    4  A    between atoms: C_8  and  O_9
REMARK    5  A    between atoms: C_8  and  C_16
REMARK    6  A    between atoms: O_9  and  C_10
REMARK                            x       y       z     vdW  Elec       q    Type
REMARK                         _______ _______ _______ _____ _____    ______ ____
ROOT
ATOM      1  C   UNL     1       2.292   5.695  19.673  0.00  0.00    +0.000 C 
ENDROOT
BRANCH   1   2
ATOM      2  C   UNL     1       1.819   7.071  19.997  0.00  0.00    +0.000 A 
ATOM      3  C   UNL     1       1.707   8.190  19.189  0.00  0.00    +0.000 A 
ATOM      4  C   UNL     1       1.215   9.255  19.988  0.00  0.00    +0.000 A 
ATOM      5  C   UNL     1       0.905  10.607  19.775  0.00  0.00    +0.000 A 
ATOM      6  C   UNL     1       0.430  11.335  20.866  0.00  0.00    +0.000 A 
ATOM      7  C   UNL     1       0.285  10.698  22.092  0.00  0.00    +0.000 A 
ATOM      8  N   UNL     1       0.567   9.400  22.349  0.00  0.00    +0.000 NA
ATOM      9  C   UNL     1       1.026   8.748  21.266  0.00  0.00    +0.000 A 
ATOM     10  N   UNL     1       1.393   7.433  21.254  0.00  0.00    +0.000 N 
ATOM     11  H   UNL     1       1.341   6.823  22.057  0.00  0.00    +0.000 HD
ENDBRANCH   1   2
BRANCH   1  15
ATOM     12  C   UNL     1       5.816   5.242  17.177  0.00  0.00    +0.000 A 
ATOM     13  C   UNL     1       4.548   5.392  16.601  0.00  0.00    +0.000 A 
ATOM     14  C   UNL     1       3.421   5.620  17.399  0.00  0.00    +0.000 A 
ATOM     15  C   UNL     1       3.538   5.682  18.795  0.00  0.00    +0.000 A 
ATOM     16  C   UNL     1       4.827   5.662  19.350  0.00  0.00    +0.000 A 
ATOM     17  C   UNL     1       5.959   5.478  18.550  0.00  0.00    +0.000 A 
ATOM     18 CL   UNL     1       7.502   5.565  19.328  0.00  0.00    +0.000 Cl
BRANCH  12  20
ATOM     19  C   UNL     1       6.222   3.735  14.938  0.00  0.00    +0.000 C 
ATOM     20  S   UNL     1       7.202   4.672  16.154  0.00  0.00    +0.000 S 
ATOM     21  O   UNL     1       7.763   5.934  15.399  0.00  0.00    +0.000 OA
ENDBRANCH  12  20
ENDBRANCH   1  15
BRANCH   1  22
ATOM     22  O   UNL     1       2.631   5.001  20.880  0.00  0.00    +0.000 OA
BRANCH  22  23
ATOM     23  C   UNL     1       1.812   3.891  21.278  0.00  0.00    +0.000 C 
ATOM     24  C   UNL     1       0.749   3.461  20.262  0.00  0.00    +0.000 C 
ATOM     25  C   UNL     1       1.369   3.065  18.925  0.00  0.00    +0.000 C 
ATOM     26  C   UNL     1       2.447   1.993  19.073  0.00  0.00    +0.000 C 
ATOM     27  C   UNL     1       3.439   2.264  20.205  0.00  0.00    +0.000 C 
ATOM     28  C   UNL     1       2.757   2.701  21.504  0.00  0.00    +0.000 C 
ENDBRANCH  22  23
ENDBRANCH   1  22
TORSDOF 5
ENDMDL
MODEL 3
REMARK VINA RESULT:      -8.3      3.405      6.459
REMARK  Name = 
REMARK  6 active torsions:
REMARK  status: ('A' for Active; 'I' for Inactive)
REMARK    1  A    between atoms: C_1  and  S_2
REMARK    2  A    between atoms: S_2  and  C_4
REMARK    3  A    between atoms: C_7  and  C_8
REMARK    4  A    between atoms: C_8  and  O_9
REMARK    5  A    between atoms: C_8  and  C_16
REMARK    6  A    between atoms: O_9  and  C_10
REMARK                            x       y       z     vdW  Elec       q    Type
REMARK                         _______ _______ _______ _____ _____    ______ ____
ROOT
ATOM      1  C   UNL     1       3.916   5.832  19.167  0.00  0.00    +0.000 C 
ENDROOT
BRANCH   1   2
ATOM      2  C   UNL     1       4.604   5.503  17.886  0.00  0.00    +0.000 A 
ATOM      3  C   UNL     1       4.199   4.693  16.838  0.00  0.00    +0.000 A 
ATOM      4  C   UNL     1       5.226   4.704  15.858  0.00  0.00    +0.000 A 
ATOM      5  C   UNL     1       5.427   4.097  14.609  0.00  0.00    +0.000 A 
ATOM      6  C   UNL     1       6.619   4.380  13.943  0.00  0.00    +0.000 A 
ATOM      7  C   UNL     1       7.537   5.240  14.535  0.00  0.00    +0.000 A 
ATOM      8  N   UNL     1       7.391   5.851  15.734  0.00  0.00    +0.000 NA
ATOM      9  C   UNL     1       6.229   5.538  16.334  0.00  0.00    +0.000 A 
ATOM     10  N   UNL     1       5.838   6.011  17.554  0.00  0.00    +0.000 N 
ATOM     11  H   UNL     1       6.381   6.652  18.114  0.00  0.00    +0.000 HD
ENDBRANCH   1   2
BRANCH   1  15
ATOM     12  C   UNL     1       1.396   9.357  18.890  0.00  0.00    +0.000 A 
ATOM     13  C   UNL     1       2.063   8.866  17.760  0.00  0.00    +0.000 A 
ATOM     14  C   UNL     1       2.810   7.684  17.827  0.00  0.00    +0.000 A 
ATOM     15  C   UNL     1       2.922   6.980  19.034  0.00  0.00    +0.000 A 
ATOM     16  C   UNL     1       2.144   7.407  20.121  0.00  0.00    +0.000 A 
ATOM     17  C   UNL     1       1.363   8.564  20.044  0.00  0.00    +0.000 A 
ATOM     18 CL   UNL     1       0.373   8.944  21.412  0.00  0.00    +0.000 Cl
BRANCH  12  20
ATOM     19  C   UNL     1      -1.075  10.515  18.828  0.00  0.00    +0.000 C 
ATOM     20  S   UNL     1       0.675  11.022  18.851  0.00  0.00    +0.000 S 
ATOM     21  O   UNL     1       0.935  11.668  20.262  0.00  0.00    +0.000 OA
ENDBRANCH  12  20
ENDBRANCH   1  15
BRANCH   1  22
ATOM     22  O   UNL     1       3.174   4.695  19.626  0.00  0.00    +0.000 OA
BRANCH  22  23
ATOM     23  C   UNL     1       1.763   4.654  19.363  0.00  0.00    +0.000 C 
ATOM     24  C   UNL     1       1.346   3.827  18.142  0.00  0.00    +0.000 C 
ATOM     25  C   UNL     1       1.791   2.373  18.262  0.00  0.00    +0.000 C 
ATOM     26  C   UNL     1       1.310   1.718  19.555  0.00  0.00    +0.000 C 
ATOM     27  C   UNL     1       1.523   2.577  20.802  0.00  0.00    +0.000 C 
ATOM     28  C   UNL     1       1.098   4.034  20.602  0.00  0.00    +0.000 C 
ENDBRANCH  22  23
ENDBRANCH   1  22
TORSDOF 5
ENDMDL
MODEL 4
REMARK VINA RESULT:      -8.2      3.483      6.311
REMARK  Name = 
REMARK  6 active torsions:
REMARK  status: ('A' for Active; 'I' for Inactive)
REMARK    1  A    between atoms: C_1  and  S_2
REMARK    2  A    between atoms: S_2  and  C_4
REMARK    3  A    between atoms: C_7  and  C_8
REMARK    4  A    between atoms: C_8  and  O_9
REMARK    5  A    between atoms: C_8  and  C_16
REMARK    6  A    between atoms: O_9  and  C_10
REMARK                            x       y       z     vdW  Elec       q    Type
REMARK                         _______ _______ _______ _____ _____    ______ ____
ROOT
ATOM      1  C   UNL     1       3.279   5.978  19.244  0.00  0.00    +0.000 C 
ENDROOT
BRANCH   1   2
ATOM      2  C   UNL     1       4.140   5.693  18.062  0.00  0.00    +0.000 A 
ATOM      3  C   UNL     1       3.868   4.970  16.912  0.00  0.00    +0.000 A 
ATOM      4  C   UNL     1       5.032   4.988  16.101  0.00  0.00    +0.000 A 
ATOM      5  C   UNL     1       5.396   4.450  14.857  0.00  0.00    +0.000 A 
ATOM      6  C   UNL     1       6.688   4.711  14.398  0.00  0.00    +0.000 A 
ATOM      7  C   UNL     1       7.538   5.485  15.179  0.00  0.00    +0.000 A 
ATOM      8  N   UNL     1       7.236   6.029  16.380  0.00  0.00    +0.000 NA
ATOM      9  C   UNL     1       5.984   5.740  16.777  0.00  0.00    +0.000 A 
ATOM     10  N   UNL     1       5.431   6.157  17.954  0.00  0.00    +0.000 N 
ATOM     11  H   UNL     1       5.908   6.733  18.631  0.00  0.00    +0.000 HD
ENDBRANCH   1   2
BRANCH   1  15
ATOM     12  C   UNL     1       1.451   9.912  19.055  0.00  0.00    +0.000 A 
ATOM     13  C   UNL     1       2.124   9.384  17.945  0.00  0.00    +0.000 A 
ATOM     14  C   UNL     1       2.643   8.084  17.975  0.00  0.00    +0.000 A 
ATOM     15  C   UNL     1       2.517   7.293  19.126  0.00  0.00    +0.000 A 
ATOM     16  C   UNL     1       1.729   7.783  20.179  0.00  0.00    +0.000 A 
ATOM     17  C   UNL     1       1.173   9.065  20.134  0.00  0.00    +0.000 A 
ATOM     18 CL   UNL     1       0.142   9.527  21.445  0.00  0.00    +0.000 Cl
BRANCH  12  20
ATOM     19  C   UNL     1       2.425  12.262  18.065  0.00  0.00    +0.000 C 
ATOM     20  S   UNL     1       1.039  11.679  19.093  0.00  0.00    +0.000 S 
ATOM     21  O   UNL     1      -0.265  11.865  18.233  0.00  0.00    +0.000 OA
ENDBRANCH  12  20
ENDBRANCH   1  15
BRANCH   1  22
ATOM     22  O   UNL     1       2.296   4.945  19.390  0.00  0.00    +0.000 OA
BRANCH  22  23
ATOM     23  C   UNL     1       2.442   4.018  20.476  0.00  0.00    +0.000 C 
ATOM     24  C   UNL     1       1.186   3.213  20.825  0.00  0.00    +0.000 C 
ATOM     25  C   UNL     1       0.689   2.392  19.639  0.00  0.00    +0.000 C 
ATOM     26  C   UNL     1       1.774   1.487  19.058  0.00  0.00    +0.000 C 
ATOM     27  C   UNL     1       3.121   2.182  18.861  0.00  0.00    +0.000 C 
ATOM     28  C   UNL     1       3.541   3.024  20.068  0.00  0.00    +0.000 C 
ENDBRANCH  22  23
ENDBRANCH   1  22
TORSDOF 5
ENDMDL
MODEL 5
REMARK VINA RESULT:      -8.1      3.373      6.462
REMARK  Name = 
REMARK  6 active torsions:
REMARK  status: ('A' for Active; 'I' for Inactive)
REMARK    1  A    between atoms: C_1  and  S_2
REMARK    2  A    between atoms: S_2  and  C_4
REMARK    3  A    between atoms: C_7  and  C_8
REMARK    4  A    between atoms: C_8  and  O_9
REMARK    5  A    between atoms: C_8  and  C_16
REMARK    6  A    between atoms: O_9  and  C_10
REMARK                            x       y       z     vdW  Elec       q    Type
REMARK                         _______ _______ _______ _____ _____    ______ ____
ROOT
ATOM      1  C   UNL     1       3.587   5.237  18.689  0.00  0.00    +0.000 C 
ENDROOT
BRANCH   1   2
ATOM      2  C   UNL     1       4.422   5.108  17.461  0.00  0.00    +0.000 A 
ATOM      3  C   UNL     1       4.190   4.401  16.294  0.00  0.00    +0.000 A 
ATOM      4  C   UNL     1       5.304   4.597  15.437  0.00  0.00    +0.000 A 
ATOM      5  C   UNL     1       5.675   4.157  14.157  0.00  0.00    +0.000 A 
ATOM      6  C   UNL     1       6.901   4.597  13.657  0.00  0.00    +0.000 A 
ATOM      7  C   UNL     1       7.683   5.442  14.435  0.00  0.00    +0.000 A 
ATOM      8  N   UNL     1       7.371   5.897  15.670  0.00  0.00    +0.000 NA
ATOM      9  C   UNL     1       6.185   5.437  16.105  0.00  0.00    +0.000 A 
ATOM     10  N   UNL     1       5.639   5.736  17.320  0.00  0.00    +0.000 N 
ATOM     11  H   UNL     1       6.071   6.343  18.002  0.00  0.00    +0.000 HD
ENDBRANCH   1   2
BRANCH   1  15
ATOM     12  C   UNL     1       1.694   9.136  18.960  0.00  0.00    +0.000 A 
ATOM     13  C   UNL     1       2.245   8.692  17.751  0.00  0.00    +0.000 A 
ATOM     14  C   UNL     1       2.783   7.405  17.638  0.00  0.00    +0.000 A 
ATOM     15  C   UNL     1       2.799   6.541  18.742  0.00  0.00    +0.000 A 
ATOM     16  C   UNL     1       2.127   6.946  19.906  0.00  0.00    +0.000 A 
ATOM     17  C   UNL     1       1.551   8.216  20.007  0.00  0.00    +0.000 A 
ATOM     18 CL   UNL     1       0.668   8.573  21.452  0.00  0.00    +0.000 Cl
BRANCH  12  20
ATOM     19  C   UNL     1       2.436  11.553  17.934  0.00  0.00    +0.000 C 
ATOM     20  S   UNL     1       1.264  10.887  19.159  0.00  0.00    +0.000 S 
ATOM     21  O   UNL     1      -0.175  11.078  18.551  0.00  0.00    +0.000 OA
ENDBRANCH  12  20
ENDBRANCH   1  15
BRANCH   1  22
ATOM     22  O   UNL     1       2.629   4.174  18.738  0.00  0.00    +0.000 OA
BRANCH  22  23
ATOM     23  C   UNL     1       3.050   2.903  19.257  0.00  0.00    +0.000 C 
ATOM     24  C   UNL     1       3.564   2.920  20.700  0.00  0.00    +0.000 C 
ATOM     25  C   UNL     1       2.509   3.438  21.672  0.00  0.00    +0.000 C 
ATOM     26  C   UNL     1       1.192   2.671  21.571  0.00  0.00    +0.000 C 
ATOM     27  C   UNL     1       0.713   2.449  20.136  0.00  0.00    +0.000 C 
ATOM     28  C   UNL     1       1.829   1.973  19.202  0.00  0.00    +0.000 C 
ENDBRANCH  22  23
ENDBRANCH   1  22
TORSDOF 5
ENDMDL
MODEL 6
REMARK VINA RESULT:      -8.1      3.482      6.580
REMARK  Name = 
REMARK  6 active torsions:
REMARK  status: ('A' for Active; 'I' for Inactive)
REMARK    1  A    between atoms: C_1  and  S_2
REMARK    2  A    between atoms: S_2  and  C_4
REMARK    3  A    between atoms: C_7  and  C_8
REMARK    4  A    between atoms: C_8  and  O_9
REMARK    5  A    between atoms: C_8  and  C_16
REMARK    6  A    between atoms: O_9  and  C_10
REMARK                            x       y       z     vdW  Elec       q    Type
REMARK                         _______ _______ _______ _____ _____    ______ ____
ROOT
ATOM      1  C   UNL     1       4.035   6.269  19.301  0.00  0.00    +0.000 C 
ENDROOT
BRANCH   1   2
ATOM      2  C   UNL     1       4.620   5.783  18.019  0.00  0.00    +0.000 A 
ATOM      3  C   UNL     1       4.064   4.992  17.027  0.00  0.00    +0.000 A 
ATOM      4  C   UNL     1       5.045   4.808  16.018  0.00  0.00    +0.000 A 
ATOM      5  C   UNL     1       5.109   4.121  14.796  0.00  0.00    +0.000 A 
ATOM      6  C   UNL     1       6.304   4.195  14.080  0.00  0.00    +0.000 A 
ATOM      7  C   UNL     1       7.357   4.939  14.599  0.00  0.00    +0.000 A 
ATOM      8  N   UNL     1       7.345   5.620  15.768  0.00  0.00    +0.000 NA
ATOM      9  C   UNL     1       6.174   5.509  16.419  0.00  0.00    +0.000 A 
ATOM     10  N   UNL     1       5.901   6.090  17.623  0.00  0.00    +0.000 N 
ATOM     11  H   UNL     1       6.552   6.671  18.132  0.00  0.00    +0.000 HD
ENDBRANCH   1   2
BRANCH   1  15
ATOM     12  C   UNL     1       1.124   9.461  18.864  0.00  0.00    +0.000 A 
ATOM     13  C   UNL     1       1.938   9.085  17.787  0.00  0.00    +0.000 A 
ATOM     14  C   UNL     1       2.819   8.003  17.900  0.00  0.00    +0.000 A 
ATOM     15  C   UNL     1       2.919   7.288  19.101  0.00  0.00    +0.000 A 
ATOM     16  C   UNL     1       2.007   7.589  20.125  0.00  0.00    +0.000 A 
ATOM     17  C   UNL     1       1.096   8.642  19.999  0.00  0.00    +0.000 A 
ATOM     18 CL   UNL     1      -0.043   8.861  21.284  0.00  0.00    +0.000 Cl
BRANCH  12  20
ATOM     19  C   UNL     1      -1.448  10.308  18.529  0.00  0.00    +0.000 C 
ATOM     20  S   UNL     1       0.206  11.024  18.788  0.00  0.00    +0.000 S 
ATOM     21  O   UNL     1       0.209  11.629  20.241  0.00  0.00    +0.000 OA
ENDBRANCH  12  20
ENDBRANCH   1  15
BRANCH   1  22
ATOM     22  O   UNL     1       3.465   5.170  20.022  0.00  0.00    +0.000 OA
BRANCH  22  23
ATOM     23  C   UNL     1       3.109   3.988  19.288  0.00  0.00    +0.000 C 
ATOM     24  C   UNL     1       3.478   2.661  19.960  0.00  0.00    +0.000 C 
ATOM     25  C   UNL     1       2.823   2.516  21.330  0.00  0.00    +0.000 C 
ATOM     26  C   UNL     1       1.307   2.697  21.276  0.00  0.00    +0.000 C 
ATOM     27  C   UNL     1       0.856   3.904  20.453  0.00  0.00    +0.000 C 
ATOM     28  C   UNL     1       1.583   4.018  19.111  0.00  0.00    +0.000 C 
ENDBRANCH  22  23
ENDBRANCH   1  22
TORSDOF 5
ENDMDL
MODEL 7
REMARK VINA RESULT:      -8.0      3.493      6.243
REMARK  Name = 
REMARK  6 active torsions:
REMARK  status: ('A' for Active; 'I' for Inactive)
REMARK    1  A    between atoms: C_1  and  S_2
REMARK    2  A    between atoms: S_2  and  C_4
REMARK    3  A    between atoms: C_7  and  C_8
REMARK    4  A    between atoms: C_8  and  O_9
REMARK    5  A    between atoms: C_8  and  C_16
REMARK    6  A    between atoms: O_9  and  C_10
REMARK                            x       y       z     vdW  Elec       q    Type
REMARK                         _______ _______ _______ _____ _____    ______ ____
ROOT
ATOM      1  C   UNL     1       2.915   6.022  19.422  0.00  0.00    +0.000 C 
ENDROOT
BRANCH   1   2
ATOM      2  C   UNL     1       3.974   5.799  18.397  0.00  0.00    +0.000 A 
ATOM      3  C   UNL     1       5.287   6.238  18.359  0.00  0.00    +0.000 A 
ATOM      4  C   UNL     1       5.871   5.762  17.156  0.00  0.00    +0.000 A 
ATOM      5  C   UNL     1       7.127   5.867  16.541  0.00  0.00    +0.000 A 
ATOM      6  C   UNL     1       7.296   5.227  15.313  0.00  0.00    +0.000 A 
ATOM      7  C   UNL     1       6.231   4.520  14.767  0.00  0.00    +0.000 A 
ATOM      8  N   UNL     1       5.003   4.386  15.320  0.00  0.00    +0.000 NA
ATOM      9  C   UNL     1       4.894   5.028  16.496  0.00  0.00    +0.000 A 
ATOM     10  N   UNL     1       3.760   5.059  17.257  0.00  0.00    +0.000 N 
ATOM     11  H   UNL     1       2.900   4.591  17.011  0.00  0.00    +0.000 HD
ENDBRANCH   1   2
BRANCH   1  15
ATOM     12  C   UNL     1       1.350  10.065  19.188  0.00  0.00    +0.000 A 
ATOM     13  C   UNL     1       1.913   9.451  18.061  0.00  0.00    +0.000 A 
ATOM     14  C   UNL     1       2.344   8.120  18.111  0.00  0.00    +0.000 A 
ATOM     15  C   UNL     1       2.239   7.382  19.298  0.00  0.00    +0.000 A 
ATOM     16  C   UNL     1       1.555   7.963  20.377  0.00  0.00    +0.000 A 
ATOM     17  C   UNL     1       1.085   9.278  20.316  0.00  0.00    +0.000 A 
ATOM     18 CL   UNL     1       0.175   9.859  21.668  0.00  0.00    +0.000 Cl
BRANCH  12  20
ATOM     19  C   UNL     1       2.443  12.308  18.082  0.00  0.00    +0.000 C 
ATOM     20  S   UNL     1       1.062  11.856  19.180  0.00  0.00    +0.000 S 
ATOM     21  O   UNL     1      -0.259  12.105  18.362  0.00  0.00    +0.000 OA
ENDBRANCH  12  20
ENDBRANCH   1  15
BRANCH   1  22
ATOM     22  O   UNL     1       1.886   5.035  19.279  0.00  0.00    +0.000 OA
BRANCH  22  23
ATOM     23  C   UNL     1       1.639   4.147  20.380  0.00  0.00    +0.000 C 
ATOM     24  C   UNL     1       0.480   3.164  20.183  0.00  0.00    +0.000 C 
ATOM     25  C   UNL     1       0.694   2.270  18.965  0.00  0.00    +0.000 C 
ATOM     26  C   UNL     1       2.032   1.535  19.006  0.00  0.00    +0.000 C 
ATOM     27  C   UNL     1       3.216   2.424  19.387  0.00  0.00    +0.000 C 
ATOM     28  C   UNL     1       2.922   3.328  20.587  0.00  0.00    +0.000 C 
ENDBRANCH  22  23
ENDBRANCH   1  22
TORSDOF 5
ENDMDL
MODEL 8
REMARK VINA RESULT:      -7.9      3.304      6.525
REMARK  Name = 
REMARK  6 active torsions:
REMARK  status: ('A' for Active; 'I' for Inactive)
REMARK    1  A    between atoms: C_1  and  S_2
REMARK    2  A    between atoms: S_2  and  C_4
REMARK    3  A    between atoms: C_7  and  C_8
REMARK    4  A    between atoms: C_8  and  O_9
REMARK    5  A    between atoms: C_8  and  C_16
REMARK    6  A    between atoms: O_9  and  C_10
REMARK                            x       y       z     vdW  Elec       q    Type
REMARK                         _______ _______ _______ _____ _____    ______ ____
ROOT
ATOM      1  C   UNL     1       3.182   4.673  18.667  0.00  0.00    +0.000 C 
ENDROOT
BRANCH   1   2
ATOM      2  C   UNL     1       4.145   4.735  17.530  0.00  0.00    +0.000 A 
ATOM      3  C   UNL     1       4.055   4.204  16.255  0.00  0.00    +0.000 A 
ATOM      4  C   UNL     1       5.247   4.537  15.560  0.00  0.00    +0.000 A 
ATOM      5  C   UNL     1       5.761   4.294  14.277  0.00  0.00    +0.000 A 
ATOM      6  C   UNL     1       7.021   4.817  13.981  0.00  0.00    +0.000 A 
ATOM      7  C   UNL     1       7.694   5.547  14.953  0.00  0.00    +0.000 A 
ATOM      8  N   UNL     1       7.242   5.812  16.201  0.00  0.00    +0.000 NA
ATOM      9  C   UNL     1       6.030   5.280  16.434  0.00  0.00    +0.000 A 
ATOM     10  N   UNL     1       5.352   5.391  17.614  0.00  0.00    +0.000 N 
ATOM     11  H   UNL     1       5.693   5.895  18.418  0.00  0.00    +0.000 HD
ENDBRANCH   1   2
BRANCH   1  15
ATOM     12  C   UNL     1       1.442   8.465  19.869  0.00  0.00    +0.000 A 
ATOM     13  C   UNL     1       1.612   7.431  20.799  0.00  0.00    +0.000 A 
ATOM     14  C   UNL     1       2.247   6.238  20.435  0.00  0.00    +0.000 A 
ATOM     15  C   UNL     1       2.707   6.047  19.124  0.00  0.00    +0.000 A 
ATOM     16  C   UNL     1       2.649   7.136  18.241  0.00  0.00    +0.000 A 
ATOM     17  C   UNL     1       2.054   8.344  18.615  0.00  0.00    +0.000 A 
ATOM     18 CL   UNL     1       2.124   9.647  17.478  0.00  0.00    +0.000 Cl
BRANCH  12  20
ATOM     19  C   UNL     1      -0.177   9.276  21.911  0.00  0.00    +0.000 C 
ATOM     20  S   UNL     1       0.376   9.875  20.282  0.00  0.00    +0.000 S 
ATOM     21  O   UNL     1       1.324  11.101  20.555  0.00  0.00    +0.000 OA
ENDBRANCH  12  20
ENDBRANCH   1  15
BRANCH   1  22
ATOM     22  O   UNL     1       2.014   3.942  18.275  0.00  0.00    +0.000 OA
BRANCH  22  23
ATOM     23  C   UNL     1       1.967   2.535  18.556  0.00  0.00    +0.000 C 
ATOM     24  C   UNL     1       3.152   1.985  19.358  0.00  0.00    +0.000 C 
ATOM     25  C   UNL     1       3.293   2.677  20.710  0.00  0.00    +0.000 C 
ATOM     26  C   UNL     1       2.006   2.624  21.532  0.00  0.00    +0.000 C 
ATOM     27  C   UNL     1       0.749   2.978  20.737  0.00  0.00    +0.000 C 
ATOM     28  C   UNL     1       0.690   2.287  19.373  0.00  0.00    +0.000 C 
ENDBRANCH  22  23
ENDBRANCH   1  22
TORSDOF 5
ENDMDL
MODEL 9
REMARK VINA RESULT:      -7.7      3.376      6.559
REMARK  Name = 
REMARK  6 active torsions:
REMARK  status: ('A' for Active; 'I' for Inactive)
REMARK    1  A    between atoms: C_1  and  S_2
REMARK    2  A    between atoms: S_2  and  C_4
REMARK    3  A    between atoms: C_7  and  C_8
REMARK    4  A    between atoms: C_8  and  O_9
REMARK    5  A    between atoms: C_8  and  C_16
REMARK    6  A    between atoms: O_9  and  C_10
REMARK                            x       y       z     vdW  Elec       q    Type
REMARK                         _______ _______ _______ _____ _____    ______ ____
ROOT
ATOM      1  C   UNL     1       3.238   4.692  18.690  0.00  0.00    +0.000 C 
ENDROOT
BRANCH   1   2
ATOM      2  C   UNL     1       4.287   4.794  17.636  0.00  0.00    +0.000 A 
ATOM      3  C   UNL     1       5.533   5.397  17.671  0.00  0.00    +0.000 A 
ATOM      4  C   UNL     1       6.137   5.222  16.399  0.00  0.00    +0.000 A 
ATOM      5  C   UNL     1       7.353   5.597  15.806  0.00  0.00    +0.000 A 
ATOM      6  C   UNL     1       7.566   5.213  14.482  0.00  0.00    +0.000 A 
ATOM      7  C   UNL     1       6.583   4.486  13.823  0.00  0.00    +0.000 A 
ATOM      8  N   UNL     1       5.397   4.098  14.348  0.00  0.00    +0.000 NA
ATOM      9  C   UNL     1       5.241   4.500  15.622  0.00  0.00    +0.000 A 
ATOM     10  N   UNL     1       4.135   4.249  16.381  0.00  0.00    +0.000 N 
ATOM     11  H   UNL     1       3.334   3.726  16.059  0.00  0.00    +0.000 HD
ENDBRANCH   1   2
BRANCH   1  15
ATOM     12  C   UNL     1       1.398   8.426  19.923  0.00  0.00    +0.000 A 
ATOM     13  C   UNL     1       1.596   7.390  20.844  0.00  0.00    +0.000 A 
ATOM     14  C   UNL     1       2.263   6.217  20.471  0.00  0.00    +0.000 A 
ATOM     15  C   UNL     1       2.726   6.049  19.158  0.00  0.00    +0.000 A 
ATOM     16  C   UNL     1       2.639   7.143  18.283  0.00  0.00    +0.000 A 
ATOM     17  C   UNL     1       2.012   8.331  18.668  0.00  0.00    +0.000 A 
ATOM     18 CL   UNL     1       2.046   9.645  17.542  0.00  0.00    +0.000 Cl
BRANCH  12  20
ATOM     19  C   UNL     1      -0.211   9.196  21.989  0.00  0.00    +0.000 C 
ATOM     20  S   UNL     1       0.296   9.803  20.348  0.00  0.00    +0.000 S 
ATOM     21  O   UNL     1       1.208  11.060  20.599  0.00  0.00    +0.000 OA
ENDBRANCH  12  20
ENDBRANCH   1  15
BRANCH   1  22
ATOM     22  O   UNL     1       2.105   3.977  18.180  0.00  0.00    +0.000 OA
BRANCH  22  23
ATOM     23  C   UNL     1       2.015   2.569  18.446  0.00  0.00    +0.000 C 
ATOM     24  C   UNL     1       3.070   2.013  19.407  0.00  0.00    +0.000 C 
ATOM     25  C   UNL     1       3.018   2.699  20.768  0.00  0.00    +0.000 C 
ATOM     26  C   UNL     1       1.626   2.647  21.396  0.00  0.00    +0.000 C 
ATOM     27  C   UNL     1       0.496   3.008  20.431  0.00  0.00    +0.000 C 
ATOM     28  C   UNL     1       0.632   2.323  19.069  0.00  0.00    +0.000 C 
ENDBRANCH  22  23
ENDBRANCH   1  22
TORSDOF 5
ENDMDL
