MODEL 1
REMARK VINA RESULT:      -7.9      0.000      0.000
REMARK  Name = 
REMARK  8 active torsions:
REMARK  status: ('A' for Active; 'I' for Inactive)
REMARK    1  A    between atoms: C_1  and  C_2
REMARK    2  A    between atoms: C_4  and  C_5
REMARK    3  A    between atoms: N_7  and  C_8
REMARK    4  A    between atoms: C_8  and  C_9
REMARK    5  A    between atoms: C_17  and  N_18
REMARK    6  A    between atoms: N_18  and  C_19
REMARK    7  A    between atoms: N_18  and  S_20
REMARK    8  A    between atoms: S_20  and  C_23
REMARK                            x       y       z     vdW  Elec       q    Type
REMARK                         _______ _______ _______ _____ _____    ______ ____
ROOT
ATOM      1  C   UNL     1       4.775   6.989  16.121  0.00  0.00    +0.000 C 
ATOM      2  C   UNL     1       3.870   7.084  17.314  0.00  0.00    +0.000 A 
ATOM      3  C   UNL     1       3.108   8.260  17.460  0.00  0.00    +0.000 A 
ATOM      4  C   UNL     1       2.268   8.473  18.560  0.00  0.00    +0.000 A 
ATOM      5  C   UNL     1       2.198   7.491  19.550  0.00  0.00    +0.000 A 
ATOM      6  C   UNL     1       2.940   6.303  19.408  0.00  0.00    +0.000 A 
ATOM      7  C   UNL     1       3.755   6.076  18.284  0.00  0.00    +0.000 A 
ENDROOT
BRANCH   4   8
ATOM      8  C   UNL     1       1.493   9.750  18.580  0.00  0.00    +0.000 C 
ATOM      9  O   UNL     1       1.973  10.754  18.058  0.00  0.00    +0.000 OA
ATOM     10  N   UNL     1       0.281   9.763  19.230  0.00  0.00    +0.000 N 
ATOM     11  H   UNL     1      -0.112   8.929  19.637  0.00  0.00    +0.000 HD
BRANCH  10  12
ATOM     12  C   UNL     1      -0.522  10.974  19.293  0.00  0.00    +0.000 C 
BRANCH  12  13
ATOM     13  C   UNL     1      -1.741  10.906  18.400  0.00  0.00    +0.000 A 
ATOM     14  C   UNL     1      -1.763  10.039  17.309  0.00  0.00    +0.000 A 
ATOM     15  C   UNL     1      -2.903   9.985  16.511  0.00  0.00    +0.000 A 
ATOM     16  C   UNL     1      -3.989  10.792  16.824  0.00  0.00    +0.000 A 
ATOM     17  C   UNL     1      -3.890  11.622  17.928  0.00  0.00    +0.000 A 
ATOM     18  N   UNL     1      -2.798  11.696  18.724  0.00  0.00    +0.000 NA
ENDBRANCH  12  13
ENDBRANCH  10  12
ENDBRANCH   4   8
BRANCH   7  19
ATOM     19  N   UNL     1       4.495   4.847  18.205  0.00  0.00    +0.000 N 
ATOM     20  C   UNL     1       5.907   4.814  18.602  0.00  0.00    +0.000 C 
BRANCH  19  21
ATOM     21  S   UNL     1       3.691   3.375  17.907  0.00  0.00    +0.000 S 
ATOM     22  O   UNL     1       2.727   3.586  16.844  0.00  0.00    +0.000 OA
ATOM     23  O   UNL     1       4.662   2.309  17.825  0.00  0.00    +0.000 OA
BRANCH  21  24
ATOM     24  C   UNL     1       2.717   3.089  19.382  0.00  0.00    +0.000 A 
ATOM     25  C   UNL     1       1.320   3.155  19.324  0.00  0.00    +0.000 A 
ATOM     26  C   UNL     1       0.564   2.913  20.474  0.00  0.00    +0.000 A 
ATOM     27  C   UNL     1       1.199   2.584  21.673  0.00  0.00    +0.000 A 
ATOM     28  C   UNL     1       2.589   2.465  21.717  0.00  0.00    +0.000 A 
ATOM     29  C   UNL     1       3.351   2.710  20.572  0.00  0.00    +0.000 A 
ENDBRANCH  21  24
ENDBRANCH  19  21
ENDBRANCH   7  19
TORSDOF 6
ENDMDL
MODEL 2
REMARK VINA RESULT:      -7.9      1.835      3.803
REMARK  Name = 
REMARK  8 active torsions:
REMARK  status: ('A' for Active; 'I' for Inactive)
REMARK    1  A    between atoms: C_1  and  C_2
REMARK    2  A    between atoms: C_4  and  C_5
REMARK    3  A    between atoms: N_7  and  C_8
REMARK    4  A    between atoms: C_8  and  C_9
REMARK    5  A    between atoms: C_17  and  N_18
REMARK    6  A    between atoms: N_18  and  C_19
REMARK    7  A    between atoms: N_18  and  S_20
REMARK    8  A    between atoms: S_20  and  C_23
REMARK                            x       y       z     vdW  Elec       q    Type
REMARK                         _______ _______ _______ _____ _____    ______ ____
ROOT
ATOM      1  C   UNL     1       1.771   5.253  21.116  0.00  0.00    +0.000 C 
ATOM      2  C   UNL     1       2.041   6.214  19.996  0.00  0.00    +0.000 A 
ATOM      3  C   UNL     1       1.486   7.506  20.101  0.00  0.00    +0.000 A 
ATOM      4  C   UNL     1       1.635   8.466  19.091  0.00  0.00    +0.000 A 
ATOM      5  C   UNL     1       2.345   8.122  17.939  0.00  0.00    +0.000 A 
ATOM      6  C   UNL     1       2.919   6.841  17.830  0.00  0.00    +0.000 A 
ATOM      7  C   UNL     1       2.799   5.892  18.860  0.00  0.00    +0.000 A 
ENDROOT
BRANCH   4   8
ATOM      8  C   UNL     1       1.023   9.805  19.340  0.00  0.00    +0.000 C 
ATOM      9  O   UNL     1       1.192  10.354  20.426  0.00  0.00    +0.000 OA
ATOM     10  N   UNL     1       0.245  10.356  18.348  0.00  0.00    +0.000 N 
ATOM     11  H   UNL     1       0.129   9.908  17.453  0.00  0.00    +0.000 HD
BRANCH  10  12
ATOM     12  C   UNL     1      -0.387  11.654  18.525  0.00  0.00    +0.000 C 
BRANCH  12  13
ATOM     13  C   UNL     1      -1.863  11.627  18.200  0.00  0.00    +0.000 A 
ATOM     14  C   UNL     1      -2.299  11.183  16.953  0.00  0.00    +0.000 A 
ATOM     15  C   UNL     1      -3.665  11.154  16.685  0.00  0.00    +0.000 A 
ATOM     16  C   UNL     1      -4.558  11.563  17.666  0.00  0.00    +0.000 A 
ATOM     17  C   UNL     1      -4.045  11.985  18.881  0.00  0.00    +0.000 A 
ATOM     18  N   UNL     1      -2.725  12.023  19.174  0.00  0.00    +0.000 NA
ENDBRANCH  12  13
ENDBRANCH  10  12
ENDBRANCH   4   8
BRANCH   7  19
ATOM     19  N   UNL     1       3.400   4.599  18.681  0.00  0.00    +0.000 N 
ATOM     20  C   UNL     1       2.618   3.500  18.104  0.00  0.00    +0.000 C 
BRANCH  19  21
ATOM     21  S   UNL     1       5.078   4.393  18.886  0.00  0.00    +0.000 S 
ATOM     22  O   UNL     1       5.602   5.556  19.575  0.00  0.00    +0.000 OA
ATOM     23  O   UNL     1       5.339   3.060  19.380  0.00  0.00    +0.000 OA
BRANCH  21  24
ATOM     24  C   UNL     1       5.747   4.481  17.228  0.00  0.00    +0.000 A 
ATOM     25  C   UNL     1       4.917   4.251  16.124  0.00  0.00    +0.000 A 
ATOM     26  C   UNL     1       5.440   4.339  14.831  0.00  0.00    +0.000 A 
ATOM     27  C   UNL     1       6.780   4.679  14.639  0.00  0.00    +0.000 A 
ATOM     28  C   UNL     1       7.593   4.960  15.738  0.00  0.00    +0.000 A 
ATOM     29  C   UNL     1       7.079   4.870  17.034  0.00  0.00    +0.000 A 
ENDBRANCH  21  24
ENDBRANCH  19  21
ENDBRANCH   7  19
TORSDOF 6
ENDMDL
MODEL 3
REMARK VINA RESULT:      -7.9      3.359      8.902
REMARK  Name = 
REMARK  8 active torsions:
REMARK  status: ('A' for Active; 'I' for Inactive)
REMARK    1  A    between atoms: C_1  and  C_2
REMARK    2  A    between atoms: C_4  and  C_5
REMARK    3  A    between atoms: N_7  and  C_8
REMARK    4  A    between atoms: C_8  and  C_9
REMARK    5  A    between atoms: C_17  and  N_18
REMARK    6  A    between atoms: N_18  and  C_19
REMARK    7  A    between atoms: N_18  and  S_20
REMARK    8  A    between atoms: S_20  and  C_23
REMARK                            x       y       z     vdW  Elec       q    Type
REMARK                         _______ _______ _______ _____ _____    ______ ____
ROOT
ATOM      1  C   UNL     1       0.485   9.210  22.060  0.00  0.00    +0.000 C 
ATOM      2  C   UNL     1       1.024   9.037  20.671  0.00  0.00    +0.000 A 
ATOM      3  C   UNL     1       1.585   7.787  20.342  0.00  0.00    +0.000 A 
ATOM      4  C   UNL     1       2.160   7.533  19.091  0.00  0.00    +0.000 A 
ATOM      5  C   UNL     1       2.188   8.560  18.146  0.00  0.00    +0.000 A 
ATOM      6  C   UNL     1       1.615   9.808  18.454  0.00  0.00    +0.000 A 
ATOM      7  C   UNL     1       1.006  10.049  19.699  0.00  0.00    +0.000 A 
ENDROOT
BRANCH   4   8
ATOM      8  C   UNL     1       2.693   6.156  18.861  0.00  0.00    +0.000 C 
ATOM      9  O   UNL     1       2.095   5.397  18.103  0.00  0.00    +0.000 OA
ATOM     10  N   UNL     1       3.819   5.774  19.553  0.00  0.00    +0.000 N 
ATOM     11  H   UNL     1       4.313   6.411  20.157  0.00  0.00    +0.000 HD
BRANCH  10  12
ATOM     12  C   UNL     1       4.388   4.446  19.382  0.00  0.00    +0.000 C 
BRANCH  12  13
ATOM     13  C   UNL     1       5.417   4.397  18.276  0.00  0.00    +0.000 A 
ATOM     14  C   UNL     1       5.035   4.070  16.976  0.00  0.00    +0.000 A 
ATOM     15  C   UNL     1       6.001   4.045  15.974  0.00  0.00    +0.000 A 
ATOM     16  C   UNL     1       7.318   4.351  16.292  0.00  0.00    +0.000 A 
ATOM     17  C   UNL     1       7.615   4.671  17.606  0.00  0.00    +0.000 A 
ATOM     18  N   UNL     1       6.701   4.706  18.602  0.00  0.00    +0.000 NA
ENDBRANCH  12  13
ENDBRANCH  10  12
ENDBRANCH   4   8
BRANCH   7  19
ATOM     19  N   UNL     1       0.449  11.349  19.954  0.00  0.00    +0.000 N 
ATOM     20  C   UNL     1       1.292  12.412  20.512  0.00  0.00    +0.000 C 
BRANCH  19  21
ATOM     21  S   UNL     1      -1.103  11.750  19.378  0.00  0.00    +0.000 S 
ATOM     22  O   UNL     1      -1.005  12.976  18.610  0.00  0.00    +0.000 OA
ATOM     23  O   UNL     1      -1.723  10.572  18.816  0.00  0.00    +0.000 OA
BRANCH  21  24
ATOM     24  C   UNL     1      -2.029  12.182  20.848  0.00  0.00    +0.000 A 
ATOM     25  C   UNL     1      -3.244  12.868  20.736  0.00  0.00    +0.000 A 
ATOM     26  C   UNL     1      -3.970  13.187  21.887  0.00  0.00    +0.000 A 
ATOM     27  C   UNL     1      -3.499  12.803  23.143  0.00  0.00    +0.000 A 
ATOM     28  C   UNL     1      -2.314  12.072  23.249  0.00  0.00    +0.000 A 
ATOM     29  C   UNL     1      -1.580  11.753  22.104  0.00  0.00    +0.000 A 
ENDBRANCH  21  24
ENDBRANCH  19  21
ENDBRANCH   7  19
TORSDOF 6
ENDMDL
MODEL 4
REMARK VINA RESULT:      -7.8      1.942      4.052
REMARK  Name = 
REMARK  8 active torsions:
REMARK  status: ('A' for Active; 'I' for Inactive)
REMARK    1  A    between atoms: C_1  and  C_2
REMARK    2  A    between atoms: C_4  and  C_5
REMARK    3  A    between atoms: N_7  and  C_8
REMARK    4  A    between atoms: C_8  and  C_9
REMARK    5  A    between atoms: C_17  and  N_18
REMARK    6  A    between atoms: N_18  and  C_19
REMARK    7  A    between atoms: N_18  and  S_20
REMARK    8  A    between atoms: S_20  and  C_23
REMARK                            x       y       z     vdW  Elec       q    Type
REMARK                         _______ _______ _______ _____ _____    ______ ____
ROOT
ATOM      1  C   UNL     1       1.831   5.353  21.089  0.00  0.00    +0.000 C 
ATOM      2  C   UNL     1       2.064   6.334  19.978  0.00  0.00    +0.000 A 
ATOM      3  C   UNL     1       1.549   7.636  20.142  0.00  0.00    +0.000 A 
ATOM      4  C   UNL     1       1.667   8.616  19.149  0.00  0.00    +0.000 A 
ATOM      5  C   UNL     1       2.304   8.282  17.951  0.00  0.00    +0.000 A 
ATOM      6  C   UNL     1       2.838   6.991  17.781  0.00  0.00    +0.000 A 
ATOM      7  C   UNL     1       2.751   6.020  18.795  0.00  0.00    +0.000 A 
ENDROOT
BRANCH   4   8
ATOM      8  C   UNL     1       1.104   9.964  19.460  0.00  0.00    +0.000 C 
ATOM      9  O   UNL     1       1.059  10.343  20.628  0.00  0.00    +0.000 OA
ATOM     10  N   UNL     1       0.608  10.715  18.420  0.00  0.00    +0.000 N 
ATOM     11  H   UNL     1       0.667  10.403  17.464  0.00  0.00    +0.000 HD
BRANCH  10  12
ATOM     12  C   UNL     1       0.038  12.033  18.654  0.00  0.00    +0.000 C 
BRANCH  12  13
ATOM     13  C   UNL     1      -1.471  12.003  18.738  0.00  0.00    +0.000 A 
ATOM     14  C   UNL     1      -2.121  12.509  19.863  0.00  0.00    +0.000 A 
ATOM     15  C   UNL     1      -3.512  12.482  19.909  0.00  0.00    +0.000 A 
ATOM     16  C   UNL     1      -4.217  11.957  18.834  0.00  0.00    +0.000 A 
ATOM     17  C   UNL     1      -3.497  11.479  17.752  0.00  0.00    +0.000 A 
ATOM     18  N   UNL     1      -2.147  11.492  17.675  0.00  0.00    +0.000 NA
ENDBRANCH  12  13
ENDBRANCH  10  12
ENDBRANCH   4   8
BRANCH   7  19
ATOM     19  N   UNL     1       3.308   4.718  18.554  0.00  0.00    +0.000 N 
ATOM     20  C   UNL     1       2.517   3.701  17.851  0.00  0.00    +0.000 C 
BRANCH  19  21
ATOM     21  S   UNL     1       4.960   4.421  18.839  0.00  0.00    +0.000 S 
ATOM     22  O   UNL     1       5.487   5.501  19.651  0.00  0.00    +0.000 OA
ATOM     23  O   UNL     1       5.136   3.043  19.235  0.00  0.00    +0.000 OA
BRANCH  21  24
ATOM     24  C   UNL     1       5.733   4.612  17.235  0.00  0.00    +0.000 A 
ATOM     25  C   UNL     1       6.726   5.581  17.045  0.00  0.00    +0.000 A 
ATOM     26  C   UNL     1       7.338   5.713  15.796  0.00  0.00    +0.000 A 
ATOM     27  C   UNL     1       6.978   4.867  14.746  0.00  0.00    +0.000 A 
ATOM     28  C   UNL     1       6.027   3.866  14.952  0.00  0.00    +0.000 A 
ATOM     29  C   UNL     1       5.407   3.730  16.196  0.00  0.00    +0.000 A 
ENDBRANCH  21  24
ENDBRANCH  19  21
ENDBRANCH   7  19
TORSDOF 6
ENDMDL
MODEL 5
REMARK VINA RESULT:      -7.8      1.527      3.341
REMARK  Name = 
REMARK  8 active torsions:
REMARK  status: ('A' for Active; 'I' for Inactive)
REMARK    1  A    between atoms: C_1  and  C_2
REMARK    2  A    between atoms: C_4  and  C_5
REMARK    3  A    between atoms: N_7  and  C_8
REMARK    4  A    between atoms: C_8  and  C_9
REMARK    5  A    between atoms: C_17  and  N_18
REMARK    6  A    between atoms: N_18  and  C_19
REMARK    7  A    between atoms: N_18  and  S_20
REMARK    8  A    between atoms: S_20  and  C_23
REMARK                            x       y       z     vdW  Elec       q    Type
REMARK                         _______ _______ _______ _____ _____    ______ ____
ROOT
ATOM      1  C   UNL     1       1.667   3.959  17.158  0.00  0.00    +0.000 C 
ATOM      2  C   UNL     1       1.962   4.978  18.219  0.00  0.00    +0.000 A 
ATOM      3  C   UNL     1       1.707   6.329  17.910  0.00  0.00    +0.000 A 
ATOM      4  C   UNL     1       1.991   7.366  18.808  0.00  0.00    +0.000 A 
ATOM      5  C   UNL     1       2.559   7.046  20.043  0.00  0.00    +0.000 A 
ATOM      6  C   UNL     1       2.802   5.699  20.371  0.00  0.00    +0.000 A 
ATOM      7  C   UNL     1       2.482   4.657  19.482  0.00  0.00    +0.000 A 
ENDROOT
BRANCH   4   8
ATOM      8  C   UNL     1       1.645   8.751  18.369  0.00  0.00    +0.000 C 
ATOM      9  O   UNL     1       2.136   9.196  17.334  0.00  0.00    +0.000 OA
ATOM     10  N   UNL     1       0.820   9.499  19.175  0.00  0.00    +0.000 N 
ATOM     11  H   UNL     1       0.407   9.119  20.012  0.00  0.00    +0.000 HD
BRANCH  10  12
ATOM     12  C   UNL     1       0.449  10.858  18.812  0.00  0.00    +0.000 C 
BRANCH  12  13
ATOM     13  C   UNL     1      -1.023  10.989  18.492  0.00  0.00    +0.000 A 
ATOM     14  C   UNL     1      -1.603  10.180  17.517  0.00  0.00    +0.000 A 
ATOM     15  C   UNL     1      -2.964  10.311  17.252  0.00  0.00    +0.000 A 
ATOM     16  C   UNL     1      -3.709  11.239  17.968  0.00  0.00    +0.000 A 
ATOM     17  C   UNL     1      -3.059  12.000  18.924  0.00  0.00    +0.000 A 
ATOM     18  N   UNL     1      -1.740  11.896  19.207  0.00  0.00    +0.000 NA
ENDBRANCH  12  13
ENDBRANCH  10  12
ENDBRANCH   4   8
BRANCH   7  19
ATOM     19  N   UNL     1       2.766   3.304  19.874  0.00  0.00    +0.000 N 
ATOM     20  C   UNL     1       1.752   2.519  20.588  0.00  0.00    +0.000 C 
BRANCH  19  21
ATOM     21  S   UNL     1       4.160   2.514  19.297  0.00  0.00    +0.000 S 
ATOM     22  O   UNL     1       4.986   2.152  20.433  0.00  0.00    +0.000 OA
ATOM     23  O   UNL     1       3.777   1.526  18.315  0.00  0.00    +0.000 OA
BRANCH  21  24
ATOM     24  C   UNL     1       5.073   3.789  18.433  0.00  0.00    +0.000 A 
ATOM     25  C   UNL     1       5.856   4.701  19.152  0.00  0.00    +0.000 A 
ATOM     26  C   UNL     1       6.581   5.683  18.471  0.00  0.00    +0.000 A 
ATOM     27  C   UNL     1       6.542   5.742  17.077  0.00  0.00    +0.000 A 
ATOM     28  C   UNL     1       5.804   4.799  16.359  0.00  0.00    +0.000 A 
ATOM     29  C   UNL     1       5.074   3.818  17.033  0.00  0.00    +0.000 A 
ENDBRANCH  21  24
ENDBRANCH  19  21
ENDBRANCH   7  19
TORSDOF 6
ENDMDL
MODEL 6
REMARK VINA RESULT:      -7.7      2.280      4.385
REMARK  Name = 
REMARK  8 active torsions:
REMARK  status: ('A' for Active; 'I' for Inactive)
REMARK    1  A    between atoms: C_1  and  C_2
REMARK    2  A    between atoms: C_4  and  C_5
REMARK    3  A    between atoms: N_7  and  C_8
REMARK    4  A    between atoms: C_8  and  C_9
REMARK    5  A    between atoms: C_17  and  N_18
REMARK    6  A    between atoms: N_18  and  C_19
REMARK    7  A    between atoms: N_18  and  S_20
REMARK    8  A    between atoms: S_20  and  C_23
REMARK                            x       y       z     vdW  Elec       q    Type
REMARK                         _______ _______ _______ _____ _____    ______ ____
ROOT
ATOM      1  C   UNL     1       1.814   5.804  21.038  0.00  0.00    +0.000 C 
ATOM      2  C   UNL     1       2.162   6.591  19.809  0.00  0.00    +0.000 A 
ATOM      3  C   UNL     1       1.688   7.916  19.731  0.00  0.00    +0.000 A 
ATOM      4  C   UNL     1       1.913   8.724  18.609  0.00  0.00    +0.000 A 
ATOM      5  C   UNL     1       2.618   8.189  17.529  0.00  0.00    +0.000 A 
ATOM      6  C   UNL     1       3.112   6.873  17.601  0.00  0.00    +0.000 A 
ATOM      7  C   UNL     1       2.916   6.076  18.743  0.00  0.00    +0.000 A 
ENDROOT
BRANCH   4   8
ATOM      8  C   UNL     1       1.383  10.119  18.666  0.00  0.00    +0.000 C 
ATOM      9  O   UNL     1       2.120  11.057  18.369  0.00  0.00    +0.000 OA
ATOM     10  N   UNL     1       0.091  10.304  19.100  0.00  0.00    +0.000 N 
ATOM     11  H   UNL     1      -0.511   9.528  19.322  0.00  0.00    +0.000 HD
BRANCH  10  12
ATOM     12  C   UNL     1      -0.487  11.636  19.186  0.00  0.00    +0.000 C 
BRANCH  12  13
ATOM     13  C   UNL     1      -0.917  11.988  20.592  0.00  0.00    +0.000 A 
ATOM     14  C   UNL     1      -0.708  11.088  21.636  0.00  0.00    +0.000 A 
ATOM     15  C   UNL     1      -1.102  11.443  22.923  0.00  0.00    +0.000 A 
ATOM     16  C   UNL     1      -1.687  12.684  23.137  0.00  0.00    +0.000 A 
ATOM     17  C   UNL     1      -1.855  13.523  22.048  0.00  0.00    +0.000 A 
ATOM     18  N   UNL     1      -1.482  13.210  20.786  0.00  0.00    +0.000 NA
ENDBRANCH  12  13
ENDBRANCH  10  12
ENDBRANCH   4   8
BRANCH   7  19
ATOM     19  N   UNL     1       3.437   4.737  18.748  0.00  0.00    +0.000 N 
ATOM     20  C   UNL     1       2.574   3.613  18.369  0.00  0.00    +0.000 C 
BRANCH  19  21
ATOM     21  S   UNL     1       5.108   4.463  18.936  0.00  0.00    +0.000 S 
ATOM     22  O   UNL     1       5.691   5.617  19.592  0.00  0.00    +0.000 OA
ATOM     23  O   UNL     1       5.317   3.131  19.455  0.00  0.00    +0.000 OA
BRANCH  21  24
ATOM     24  C   UNL     1       5.756   4.486  17.267  0.00  0.00    +0.000 A 
ATOM     25  C   UNL     1       4.955   4.068  16.197  0.00  0.00    +0.000 A 
ATOM     26  C   UNL     1       5.461   4.105  14.895  0.00  0.00    +0.000 A 
ATOM     27  C   UNL     1       6.751   4.581  14.658  0.00  0.00    +0.000 A 
ATOM     28  C   UNL     1       7.529   5.049  15.719  0.00  0.00    +0.000 A 
ATOM     29  C   UNL     1       7.032   5.010  17.024  0.00  0.00    +0.000 A 
ENDBRANCH  21  24
ENDBRANCH  19  21
ENDBRANCH   7  19
TORSDOF 6
ENDMDL
MODEL 7
REMARK VINA RESULT:      -7.6      1.869      3.827
REMARK  Name = 
REMARK  8 active torsions:
REMARK  status: ('A' for Active; 'I' for Inactive)
REMARK    1  A    between atoms: C_1  and  C_2
REMARK    2  A    between atoms: C_4  and  C_5
REMARK    3  A    between atoms: N_7  and  C_8
REMARK    4  A    between atoms: C_8  and  C_9
REMARK    5  A    between atoms: C_17  and  N_18
REMARK    6  A    between atoms: N_18  and  C_19
REMARK    7  A    between atoms: N_18  and  S_20
REMARK    8  A    between atoms: S_20  and  C_23
REMARK                            x       y       z     vdW  Elec       q    Type
REMARK                         _______ _______ _______ _____ _____    ______ ____
ROOT
ATOM      1  C   UNL     1       2.032   3.817  21.701  0.00  0.00    +0.000 C 
ATOM      2  C   UNL     1       2.050   4.826  20.590  0.00  0.00    +0.000 A 
ATOM      3  C   UNL     1       1.789   6.169  20.928  0.00  0.00    +0.000 A 
ATOM      4  C   UNL     1       1.734   7.183  19.964  0.00  0.00    +0.000 A 
ATOM      5  C   UNL     1       1.930   6.845  18.624  0.00  0.00    +0.000 A 
ATOM      6  C   UNL     1       2.210   5.511  18.275  0.00  0.00    +0.000 A 
ATOM      7  C   UNL     1       2.301   4.500  19.248  0.00  0.00    +0.000 A 
ENDROOT
BRANCH   4   8
ATOM      8  C   UNL     1       1.477   8.569  20.458  0.00  0.00    +0.000 C 
ATOM      9  O   UNL     1       1.517   8.796  21.665  0.00  0.00    +0.000 OA
ATOM     10  N   UNL     1       1.155   9.537  19.535  0.00  0.00    +0.000 N 
ATOM     11  H   UNL     1       1.143   9.345  18.546  0.00  0.00    +0.000 HD
BRANCH  10  12
ATOM     12  C   UNL     1       0.886  10.906  19.948  0.00  0.00    +0.000 C 
BRANCH  12  13
ATOM     13  C   UNL     1      -0.543  11.319  19.679  0.00  0.00    +0.000 A 
ATOM     14  C   UNL     1      -1.221  10.821  18.567  0.00  0.00    +0.000 A 
ATOM     15  C   UNL     1      -2.541  11.207  18.351  0.00  0.00    +0.000 A 
ATOM     16  C   UNL     1      -3.151  12.073  19.249  0.00  0.00    +0.000 A 
ATOM     17  C   UNL     1      -2.412  12.518  20.331  0.00  0.00    +0.000 A 
ATOM     18  N   UNL     1      -1.129  12.162  20.571  0.00  0.00    +0.000 NA
ENDBRANCH  12  13
ENDBRANCH  10  12
ENDBRANCH   4   8
BRANCH   7  19
ATOM     19  N   UNL     1       2.579   3.156  18.824  0.00  0.00    +0.000 N 
ATOM     20  C   UNL     1       1.494   2.307  18.319  0.00  0.00    +0.000 C 
BRANCH  19  21
ATOM     21  S   UNL     1       4.187   2.620  18.655  0.00  0.00    +0.000 S 
ATOM     22  O   UNL     1       4.783   2.536  19.975  0.00  0.00    +0.000 OA
ATOM     23  O   UNL     1       4.222   1.493  17.753  0.00  0.00    +0.000 OA
BRANCH  21  24
ATOM     24  C   UNL     1       5.027   3.975  17.840  0.00  0.00    +0.000 A 
ATOM     25  C   UNL     1       4.853   4.184  16.466  0.00  0.00    +0.000 A 
ATOM     26  C   UNL     1       5.497   5.253  15.839  0.00  0.00    +0.000 A 
ATOM     27  C   UNL     1       6.292   6.126  16.584  0.00  0.00    +0.000 A 
ATOM     28  C   UNL     1       6.421   5.949  17.962  0.00  0.00    +0.000 A 
ATOM     29  C   UNL     1       5.785   4.879  18.596  0.00  0.00    +0.000 A 
ENDBRANCH  21  24
ENDBRANCH  19  21
ENDBRANCH   7  19
TORSDOF 6
ENDMDL
MODEL 8
REMARK VINA RESULT:      -7.6      1.852      2.470
REMARK  Name = 
REMARK  8 active torsions:
REMARK  status: ('A' for Active; 'I' for Inactive)
REMARK    1  A    between atoms: C_1  and  C_2
REMARK    2  A    between atoms: C_4  and  C_5
REMARK    3  A    between atoms: N_7  and  C_8
REMARK    4  A    between atoms: C_8  and  C_9
REMARK    5  A    between atoms: C_17  and  N_18
REMARK    6  A    between atoms: N_18  and  C_19
REMARK    7  A    between atoms: N_18  and  S_20
REMARK    8  A    between atoms: S_20  and  C_23
REMARK                            x       y       z     vdW  Elec       q    Type
REMARK                         _______ _______ _______ _____ _____    ______ ____
ROOT
ATOM      1  C   UNL     1       4.824   6.900  16.420  0.00  0.00    +0.000 C 
ATOM      2  C   UNL     1       3.924   6.986  17.617  0.00  0.00    +0.000 A 
ATOM      3  C   UNL     1       2.930   7.985  17.612  0.00  0.00    +0.000 A 
ATOM      4  C   UNL     1       2.067   8.184  18.697  0.00  0.00    +0.000 A 
ATOM      5  C   UNL     1       2.211   7.373  19.824  0.00  0.00    +0.000 A 
ATOM      6  C   UNL     1       3.187   6.360  19.836  0.00  0.00    +0.000 A 
ATOM      7  C   UNL     1       4.028   6.138  18.730  0.00  0.00    +0.000 A 
ENDROOT
BRANCH   4   8
ATOM      8  C   UNL     1       1.039   9.258  18.552  0.00  0.00    +0.000 C 
ATOM      9  O   UNL     1       0.371   9.318  17.522  0.00  0.00    +0.000 OA
ATOM     10  N   UNL     1       0.914  10.176  19.568  0.00  0.00    +0.000 N 
ATOM     11  H   UNL     1       1.453  10.108  20.416  0.00  0.00    +0.000 HD
BRANCH  10  12
ATOM     12  C   UNL     1      -0.063  11.252  19.489  0.00  0.00    +0.000 C 
BRANCH  12  13
ATOM     13  C   UNL     1      -0.823  11.438  20.783  0.00  0.00    +0.000 A 
ATOM     14  C   UNL     1      -0.479  10.695  21.911  0.00  0.00    +0.000 A 
ATOM     15  C   UNL     1      -1.186  10.896  23.094  0.00  0.00    +0.000 A 
ATOM     16  C   UNL     1      -2.211  11.833  23.121  0.00  0.00    +0.000 A 
ATOM     17  C   UNL     1      -2.486  12.534  21.960  0.00  0.00    +0.000 A 
ATOM     18  N   UNL     1      -1.818  12.364  20.796  0.00  0.00    +0.000 NA
ENDBRANCH  12  13
ENDBRANCH  10  12
ENDBRANCH   4   8
BRANCH   7  19
ATOM     19  N   UNL     1       5.012   5.094  18.810  0.00  0.00    +0.000 N 
ATOM     20  C   UNL     1       6.346   5.382  19.350  0.00  0.00    +0.000 C 
BRANCH  19  21
ATOM     21  S   UNL     1       4.572   3.472  18.531  0.00  0.00    +0.000 S 
ATOM     22  O   UNL     1       4.401   3.283  17.103  0.00  0.00    +0.000 OA
ATOM     23  O   UNL     1       5.438   2.604  19.295  0.00  0.00    +0.000 OA
BRANCH  21  24
ATOM     24  C   UNL     1       2.931   3.326  19.230  0.00  0.00    +0.000 A 
ATOM     25  C   UNL     1       1.809   3.307  18.391  0.00  0.00    +0.000 A 
ATOM     26  C   UNL     1       0.532   3.175  18.942  0.00  0.00    +0.000 A 
ATOM     27  C   UNL     1       0.374   3.039  20.322  0.00  0.00    +0.000 A 
ATOM     28  C   UNL     1       1.496   3.004  21.153  0.00  0.00    +0.000 A 
ATOM     29  C   UNL     1       2.776   3.140  20.610  0.00  0.00    +0.000 A 
ENDBRANCH  21  24
ENDBRANCH  19  21
ENDBRANCH   7  19
TORSDOF 6
ENDMDL
MODEL 9
REMARK VINA RESULT:      -7.6      2.757      4.876
REMARK  Name = 
REMARK  8 active torsions:
REMARK  status: ('A' for Active; 'I' for Inactive)
REMARK    1  A    between atoms: C_1  and  C_2
REMARK    2  A    between atoms: C_4  and  C_5
REMARK    3  A    between atoms: N_7  and  C_8
REMARK    4  A    between atoms: C_8  and  C_9
REMARK    5  A    between atoms: C_17  and  N_18
REMARK    6  A    between atoms: N_18  and  C_19
REMARK    7  A    between atoms: N_18  and  S_20
REMARK    8  A    between atoms: S_20  and  C_23
REMARK                            x       y       z     vdW  Elec       q    Type
REMARK                         _______ _______ _______ _____ _____    ______ ____
ROOT
ATOM      1  C   UNL     1       1.898   5.034  21.191  0.00  0.00    +0.000 C 
ATOM      2  C   UNL     1       2.088   6.096  20.150  0.00  0.00    +0.000 A 
ATOM      3  C   UNL     1       1.553   7.372  20.418  0.00  0.00    +0.000 A 
ATOM      4  C   UNL     1       1.631   8.423  19.495  0.00  0.00    +0.000 A 
ATOM      5  C   UNL     1       2.249   8.190  18.265  0.00  0.00    +0.000 A 
ATOM      6  C   UNL     1       2.804   6.926  17.991  0.00  0.00    +0.000 A 
ATOM      7  C   UNL     1       2.756   5.882  18.934  0.00  0.00    +0.000 A 
ENDROOT
BRANCH   4   8
ATOM      8  C   UNL     1       1.050   9.733  19.915  0.00  0.00    +0.000 C 
ATOM      9  O   UNL     1       0.671   9.881  21.074  0.00  0.00    +0.000 OA
ATOM     10  N   UNL     1       0.916  10.717  18.963  0.00  0.00    +0.000 N 
ATOM     11  H   UNL     1       1.247  10.593  18.020  0.00  0.00    +0.000 HD
BRANCH  10  12
ATOM     12  C   UNL     1       0.350  12.014  19.301  0.00  0.00    +0.000 C 
BRANCH  12  13
ATOM     13  C   UNL     1       1.270  13.157  18.936  0.00  0.00    +0.000 A 
ATOM     14  C   UNL     1       0.831  14.475  19.052  0.00  0.00    +0.000 A 
ATOM     15  C   UNL     1       1.703  15.510  18.723  0.00  0.00    +0.000 A 
ATOM     16  C   UNL     1       2.988  15.204  18.293  0.00  0.00    +0.000 A 
ATOM     17  C   UNL     1       3.348  13.870  18.210  0.00  0.00    +0.000 A 
ATOM     18  N   UNL     1       2.526  12.842  18.524  0.00  0.00    +0.000 NA
ENDBRANCH  12  13
ENDBRANCH  10  12
ENDBRANCH   4   8
BRANCH   7  19
ATOM     19  N   UNL     1       3.332   4.612  18.588  0.00  0.00    +0.000 N 
ATOM     20  C   UNL     1       2.548   3.635  17.825  0.00  0.00    +0.000 C 
BRANCH  19  21
ATOM     21  S   UNL     1       4.995   4.327  18.824  0.00  0.00    +0.000 S 
ATOM     22  O   UNL     1       5.550   5.441  19.568  0.00  0.00    +0.000 OA
ATOM     23  O   UNL     1       5.187   2.968  19.271  0.00  0.00    +0.000 OA
BRANCH  21  24
ATOM     24  C   UNL     1       5.707   4.449  17.185  0.00  0.00    +0.000 A 
ATOM     25  C   UNL     1       4.904   4.255  16.055  0.00  0.00    +0.000 A 
ATOM     26  C   UNL     1       5.461   4.369  14.779  0.00  0.00    +0.000 A 
ATOM     27  C   UNL     1       6.809   4.699  14.630  0.00  0.00    +0.000 A 
ATOM     28  C   UNL     1       7.596   4.945  15.756  0.00  0.00    +0.000 A 
ATOM     29  C   UNL     1       7.047   4.829  17.035  0.00  0.00    +0.000 A 
ENDBRANCH  21  24
ENDBRANCH  19  21
ENDBRANCH   7  19
TORSDOF 6
ENDMDL
