MODEL 1
REMARK VINA RESULT:      -8.0      0.000      0.000
REMARK  Name = 
REMARK  6 active torsions:
REMARK  status: ('A' for Active; 'I' for Inactive)
REMARK    1  A    between atoms: C_1  and  C_2
REMARK    2  A    between atoms: C_4  and  C_5
REMARK    3  A    between atoms: C_5  and  S_6
REMARK    4  A    between atoms: S_6  and  C_7
REMARK    5  A    between atoms: C_15  and  N_16
REMARK    6  A    between atoms: C_17  and  C_19
REMARK                            x       y       z     vdW  Elec       q    Type
REMARK                         _______ _______ _______ _____ _____    ______ ____
ROOT
ATOM      1  C   UNL     1       2.248   9.068  17.822  0.00  0.00    +0.000 C 
ATOM      2  C   UNL     1       2.190   7.862  18.723  0.00  0.00    +0.000 A 
ATOM      3  C   UNL     1       2.801   6.674  18.259  0.00  0.00    +0.000 A 
ATOM      4  C   UNL     1       2.839   5.502  19.032  0.00  0.00    +0.000 A 
ATOM      5  C   UNL     1       2.288   5.559  20.312  0.00  0.00    +0.000 A 
ATOM      6  C   UNL     1       1.639   6.708  20.763  0.00  0.00    +0.000 A 
ATOM      7  C   UNL     1       1.561   7.866  19.984  0.00  0.00    +0.000 A 
ENDROOT
BRANCH   7   8
ATOM      8  N   UNL     1       0.846   9.016  20.424  0.00  0.00    +0.000 N 
ATOM      9  C   UNL     1       0.973   9.648  21.650  0.00  0.00    +0.000 C 
ATOM     10  O   UNL     1       1.818   9.359  22.496  0.00  0.00    +0.000 OA
ATOM     11  H   UNL     1       0.181   9.404  19.767  0.00  0.00    +0.000 HD
BRANCH   9  12
ATOM     12  C   UNL     1       0.074  10.815  21.965  0.00  0.00    +0.000 A 
ATOM     13  C   UNL     1      -0.967  10.534  22.874  0.00  0.00    +0.000 A 
ATOM     14  C   UNL     1      -1.859  11.518  23.304  0.00  0.00    +0.000 A 
ATOM     15  C   UNL     1      -1.727  12.815  22.828  0.00  0.00    +0.000 A 
ATOM     16  C   UNL     1      -0.723  13.111  21.904  0.00  0.00    +0.000 A 
ATOM     17  C   UNL     1       0.173  12.120  21.463  0.00  0.00    +0.000 A 
ATOM     18 CL   UNL     1       1.320  12.624  20.272  0.00  0.00    +0.000 Cl
ENDBRANCH   9  12
ENDBRANCH   7   8
BRANCH   4  19
ATOM     19  C   UNL     1       3.535   4.268  18.492  0.00  0.00    +0.000 C 
BRANCH  19  20
ATOM     20  S   UNL     1       4.513   4.557  16.972  0.00  0.00    +0.000 S 
BRANCH  20  21
ATOM     21  C   UNL     1       5.946   5.433  17.583  0.00  0.00    +0.000 A 
ATOM     22  C   UNL     1       6.299   6.631  16.950  0.00  0.00    +0.000 A 
ATOM     23  C   UNL     1       7.360   7.406  17.429  0.00  0.00    +0.000 A 
ATOM     24  C   UNL     1       8.075   6.991  18.548  0.00  0.00    +0.000 A 
ATOM     25  C   UNL     1       7.732   5.801  19.185  0.00  0.00    +0.000 A 
ATOM     26  C   UNL     1       6.670   5.028  18.708  0.00  0.00    +0.000 A 
ENDBRANCH  20  21
ENDBRANCH  19  20
ENDBRANCH   4  19
TORSDOF 5
ENDMDL
MODEL 2
REMARK VINA RESULT:      -7.7      1.755      2.627
REMARK  Name = 
REMARK  6 active torsions:
REMARK  status: ('A' for Active; 'I' for Inactive)
REMARK    1  A    between atoms: C_1  and  C_2
REMARK    2  A    between atoms: C_4  and  C_5
REMARK    3  A    between atoms: C_5  and  S_6
REMARK    4  A    between atoms: S_6  and  C_7
REMARK    5  A    between atoms: C_15  and  N_16
REMARK    6  A    between atoms: C_17  and  C_19
REMARK                            x       y       z     vdW  Elec       q    Type
REMARK                         _______ _______ _______ _____ _____    ______ ____
ROOT
ATOM      1  C   UNL     1       1.514   5.304  20.516  0.00  0.00    +0.000 C 
ATOM      2  C   UNL     1       2.374   5.725  19.352  0.00  0.00    +0.000 A 
ATOM      3  C   UNL     1       3.066   4.709  18.654  0.00  0.00    +0.000 A 
ATOM      4  C   UNL     1       3.864   4.984  17.532  0.00  0.00    +0.000 A 
ATOM      5  C   UNL     1       3.919   6.307  17.092  0.00  0.00    +0.000 A 
ATOM      6  C   UNL     1       3.283   7.326  17.800  0.00  0.00    +0.000 A 
ATOM      7  C   UNL     1       2.519   7.066  18.942  0.00  0.00    +0.000 A 
ENDROOT
BRANCH   7   8
ATOM      8  N   UNL     1       1.921   8.115  19.696  0.00  0.00    +0.000 N 
ATOM      9  C   UNL     1       1.209   9.192  19.192  0.00  0.00    +0.000 C 
ATOM     10  O   UNL     1       0.899   9.327  18.010  0.00  0.00    +0.000 OA
ATOM     11  H   UNL     1       2.031   8.060  20.700  0.00  0.00    +0.000 HD
BRANCH   9  12
ATOM     12  C   UNL     1       0.711  10.246  20.145  0.00  0.00    +0.000 A 
ATOM     13  C   UNL     1       1.067  11.568  19.806  0.00  0.00    +0.000 A 
ATOM     14  C   UNL     1       0.645  12.664  20.562  0.00  0.00    +0.000 A 
ATOM     15  C   UNL     1      -0.147  12.457  21.682  0.00  0.00    +0.000 A 
ATOM     16  C   UNL     1      -0.488  11.155  22.055  0.00  0.00    +0.000 A 
ATOM     17  C   UNL     1      -0.058  10.048  21.300  0.00  0.00    +0.000 A 
ATOM     18 CL   UNL     1      -0.507   8.498  21.921  0.00  0.00    +0.000 Cl
ENDBRANCH   9  12
ENDBRANCH   7   8
BRANCH   4  19
ATOM     19  C   UNL     1       4.558   3.848  16.806  0.00  0.00    +0.000 C 
BRANCH  19  20
ATOM     20  S   UNL     1       6.028   4.357  15.841  0.00  0.00    +0.000 S 
BRANCH  20  21
ATOM     21  C   UNL     1       6.939   5.359  17.006  0.00  0.00    +0.000 A 
ATOM     22  C   UNL     1       7.112   6.717  16.707  0.00  0.00    +0.000 A 
ATOM     23  C   UNL     1       7.744   7.573  17.613  0.00  0.00    +0.000 A 
ATOM     24  C   UNL     1       8.208   7.079  18.829  0.00  0.00    +0.000 A 
ATOM     25  C   UNL     1       8.042   5.731  19.137  0.00  0.00    +0.000 A 
ATOM     26  C   UNL     1       7.407   4.876  18.232  0.00  0.00    +0.000 A 
ENDBRANCH  20  21
ENDBRANCH  19  20
ENDBRANCH   4  19
TORSDOF 5
ENDMDL
MODEL 3
REMARK VINA RESULT:      -7.7      0.581      1.089
REMARK  Name = 
REMARK  6 active torsions:
REMARK  status: ('A' for Active; 'I' for Inactive)
REMARK    1  A    between atoms: C_1  and  C_2
REMARK    2  A    between atoms: C_4  and  C_5
REMARK    3  A    between atoms: C_5  and  S_6
REMARK    4  A    between atoms: S_6  and  C_7
REMARK    5  A    between atoms: C_15  and  N_16
REMARK    6  A    between atoms: C_17  and  C_19
REMARK                            x       y       z     vdW  Elec       q    Type
REMARK                         _______ _______ _______ _____ _____    ______ ____
ROOT
ATOM      1  C   UNL     1       2.164   9.177  17.810  0.00  0.00    +0.000 C 
ATOM      2  C   UNL     1       2.063   7.968  18.703  0.00  0.00    +0.000 A 
ATOM      3  C   UNL     1       2.607   6.755  18.219  0.00  0.00    +0.000 A 
ATOM      4  C   UNL     1       2.602   5.577  18.982  0.00  0.00    +0.000 A 
ATOM      5  C   UNL     1       2.076   5.649  20.272  0.00  0.00    +0.000 A 
ATOM      6  C   UNL     1       1.492   6.824  20.744  0.00  0.00    +0.000 A 
ATOM      7  C   UNL     1       1.457   7.992  19.975  0.00  0.00    +0.000 A 
ENDROOT
BRANCH   7   8
ATOM      8  N   UNL     1       0.807   9.172  20.437  0.00  0.00    +0.000 N 
ATOM      9  C   UNL     1       0.909   9.730  21.701  0.00  0.00    +0.000 C 
ATOM     10  O   UNL     1       1.677   9.332  22.575  0.00  0.00    +0.000 OA
ATOM     11  H   UNL     1       0.214   9.644  19.767  0.00  0.00    +0.000 HD
BRANCH   9  12
ATOM     12  C   UNL     1       0.085  10.947  22.028  0.00  0.00    +0.000 A 
ATOM     13  C   UNL     1      -0.999  10.713  22.901  0.00  0.00    +0.000 A 
ATOM     14  C   UNL     1      -1.832  11.744  23.338  0.00  0.00    +0.000 A 
ATOM     15  C   UNL     1      -1.597  13.042  22.906  0.00  0.00    +0.000 A 
ATOM     16  C   UNL     1      -0.548  13.294  22.019  0.00  0.00    +0.000 A 
ATOM     17  C   UNL     1       0.289  12.256  21.570  0.00  0.00    +0.000 A 
ATOM     18 CL   UNL     1       1.501  12.713  20.426  0.00  0.00    +0.000 Cl
ENDBRANCH   9  12
ENDBRANCH   7   8
BRANCH   4  19
ATOM     19  C   UNL     1       3.227   4.314  18.421  0.00  0.00    +0.000 C 
BRANCH  19  20
ATOM     20  S   UNL     1       4.847   3.885  19.155  0.00  0.00    +0.000 S 
BRANCH  20  21
ATOM     21  C   UNL     1       5.912   5.190  18.559  0.00  0.00    +0.000 A 
ATOM     22  C   UNL     1       7.020   5.539  19.341  0.00  0.00    +0.000 A 
ATOM     23  C   UNL     1       7.937   6.495  18.894  0.00  0.00    +0.000 A 
ATOM     24  C   UNL     1       7.756   7.108  17.658  0.00  0.00    +0.000 A 
ATOM     25  C   UNL     1       6.657   6.769  16.872  0.00  0.00    +0.000 A 
ATOM     26  C   UNL     1       5.742   5.811  17.318  0.00  0.00    +0.000 A 
ENDBRANCH  20  21
ENDBRANCH  19  20
ENDBRANCH   4  19
TORSDOF 5
ENDMDL
MODEL 4
REMARK VINA RESULT:      -7.6      1.457      2.301
REMARK  Name = 
REMARK  6 active torsions:
REMARK  status: ('A' for Active; 'I' for Inactive)
REMARK    1  A    between atoms: C_1  and  C_2
REMARK    2  A    between atoms: C_4  and  C_5
REMARK    3  A    between atoms: C_5  and  S_6
REMARK    4  A    between atoms: S_6  and  C_7
REMARK    5  A    between atoms: C_15  and  N_16
REMARK    6  A    between atoms: C_17  and  C_19
REMARK                            x       y       z     vdW  Elec       q    Type
REMARK                         _______ _______ _______ _____ _____    ______ ____
ROOT
ATOM      1  C   UNL     1       2.027   4.697  20.904  0.00  0.00    +0.000 C 
ATOM      2  C   UNL     1       2.674   5.262  19.666  0.00  0.00    +0.000 A 
ATOM      3  C   UNL     1       3.466   4.386  18.889  0.00  0.00    +0.000 A 
ATOM      4  C   UNL     1       4.084   4.796  17.697  0.00  0.00    +0.000 A 
ATOM      5  C   UNL     1       3.852   6.104  17.271  0.00  0.00    +0.000 A 
ATOM      6  C   UNL     1       3.115   6.994  18.052  0.00  0.00    +0.000 A 
ATOM      7  C   UNL     1       2.529   6.604  19.261  0.00  0.00    +0.000 A 
ENDROOT
BRANCH   7   8
ATOM      8  N   UNL     1       1.828   7.530  20.084  0.00  0.00    +0.000 N 
ATOM      9  C   UNL     1       1.248   8.721  19.679  0.00  0.00    +0.000 C 
ATOM     10  O   UNL     1       1.165   9.089  18.508  0.00  0.00    +0.000 OA
ATOM     11  H   UNL     1       1.750   7.285  21.063  0.00  0.00    +0.000 HD
BRANCH   9  12
ATOM     12  C   UNL     1       0.608   9.609  20.713  0.00  0.00    +0.000 A 
ATOM     13  C   UNL     1      -0.022   8.926  21.774  0.00  0.00    +0.000 A 
ATOM     14  C   UNL     1      -0.623   9.604  22.836  0.00  0.00    +0.000 A 
ATOM     15  C   UNL     1      -0.606  10.991  22.858  0.00  0.00    +0.000 A 
ATOM     16  C   UNL     1      -0.014  11.691  21.804  0.00  0.00    +0.000 A 
ATOM     17  C   UNL     1       0.586  11.011  20.728  0.00  0.00    +0.000 A 
ATOM     18 CL   UNL     1       1.220  12.012  19.470  0.00  0.00    +0.000 Cl
ENDBRANCH   9  12
ENDBRANCH   7   8
BRANCH   4  19
ATOM     19  C   UNL     1       4.897   3.802  16.891  0.00  0.00    +0.000 C 
BRANCH  19  20
ATOM     20  S   UNL     1       6.211   4.559  15.866  0.00  0.00    +0.000 S 
BRANCH  20  21
ATOM     21  C   UNL     1       7.079   5.594  17.035  0.00  0.00    +0.000 A 
ATOM     22  C   UNL     1       7.225   6.953  16.725  0.00  0.00    +0.000 A 
ATOM     23  C   UNL     1       7.822   7.833  17.632  0.00  0.00    +0.000 A 
ATOM     24  C   UNL     1       8.277   7.362  18.861  0.00  0.00    +0.000 A 
ATOM     25  C   UNL     1       8.137   6.013  19.180  0.00  0.00    +0.000 A 
ATOM     26  C   UNL     1       7.537   5.135  18.273  0.00  0.00    +0.000 A 
ENDBRANCH  20  21
ENDBRANCH  19  20
ENDBRANCH   4  19
TORSDOF 5
ENDMDL
MODEL 5
REMARK VINA RESULT:      -7.6      1.041      1.217
REMARK  Name = 
REMARK  6 active torsions:
REMARK  status: ('A' for Active; 'I' for Inactive)
REMARK    1  A    between atoms: C_1  and  C_2
REMARK    2  A    between atoms: C_4  and  C_5
REMARK    3  A    between atoms: C_5  and  S_6
REMARK    4  A    between atoms: S_6  and  C_7
REMARK    5  A    between atoms: C_15  and  N_16
REMARK    6  A    between atoms: C_17  and  C_19
REMARK                            x       y       z     vdW  Elec       q    Type
REMARK                         _______ _______ _______ _____ _____    ______ ____
ROOT
ATOM      1  C   UNL     1       2.390   8.779  17.786  0.00  0.00    +0.000 C 
ATOM      2  C   UNL     1       2.232   7.606  18.718  0.00  0.00    +0.000 A 
ATOM      3  C   UNL     1       2.554   6.325  18.210  0.00  0.00    +0.000 A 
ATOM      4  C   UNL     1       2.480   5.168  19.001  0.00  0.00    +0.000 A 
ATOM      5  C   UNL     1       2.117   5.326  20.339  0.00  0.00    +0.000 A 
ATOM      6  C   UNL     1       1.749   6.575  20.840  0.00  0.00    +0.000 A 
ATOM      7  C   UNL     1       1.782   7.727  20.047  0.00  0.00    +0.000 A 
ENDROOT
BRANCH   7   8
ATOM      8  N   UNL     1       1.349   8.988  20.545  0.00  0.00    +0.000 N 
ATOM      9  C   UNL     1       0.160   9.251  21.208  0.00  0.00    +0.000 C 
ATOM     10  O   UNL     1      -0.644   8.389  21.558  0.00  0.00    +0.000 OA
ATOM     11  H   UNL     1       1.979   9.765  20.396  0.00  0.00    +0.000 HD
BRANCH   9  12
ATOM     12  C   UNL     1      -0.158  10.670  21.598  0.00  0.00    +0.000 A 
ATOM     13  C   UNL     1      -1.029  10.801  22.700  0.00  0.00    +0.000 A 
ATOM     14  C   UNL     1      -1.388  12.049  23.214  0.00  0.00    +0.000 A 
ATOM     15  C   UNL     1      -0.878  13.200  22.632  0.00  0.00    +0.000 A 
ATOM     16  C   UNL     1      -0.038  13.097  21.521  0.00  0.00    +0.000 A 
ATOM     17  C   UNL     1       0.319  11.842  20.995  0.00  0.00    +0.000 A 
ATOM     18 CL   UNL     1       1.314  11.877  19.582  0.00  0.00    +0.000 Cl
ENDBRANCH   9  12
ENDBRANCH   7   8
BRANCH   4  19
ATOM     19  C   UNL     1       2.866   3.826  18.409  0.00  0.00    +0.000 C 
BRANCH  19  20
ATOM     20  S   UNL     1       4.491   3.197  18.967  0.00  0.00    +0.000 S 
BRANCH  20  21
ATOM     21  C   UNL     1       5.634   4.391  18.289  0.00  0.00    +0.000 A 
ATOM     22  C   UNL     1       5.735   4.482  16.895  0.00  0.00    +0.000 A 
ATOM     23  C   UNL     1       6.550   5.450  16.300  0.00  0.00    +0.000 A 
ATOM     24  C   UNL     1       7.269   6.338  17.094  0.00  0.00    +0.000 A 
ATOM     25  C   UNL     1       7.176   6.256  18.482  0.00  0.00    +0.000 A 
ATOM     26  C   UNL     1       6.359   5.290  19.076  0.00  0.00    +0.000 A 
ENDBRANCH  20  21
ENDBRANCH  19  20
ENDBRANCH   4  19
TORSDOF 5
ENDMDL
MODEL 6
REMARK VINA RESULT:      -7.5      2.446      4.124
REMARK  Name = 
REMARK  6 active torsions:
REMARK  status: ('A' for Active; 'I' for Inactive)
REMARK    1  A    between atoms: C_1  and  C_2
REMARK    2  A    between atoms: C_4  and  C_5
REMARK    3  A    between atoms: C_5  and  S_6
REMARK    4  A    between atoms: S_6  and  C_7
REMARK    5  A    between atoms: C_15  and  N_16
REMARK    6  A    between atoms: C_17  and  C_19
REMARK                            x       y       z     vdW  Elec       q    Type
REMARK                         _______ _______ _______ _____ _____    ______ ____
ROOT
ATOM      1  C   UNL     1       0.814   8.467  21.727  0.00  0.00    +0.000 C 
ATOM      2  C   UNL     1       1.263   8.689  20.306  0.00  0.00    +0.000 A 
ATOM      3  C   UNL     1       2.111   7.713  19.733  0.00  0.00    +0.000 A 
ATOM      4  C   UNL     1       2.559   7.799  18.405  0.00  0.00    +0.000 A 
ATOM      5  C   UNL     1       2.098   8.871  17.640  0.00  0.00    +0.000 A 
ATOM      6  C   UNL     1       1.302   9.867  18.206  0.00  0.00    +0.000 A 
ATOM      7  C   UNL     1       0.884   9.809  19.539  0.00  0.00    +0.000 A 
ENDROOT
BRANCH   7   8
ATOM      8  N   UNL     1       0.122  10.857  20.129  0.00  0.00    +0.000 N 
ATOM      9  C   UNL     1       0.613  11.917  20.873  0.00  0.00    +0.000 C 
ATOM     10  O   UNL     1       1.808  12.159  21.032  0.00  0.00    +0.000 OA
ATOM     11  H   UNL     1      -0.879  10.815  19.985  0.00  0.00    +0.000 HD
BRANCH   9  12
ATOM     12  C   UNL     1      -0.359  12.893  21.481  0.00  0.00    +0.000 A 
ATOM     13  C   UNL     1      -0.278  14.207  20.971  0.00  0.00    +0.000 A 
ATOM     14  C   UNL     1      -1.140  15.219  21.397  0.00  0.00    +0.000 A 
ATOM     15  C   UNL     1      -2.108  14.936  22.350  0.00  0.00    +0.000 A 
ATOM     16  C   UNL     1      -2.189  13.652  22.891  0.00  0.00    +0.000 A 
ATOM     17  C   UNL     1      -1.317  12.630  22.470  0.00  0.00    +0.000 A 
ATOM     18 CL   UNL     1      -1.497  11.112  23.276  0.00  0.00    +0.000 Cl
ENDBRANCH   9  12
ENDBRANCH   7   8
BRANCH   4  19
ATOM     19  C   UNL     1       3.443   6.706  17.837  0.00  0.00    +0.000 C 
BRANCH  19  20
ATOM     20  S   UNL     1       4.124   5.560  19.091  0.00  0.00    +0.000 S 
BRANCH  20  21
ATOM     21  C   UNL     1       2.758   4.450  19.397  0.00  0.00    +0.000 A 
ATOM     22  C   UNL     1       2.178   3.806  18.297  0.00  0.00    +0.000 A 
ATOM     23  C   UNL     1       1.160   2.864  18.475  0.00  0.00    +0.000 A 
ATOM     24  C   UNL     1       0.715   2.555  19.757  0.00  0.00    +0.000 A 
ATOM     25  C   UNL     1       1.286   3.188  20.858  0.00  0.00    +0.000 A 
ATOM     26  C   UNL     1       2.305   4.128  20.680  0.00  0.00    +0.000 A 
ENDBRANCH  20  21
ENDBRANCH  19  20
ENDBRANCH   4  19
TORSDOF 5
ENDMDL
MODEL 7
REMARK VINA RESULT:      -7.5      1.188      1.724
REMARK  Name = 
REMARK  6 active torsions:
REMARK  status: ('A' for Active; 'I' for Inactive)
REMARK    1  A    between atoms: C_1  and  C_2
REMARK    2  A    between atoms: C_4  and  C_5
REMARK    3  A    between atoms: C_5  and  S_6
REMARK    4  A    between atoms: S_6  and  C_7
REMARK    5  A    between atoms: C_15  and  N_16
REMARK    6  A    between atoms: C_17  and  C_19
REMARK                            x       y       z     vdW  Elec       q    Type
REMARK                         _______ _______ _______ _____ _____    ______ ____
ROOT
ATOM      1  C   UNL     1       2.514   8.748  18.033  0.00  0.00    +0.000 C 
ATOM      2  C   UNL     1       2.300   7.595  18.979  0.00  0.00    +0.000 A 
ATOM      3  C   UNL     1       2.874   6.351  18.627  0.00  0.00    +0.000 A 
ATOM      4  C   UNL     1       2.770   5.220  19.453  0.00  0.00    +0.000 A 
ATOM      5  C   UNL     1       2.111   5.374  20.673  0.00  0.00    +0.000 A 
ATOM      6  C   UNL     1       1.498   6.580  21.011  0.00  0.00    +0.000 A 
ATOM      7  C   UNL     1       1.563   7.701  20.175  0.00  0.00    +0.000 A 
ENDROOT
BRANCH   7   8
ATOM      8  N   UNL     1       0.885   8.911  20.496  0.00  0.00    +0.000 N 
ATOM      9  C   UNL     1       0.962   9.609  21.690  0.00  0.00    +0.000 C 
ATOM     10  O   UNL     1       1.728   9.328  22.610  0.00  0.00    +0.000 OA
ATOM     11  H   UNL     1       0.291   9.293  19.771  0.00  0.00    +0.000 HD
BRANCH   9  12
ATOM     12  C   UNL     1       0.112  10.839  21.871  0.00  0.00    +0.000 A 
ATOM     13  C   UNL     1      -0.938  10.702  22.804  0.00  0.00    +0.000 A 
ATOM     14  C   UNL     1      -1.788  11.763  23.120  0.00  0.00    +0.000 A 
ATOM     15  C   UNL     1      -1.606  12.992  22.502  0.00  0.00    +0.000 A 
ATOM     16  C   UNL     1      -0.594  13.143  21.553  0.00  0.00    +0.000 A 
ATOM     17  C   UNL     1       0.261  12.074  21.226  0.00  0.00    +0.000 A 
ATOM     18 CL   UNL     1       1.424  12.396  19.988  0.00  0.00    +0.000 Cl
ENDBRANCH   9  12
ENDBRANCH   7   8
BRANCH   4  19
ATOM     19  C   UNL     1       3.432   3.921  19.036  0.00  0.00    +0.000 C 
BRANCH  19  20
ATOM     20  S   UNL     1       3.270   3.530  17.255  0.00  0.00    +0.000 S 
BRANCH  20  21
ATOM     21  C   UNL     1       4.813   4.120  16.577  0.00  0.00    +0.000 A 
ATOM     22  C   UNL     1       5.874   4.348  17.463  0.00  0.00    +0.000 A 
ATOM     23  C   UNL     1       7.132   4.732  16.989  0.00  0.00    +0.000 A 
ATOM     24  C   UNL     1       7.342   4.888  15.622  0.00  0.00    +0.000 A 
ATOM     25  C   UNL     1       6.294   4.663  14.731  0.00  0.00    +0.000 A 
ATOM     26  C   UNL     1       5.038   4.277  15.206  0.00  0.00    +0.000 A 
ENDBRANCH  20  21
ENDBRANCH  19  20
ENDBRANCH   4  19
TORSDOF 5
ENDMDL
MODEL 8
REMARK VINA RESULT:      -7.5      2.650      3.583
REMARK  Name = 
REMARK  6 active torsions:
REMARK  status: ('A' for Active; 'I' for Inactive)
REMARK    1  A    between atoms: C_1  and  C_2
REMARK    2  A    between atoms: C_4  and  C_5
REMARK    3  A    between atoms: C_5  and  S_6
REMARK    4  A    between atoms: S_6  and  C_7
REMARK    5  A    between atoms: C_15  and  N_16
REMARK    6  A    between atoms: C_17  and  C_19
REMARK                            x       y       z     vdW  Elec       q    Type
REMARK                         _______ _______ _______ _____ _____    ______ ____
ROOT
ATOM      1  C   UNL     1       1.325   4.849  19.981  0.00  0.00    +0.000 C 
ATOM      2  C   UNL     1       2.378   5.522  19.139  0.00  0.00    +0.000 A 
ATOM      3  C   UNL     1       3.204   4.692  18.346  0.00  0.00    +0.000 A 
ATOM      4  C   UNL     1       4.191   5.215  17.496  0.00  0.00    +0.000 A 
ATOM      5  C   UNL     1       4.305   6.603  17.421  0.00  0.00    +0.000 A 
ATOM      6  C   UNL     1       3.532   7.432  18.234  0.00  0.00    +0.000 A 
ATOM      7  C   UNL     1       2.574   6.917  19.114  0.00  0.00    +0.000 A 
ENDROOT
BRANCH   7   8
ATOM      8  N   UNL     1       1.829   7.762  19.985  0.00  0.00    +0.000 N 
ATOM      9  C   UNL     1       1.140   8.911  19.631  0.00  0.00    +0.000 C 
ATOM     10  O   UNL     1       0.986   9.300  18.475  0.00  0.00    +0.000 OA
ATOM     11  H   UNL     1       1.806   7.487  20.958  0.00  0.00    +0.000 HD
BRANCH   9  12
ATOM     12  C   UNL     1       0.467   9.718  20.710  0.00  0.00    +0.000 A 
ATOM     13  C   UNL     1      -0.015   8.965  21.801  0.00  0.00    +0.000 A 
ATOM     14  C   UNL     1      -0.623   9.568  22.903  0.00  0.00    +0.000 A 
ATOM     15  C   UNL     1      -0.764  10.947  22.937  0.00  0.00    +0.000 A 
ATOM     16  C   UNL     1      -0.322  11.712  21.855  0.00  0.00    +0.000 A 
ATOM     17  C   UNL     1       0.285  11.108  20.739  0.00  0.00    +0.000 A 
ATOM     18 CL   UNL     1       0.722  12.177  19.453  0.00  0.00    +0.000 Cl
ENDBRANCH   9  12
ENDBRANCH   7   8
BRANCH   4  19
ATOM     19  C   UNL     1       5.026   4.276  16.646  0.00  0.00    +0.000 C 
BRANCH  19  20
ATOM     20  S   UNL     1       6.713   4.886  16.285  0.00  0.00    +0.000 S 
BRANCH  20  21
ATOM     21  C   UNL     1       6.872   4.598  14.529  0.00  0.00    +0.000 A 
ATOM     22  C   UNL     1       6.022   3.653  13.941  0.00  0.00    +0.000 A 
ATOM     23  C   UNL     1       6.038   3.439  12.559  0.00  0.00    +0.000 A 
ATOM     24  C   UNL     1       6.904   4.171  11.752  0.00  0.00    +0.000 A 
ATOM     25  C   UNL     1       7.754   5.114  12.326  0.00  0.00    +0.000 A 
ATOM     26  C   UNL     1       7.735   5.329  13.707  0.00  0.00    +0.000 A 
ENDBRANCH  20  21
ENDBRANCH  19  20
ENDBRANCH   4  19
TORSDOF 5
ENDMDL
MODEL 9
REMARK VINA RESULT:      -7.5      2.820      3.768
REMARK  Name = 
REMARK  6 active torsions:
REMARK  status: ('A' for Active; 'I' for Inactive)
REMARK    1  A    between atoms: C_1  and  C_2
REMARK    2  A    between atoms: C_4  and  C_5
REMARK    3  A    between atoms: C_5  and  S_6
REMARK    4  A    between atoms: S_6  and  C_7
REMARK    5  A    between atoms: C_15  and  N_16
REMARK    6  A    between atoms: C_17  and  C_19
REMARK                            x       y       z     vdW  Elec       q    Type
REMARK                         _______ _______ _______ _____ _____    ______ ____
ROOT
ATOM      1  C   UNL     1       1.719   5.368  20.453  0.00  0.00    +0.000 C 
ATOM      2  C   UNL     1       2.527   5.934  19.314  0.00  0.00    +0.000 A 
ATOM      3  C   UNL     1       3.300   5.028  18.552  0.00  0.00    +0.000 A 
ATOM      4  C   UNL     1       4.060   5.440  17.446  0.00  0.00    +0.000 A 
ATOM      5  C   UNL     1       3.992   6.786  17.086  0.00  0.00    +0.000 A 
ATOM      6  C   UNL     1       3.274   7.700  17.857  0.00  0.00    +0.000 A 
ATOM      7  C   UNL     1       2.547   7.304  18.984  0.00  0.00    +0.000 A 
ENDROOT
BRANCH   7   8
ATOM      8  N   UNL     1       1.865   8.248  19.803  0.00  0.00    +0.000 N 
ATOM      9  C   UNL     1       1.133   9.342  19.368  0.00  0.00    +0.000 C 
ATOM     10  O   UNL     1       0.880   9.583  18.189  0.00  0.00    +0.000 OA
ATOM     11  H   UNL     1       1.925   8.097  20.801  0.00  0.00    +0.000 HD
BRANCH   9  12
ATOM     12  C   UNL     1       0.540  10.275  20.390  0.00  0.00    +0.000 A 
ATOM     13  C   UNL     1       0.818  11.642  20.178  0.00  0.00    +0.000 A 
ATOM     14  C   UNL     1       0.304  12.638  21.011  0.00  0.00    +0.000 A 
ATOM     15  C   UNL     1      -0.505  12.284  22.081  0.00  0.00    +0.000 A 
ATOM     16  C   UNL     1      -0.770  10.936  22.329  0.00  0.00    +0.000 A 
ATOM     17  C   UNL     1      -0.247   9.928  21.497  0.00  0.00    +0.000 A 
ATOM     18 CL   UNL     1      -0.611   8.305  21.967  0.00  0.00    +0.000 Cl
ENDBRANCH   9  12
ENDBRANCH   7   8
BRANCH   4  19
ATOM     19  C   UNL     1       4.845   4.417  16.649  0.00  0.00    +0.000 C 
BRANCH  19  20
ATOM     20  S   UNL     1       6.598   4.863  16.370  0.00  0.00    +0.000 S 
BRANCH  20  21
ATOM     21  C   UNL     1       6.805   4.587  14.617  0.00  0.00    +0.000 A 
ATOM     22  C   UNL     1       5.952   3.666  13.994  0.00  0.00    +0.000 A 
ATOM     23  C   UNL     1       6.006   3.464  12.612  0.00  0.00    +0.000 A 
ATOM     24  C   UNL     1       6.913   4.183  11.839  0.00  0.00    +0.000 A 
ATOM     25  C   UNL     1       7.765   5.102  12.448  0.00  0.00    +0.000 A 
ATOM     26  C   UNL     1       7.708   5.306  13.829  0.00  0.00    +0.000 A 
ENDBRANCH  20  21
ENDBRANCH  19  20
ENDBRANCH   4  19
TORSDOF 5
ENDMDL
