MODEL 1
REMARK VINA RESULT:      -8.2      0.000      0.000
REMARK  Name = 
REMARK  15 active torsions:
REMARK  status: ('A' for Active; 'I' for Inactive)
REMARK    1  A    between atoms: C_1  and  N_2
REMARK    2  A    between atoms: C_3  and  C_5
REMARK    3  A    between atoms: C_5  and  C_6
REMARK    4  A    between atoms: C_5  and  N_13
REMARK    5  A    between atoms: C_6  and  C_7
REMARK    6  A    between atoms: C_14  and  C_16
REMARK    7  A    between atoms: C_16  and  C_17
REMARK    8  A    between atoms: C_16  and  C_21
REMARK    9  A    between atoms: C_17  and  C_18
REMARK   10  A    between atoms: C_18  and  C_19
REMARK   11  A    between atoms: C_18  and  C_20
REMARK   12  A    between atoms: C_21  and  C_22
REMARK   13  A    between atoms: C_21  and  C_23
REMARK   14  A    between atoms: C_21  and  C_24
REMARK   15  A    between atoms: N_26  and  O_27
REMARK                            x       y       z     vdW  Elec       q    Type
REMARK                         _______ _______ _______ _____ _____    ______ ____
ROOT
ATOM      1  N   UNL     1       4.532   4.917  17.799  0.00  0.00    +0.000 N 
ATOM      2  C   UNL     1       3.256   4.414  17.662  0.00  0.00    +0.000 C 
ATOM      3  O   UNL     1       2.949   3.728  16.673  0.00  0.00    +0.000 OA
ATOM      4  H   UNL     1       4.871   5.030  18.740  0.00  0.00    +0.000 HD
ENDROOT
BRANCH   1   5
ATOM      5  C   UNL     1       5.609   4.650  16.833  0.00  0.00    +0.000 C 
BRANCH   5   8
ATOM      6  C   UNL     1       8.213   6.521  18.988  0.00  0.00    +0.000 C 
ATOM      7  N   UNL     1       6.988   6.014  18.409  0.00  0.00    +0.000 N 
ATOM      8  C   UNL     1       6.985   4.994  17.482  0.00  0.00    +0.000 C 
ATOM      9  O   UNL     1       8.023   4.386  17.232  0.00  0.00    +0.000 OA
ATOM     10  H   UNL     1       6.094   6.363  18.751  0.00  0.00    +0.000 HD
ENDBRANCH   5   8
BRANCH   5  11
ATOM     11  C   UNL     1       5.333   5.289  15.421  0.00  0.00    +0.000 C 
BRANCH  11  12
ATOM     12  C   UNL     1       5.940   4.752  14.123  0.00  0.00    +0.000 A 
ATOM     13  C   UNL     1       7.236   5.095  13.727  0.00  0.00    +0.000 A 
ATOM     14  C   UNL     1       7.767   4.706  12.494  0.00  0.00    +0.000 A 
ATOM     15  C   UNL     1       7.088   3.786  11.710  0.00  0.00    +0.000 A 
ATOM     16  C   UNL     1       5.888   3.260  12.177  0.00  0.00    +0.000 A 
ATOM     17  C   UNL     1       5.298   3.766  13.354  0.00  0.00    +0.000 A 
ENDBRANCH  11  12
ENDBRANCH   5  11
ENDBRANCH   1   5
BRANCH   2  18
ATOM     18  C   UNL     1       2.273   4.697  18.829  0.00  0.00    +0.000 C 
BRANCH  18  19
ATOM     19  C   UNL     1       1.837   3.344  19.577  0.00  0.00    +0.000 C 
ATOM     20  C   UNL     1       1.506   3.649  21.064  0.00  0.00    +0.000 C 
ATOM     21  C   UNL     1       0.686   2.613  18.845  0.00  0.00    +0.000 C 
BRANCH  19  22
ATOM     22  C   UNL     1       2.981   2.296  19.646  0.00  0.00    +0.000 C 
ATOM     23  O   UNL     1       3.847   2.278  20.521  0.00  0.00    +0.000 OA
ATOM     24  N   UNL     1       2.972   1.356  18.630  0.00  0.00    +0.000 N 
ATOM     25  H   UNL     1       2.458   1.463  17.758  0.00  0.00    +0.000 HD
BRANCH  24  26
ATOM     26  O   UNL     1       4.077   0.478  18.574  0.00  0.00    +0.000 OA
ATOM     27  H   UNL     1       4.229   0.393  17.604  0.00  0.00    +0.000 HD
ENDBRANCH  24  26
ENDBRANCH  19  22
ENDBRANCH  18  19
BRANCH  18  28
ATOM     28  C   UNL     1       2.880   5.755  19.799  0.00  0.00    +0.000 C 
BRANCH  28  29
ATOM     29  C   UNL     1       2.550   7.258  19.600  0.00  0.00    +0.000 C 
ATOM     30  C   UNL     1       2.088   7.665  18.197  0.00  0.00    +0.000 C 
ATOM     31  C   UNL     1       1.444   7.674  20.581  0.00  0.00    +0.000 C 
ENDBRANCH  28  29
ENDBRANCH  18  28
ENDBRANCH   2  18
TORSDOF 10
ENDMDL
MODEL 2
REMARK VINA RESULT:      -8.1      0.776      1.449
REMARK  Name = 
REMARK  15 active torsions:
REMARK  status: ('A' for Active; 'I' for Inactive)
REMARK    1  A    between atoms: C_1  and  N_2
REMARK    2  A    between atoms: C_3  and  C_5
REMARK    3  A    between atoms: C_5  and  C_6
REMARK    4  A    between atoms: C_5  and  N_13
REMARK    5  A    between atoms: C_6  and  C_7
REMARK    6  A    between atoms: C_14  and  C_16
REMARK    7  A    between atoms: C_16  and  C_17
REMARK    8  A    between atoms: C_16  and  C_21
REMARK    9  A    between atoms: C_17  and  C_18
REMARK   10  A    between atoms: C_18  and  C_19
REMARK   11  A    between atoms: C_18  and  C_20
REMARK   12  A    between atoms: C_21  and  C_22
REMARK   13  A    between atoms: C_21  and  C_23
REMARK   14  A    between atoms: C_21  and  C_24
REMARK   15  A    between atoms: N_26  and  O_27
REMARK                            x       y       z     vdW  Elec       q    Type
REMARK                         _______ _______ _______ _____ _____    ______ ____
ROOT
ATOM      1  N   UNL     1       4.696   4.871  17.802  0.00  0.00    +0.000 N 
ATOM      2  C   UNL     1       3.439   4.360  17.560  0.00  0.00    +0.000 C 
ATOM      3  O   UNL     1       3.228   3.643  16.568  0.00  0.00    +0.000 OA
ATOM      4  H   UNL     1       4.945   5.015  18.766  0.00  0.00    +0.000 HD
ENDROOT
BRANCH   1   5
ATOM      5  C   UNL     1       5.861   4.579  16.951  0.00  0.00    +0.000 C 
BRANCH   5   8
ATOM      6  C   UNL     1       8.197   5.555  19.868  0.00  0.00    +0.000 C 
ATOM      7  N   UNL     1       7.046   5.282  19.035  0.00  0.00    +0.000 N 
ATOM      8  C   UNL     1       7.163   4.677  17.803  0.00  0.00    +0.000 C 
ATOM      9  O   UNL     1       8.245   4.219  17.441  0.00  0.00    +0.000 OA
ATOM     10  H   UNL     1       6.112   5.467  19.399  0.00  0.00    +0.000 HD
ENDBRANCH   5   8
BRANCH   5  11
ATOM     11  C   UNL     1       5.852   5.395  15.605  0.00  0.00    +0.000 C 
BRANCH  11  12
ATOM     12  C   UNL     1       6.226   4.789  14.251  0.00  0.00    +0.000 A 
ATOM     13  C   UNL     1       5.371   3.903  13.588  0.00  0.00    +0.000 A 
ATOM     14  C   UNL     1       5.741   3.254  12.407  0.00  0.00    +0.000 A 
ATOM     15  C   UNL     1       6.899   3.632  11.745  0.00  0.00    +0.000 A 
ATOM     16  C   UNL     1       7.667   4.665  12.271  0.00  0.00    +0.000 A 
ATOM     17  C   UNL     1       7.357   5.213  13.532  0.00  0.00    +0.000 A 
ENDBRANCH  11  12
ENDBRANCH   5  11
ENDBRANCH   1   5
BRANCH   2  18
ATOM     18  C   UNL     1       2.350   4.675  18.619  0.00  0.00    +0.000 C 
BRANCH  18  19
ATOM     19  C   UNL     1       2.065   3.411  19.568  0.00  0.00    +0.000 C 
ATOM     20  C   UNL     1       2.077   3.858  21.056  0.00  0.00    +0.000 C 
ATOM     21  C   UNL     1       0.766   2.665  19.178  0.00  0.00    +0.000 C 
BRANCH  19  22
ATOM     22  C   UNL     1       3.175   2.329  19.484  0.00  0.00    +0.000 C 
ATOM     23  O   UNL     1       3.112   1.330  18.767  0.00  0.00    +0.000 OA
ATOM     24  N   UNL     1       4.274   2.558  20.294  0.00  0.00    +0.000 N 
ATOM     25  H   UNL     1       4.279   3.205  21.079  0.00  0.00    +0.000 HD
BRANCH  24  26
ATOM     26  O   UNL     1       5.237   1.526  20.357  0.00  0.00    +0.000 OA
ATOM     27  H   UNL     1       5.204   1.154  19.445  0.00  0.00    +0.000 HD
ENDBRANCH  24  26
ENDBRANCH  19  22
ENDBRANCH  18  19
BRANCH  18  28
ATOM     28  C   UNL     1       2.732   5.958  19.418  0.00  0.00    +0.000 C 
BRANCH  28  29
ATOM     29  C   UNL     1       1.884   7.246  19.253  0.00  0.00    +0.000 C 
ATOM     30  C   UNL     1       1.663   8.073  20.524  0.00  0.00    +0.000 C 
ATOM     31  C   UNL     1       2.548   8.168  18.221  0.00  0.00    +0.000 C 
ENDBRANCH  28  29
ENDBRANCH  18  28
ENDBRANCH   2  18
TORSDOF 10
ENDMDL
MODEL 3
REMARK VINA RESULT:      -8.0      2.211      7.167
REMARK  Name = 
REMARK  15 active torsions:
REMARK  status: ('A' for Active; 'I' for Inactive)
REMARK    1  A    between atoms: C_1  and  N_2
REMARK    2  A    between atoms: C_3  and  C_5
REMARK    3  A    between atoms: C_5  and  C_6
REMARK    4  A    between atoms: C_5  and  N_13
REMARK    5  A    between atoms: C_6  and  C_7
REMARK    6  A    between atoms: C_14  and  C_16
REMARK    7  A    between atoms: C_16  and  C_17
REMARK    8  A    between atoms: C_16  and  C_21
REMARK    9  A    between atoms: C_17  and  C_18
REMARK   10  A    between atoms: C_18  and  C_19
REMARK   11  A    between atoms: C_18  and  C_20
REMARK   12  A    between atoms: C_21  and  C_22
REMARK   13  A    between atoms: C_21  and  C_23
REMARK   14  A    between atoms: C_21  and  C_24
REMARK   15  A    between atoms: N_26  and  O_27
REMARK                            x       y       z     vdW  Elec       q    Type
REMARK                         _______ _______ _______ _____ _____    ______ ____
ROOT
ATOM      1  N   UNL     1       3.743   6.817  17.874  0.00  0.00    +0.000 N 
ATOM      2  C   UNL     1       4.105   5.636  17.264  0.00  0.00    +0.000 C 
ATOM      3  O   UNL     1       3.309   4.684  17.206  0.00  0.00    +0.000 OA
ATOM      4  H   UNL     1       4.163   7.657  17.511  0.00  0.00    +0.000 HD
ENDROOT
BRANCH   1   5
ATOM      5  C   UNL     1       2.408   7.050  18.449  0.00  0.00    +0.000 C 
BRANCH   5   8
ATOM      6  C   UNL     1       0.733  10.478  19.047  0.00  0.00    +0.000 C 
ATOM      7  N   UNL     1       1.298   9.157  19.206  0.00  0.00    +0.000 N 
ATOM      8  C   UNL     1       1.983   8.527  18.189  0.00  0.00    +0.000 C 
ATOM      9  O   UNL     1       2.257   9.140  17.160  0.00  0.00    +0.000 OA
ATOM     10  H   UNL     1       1.262   8.706  20.119  0.00  0.00    +0.000 HD
ENDBRANCH   5   8
BRANCH   5  11
ATOM     11  C   UNL     1       2.290   6.547  19.935  0.00  0.00    +0.000 C 
BRANCH  11  12
ATOM     12  C   UNL     1       1.955   5.102  20.310  0.00  0.00    +0.000 A 
ATOM     13  C   UNL     1       1.185   4.291  19.471  0.00  0.00    +0.000 A 
ATOM     14  C   UNL     1       0.777   3.008  19.845  0.00  0.00    +0.000 A 
ATOM     15  C   UNL     1       1.303   2.421  20.985  0.00  0.00    +0.000 A 
ATOM     16  C   UNL     1       2.241   3.125  21.733  0.00  0.00    +0.000 A 
ATOM     17  C   UNL     1       2.536   4.468  21.422  0.00  0.00    +0.000 A 
ENDBRANCH  11  12
ENDBRANCH   5  11
ENDBRANCH   1   5
BRANCH   2  18
ATOM     18  C   UNL     1       5.512   5.598  16.611  0.00  0.00    +0.000 C 
BRANCH  18  19
ATOM     19  C   UNL     1       6.676   5.543  17.716  0.00  0.00    +0.000 C 
ATOM     20  C   UNL     1       6.055   5.316  19.122  0.00  0.00    +0.000 C 
ATOM     21  C   UNL     1       7.768   4.502  17.369  0.00  0.00    +0.000 C 
BRANCH  19  22
ATOM     22  C   UNL     1       7.446   6.884  17.851  0.00  0.00    +0.000 C 
ATOM     23  O   UNL     1       7.428   7.778  17.004  0.00  0.00    +0.000 OA
ATOM     24  N   UNL     1       8.183   7.019  19.015  0.00  0.00    +0.000 N 
ATOM     25  H   UNL     1       8.444   6.241  19.618  0.00  0.00    +0.000 HD
BRANCH  24  26
ATOM     26  O   UNL     1       9.013   8.159  19.108  0.00  0.00    +0.000 OA
ATOM     27  H   UNL     1       9.837   7.786  19.498  0.00  0.00    +0.000 HD
ENDBRANCH  24  26
ENDBRANCH  19  22
ENDBRANCH  18  19
BRANCH  18  28
ATOM     28  C   UNL     1       5.597   4.429  15.584  0.00  0.00    +0.000 C 
BRANCH  28  29
ATOM     29  C   UNL     1       5.945   4.732  14.102  0.00  0.00    +0.000 C 
ATOM     30  C   UNL     1       7.416   5.042  13.807  0.00  0.00    +0.000 C 
ATOM     31  C   UNL     1       5.548   3.534  13.227  0.00  0.00    +0.000 C 
ENDBRANCH  28  29
ENDBRANCH  18  28
ENDBRANCH   2  18
TORSDOF 10
ENDMDL
MODEL 4
REMARK VINA RESULT:      -7.6      1.455      1.561
REMARK  Name = 
REMARK  15 active torsions:
REMARK  status: ('A' for Active; 'I' for Inactive)
REMARK    1  A    between atoms: C_1  and  N_2
REMARK    2  A    between atoms: C_3  and  C_5
REMARK    3  A    between atoms: C_5  and  C_6
REMARK    4  A    between atoms: C_5  and  N_13
REMARK    5  A    between atoms: C_6  and  C_7
REMARK    6  A    between atoms: C_14  and  C_16
REMARK    7  A    between atoms: C_16  and  C_17
REMARK    8  A    between atoms: C_16  and  C_21
REMARK    9  A    between atoms: C_17  and  C_18
REMARK   10  A    between atoms: C_18  and  C_19
REMARK   11  A    between atoms: C_18  and  C_20
REMARK   12  A    between atoms: C_21  and  C_22
REMARK   13  A    between atoms: C_21  and  C_23
REMARK   14  A    between atoms: C_21  and  C_24
REMARK   15  A    between atoms: N_26  and  O_27
REMARK                            x       y       z     vdW  Elec       q    Type
REMARK                         _______ _______ _______ _____ _____    ______ ____
ROOT
ATOM      1  N   UNL     1       5.000   4.954  17.313  0.00  0.00    +0.000 N 
ATOM      2  C   UNL     1       4.197   4.954  18.433  0.00  0.00    +0.000 C 
ATOM      3  O   UNL     1       4.664   5.250  19.546  0.00  0.00    +0.000 OA
ATOM      4  H   UNL     1       4.554   5.181  16.440  0.00  0.00    +0.000 HD
ENDROOT
BRANCH   1   5
ATOM      5  C   UNL     1       6.422   5.334  17.341  0.00  0.00    +0.000 C 
BRANCH   5   8
ATOM      6  C   UNL     1       7.877   8.888  17.751  0.00  0.00    +0.000 C 
ATOM      7  N   UNL     1       7.693   7.455  17.703  0.00  0.00    +0.000 N 
ATOM      8  C   UNL     1       6.547   6.881  17.196  0.00  0.00    +0.000 C 
ATOM      9  O   UNL     1       5.706   7.579  16.634  0.00  0.00    +0.000 OA
ATOM     10  H   UNL     1       8.462   6.844  17.975  0.00  0.00    +0.000 HD
ENDBRANCH   5   8
BRANCH   5  11
ATOM     11  C   UNL     1       7.302   4.474  16.361  0.00  0.00    +0.000 C 
BRANCH  11  12
ATOM     12  C   UNL     1       7.091   4.447  14.846  0.00  0.00    +0.000 A 
ATOM     13  C   UNL     1       7.951   5.127  13.977  0.00  0.00    +0.000 A 
ATOM     14  C   UNL     1       7.711   5.207  12.603  0.00  0.00    +0.000 A 
ATOM     15  C   UNL     1       6.716   4.431  12.029  0.00  0.00    +0.000 A 
ATOM     16  C   UNL     1       5.976   3.577  12.841  0.00  0.00    +0.000 A 
ATOM     17  C   UNL     1       6.135   3.612  14.242  0.00  0.00    +0.000 A 
ENDBRANCH  11  12
ENDBRANCH   5  11
ENDBRANCH   1   5
BRANCH   2  18
ATOM     18  C   UNL     1       2.695   4.637  18.206  0.00  0.00    +0.000 C 
BRANCH  18  19
ATOM     19  C   UNL     1       2.171   3.505  19.218  0.00  0.00    +0.000 C 
ATOM     20  C   UNL     1       1.951   4.121  20.627  0.00  0.00    +0.000 C 
ATOM     21  C   UNL     1       0.917   2.773  18.682  0.00  0.00    +0.000 C 
BRANCH  19  22
ATOM     22  C   UNL     1       3.210   2.375  19.452  0.00  0.00    +0.000 C 
ATOM     23  O   UNL     1       3.875   2.251  20.481  0.00  0.00    +0.000 OA
ATOM     24  N   UNL     1       3.354   1.488  18.398  0.00  0.00    +0.000 N 
ATOM     25  H   UNL     1       3.038   1.675  17.449  0.00  0.00    +0.000 HD
BRANCH  24  26
ATOM     26  O   UNL     1       4.391   0.536  18.512  0.00  0.00    +0.000 OA
ATOM     27  H   UNL     1       5.069   0.890  17.890  0.00  0.00    +0.000 HD
ENDBRANCH  24  26
ENDBRANCH  19  22
ENDBRANCH  18  19
BRANCH  18  28
ATOM     28  C   UNL     1       1.853   5.947  18.276  0.00  0.00    +0.000 C 
BRANCH  28  29
ATOM     29  C   UNL     1       2.534   7.277  18.692  0.00  0.00    +0.000 C 
ATOM     30  C   UNL     1       2.371   8.449  17.718  0.00  0.00    +0.000 C 
ATOM     31  C   UNL     1       1.981   7.734  20.049  0.00  0.00    +0.000 C 
ENDBRANCH  28  29
ENDBRANCH  18  28
ENDBRANCH   2  18
TORSDOF 10
ENDMDL
MODEL 5
REMARK VINA RESULT:      -7.6      1.437      1.576
REMARK  Name = 
REMARK  15 active torsions:
REMARK  status: ('A' for Active; 'I' for Inactive)
REMARK    1  A    between atoms: C_1  and  N_2
REMARK    2  A    between atoms: C_3  and  C_5
REMARK    3  A    between atoms: C_5  and  C_6
REMARK    4  A    between atoms: C_5  and  N_13
REMARK    5  A    between atoms: C_6  and  C_7
REMARK    6  A    between atoms: C_14  and  C_16
REMARK    7  A    between atoms: C_16  and  C_17
REMARK    8  A    between atoms: C_16  and  C_21
REMARK    9  A    between atoms: C_17  and  C_18
REMARK   10  A    between atoms: C_18  and  C_19
REMARK   11  A    between atoms: C_18  and  C_20
REMARK   12  A    between atoms: C_21  and  C_22
REMARK   13  A    between atoms: C_21  and  C_23
REMARK   14  A    between atoms: C_21  and  C_24
REMARK   15  A    between atoms: N_26  and  O_27
REMARK                            x       y       z     vdW  Elec       q    Type
REMARK                         _______ _______ _______ _____ _____    ______ ____
ROOT
ATOM      1  N   UNL     1       4.290   4.448  17.434  0.00  0.00    +0.000 N 
ATOM      2  C   UNL     1       3.998   4.852  18.719  0.00  0.00    +0.000 C 
ATOM      3  O   UNL     1       4.889   5.304  19.458  0.00  0.00    +0.000 OA
ATOM      4  H   UNL     1       3.555   4.547  16.754  0.00  0.00    +0.000 HD
ENDROOT
BRANCH   1   5
ATOM      5  C   UNL     1       5.633   4.558  16.842  0.00  0.00    +0.000 C 
BRANCH   5   8
ATOM      6  C   UNL     1       7.404   7.956  17.330  0.00  0.00    +0.000 C 
ATOM      7  N   UNL     1       7.055   6.552  17.337  0.00  0.00    +0.000 N 
ATOM      8  C   UNL     1       5.982   6.062  16.626  0.00  0.00    +0.000 C 
ATOM      9  O   UNL     1       5.376   6.793  15.844  0.00  0.00    +0.000 OA
ATOM     10  H   UNL     1       7.664   5.890  17.815  0.00  0.00    +0.000 HD
ENDBRANCH   5   8
BRANCH   5  11
ATOM     11  C   UNL     1       5.827   3.618  15.595  0.00  0.00    +0.000 C 
BRANCH  11  12
ATOM     12  C   UNL     1       6.436   4.090  14.273  0.00  0.00    +0.000 A 
ATOM     13  C   UNL     1       7.537   4.951  14.243  0.00  0.00    +0.000 A 
ATOM     14  C   UNL     1       8.037   5.480  13.050  0.00  0.00    +0.000 A 
ATOM     15  C   UNL     1       7.577   4.997  11.834  0.00  0.00    +0.000 A 
ATOM     16  C   UNL     1       6.627   3.981  11.830  0.00  0.00    +0.000 A 
ATOM     17  C   UNL     1       6.033   3.557  13.036  0.00  0.00    +0.000 A 
ENDBRANCH  11  12
ENDBRANCH   5  11
ENDBRANCH   1   5
BRANCH   2  18
ATOM     18  C   UNL     1       2.509   4.771  19.147  0.00  0.00    +0.000 C 
BRANCH  18  19
ATOM     19  C   UNL     1       2.124   3.303  19.674  0.00  0.00    +0.000 C 
ATOM     20  C   UNL     1       1.918   3.336  21.214  0.00  0.00    +0.000 C 
ATOM     21  C   UNL     1       0.910   2.707  18.920  0.00  0.00    +0.000 C 
BRANCH  19  22
ATOM     22  C   UNL     1       3.260   2.267  19.462  0.00  0.00    +0.000 C 
ATOM     23  O   UNL     1       3.296   1.463  18.530  0.00  0.00    +0.000 OA
ATOM     24  N   UNL     1       4.262   2.297  20.417  0.00  0.00    +0.000 N 
ATOM     25  H   UNL     1       4.169   2.742  21.327  0.00  0.00    +0.000 HD
BRANCH  24  26
ATOM     26  O   UNL     1       5.235   1.275  20.343  0.00  0.00    +0.000 OA
ATOM     27  H   UNL     1       5.160   0.850  21.228  0.00  0.00    +0.000 HD
ENDBRANCH  24  26
ENDBRANCH  19  22
ENDBRANCH  18  19
BRANCH  18  28
ATOM     28  C   UNL     1       2.186   5.889  20.183  0.00  0.00    +0.000 C 
BRANCH  28  29
ATOM     29  C   UNL     1       2.338   7.379  19.777  0.00  0.00    +0.000 C 
ATOM     30  C   UNL     1       2.075   7.704  18.302  0.00  0.00    +0.000 C 
ATOM     31  C   UNL     1       1.376   8.238  20.610  0.00  0.00    +0.000 C 
ENDBRANCH  28  29
ENDBRANCH  18  28
ENDBRANCH   2  18
TORSDOF 10
ENDMDL
MODEL 6
REMARK VINA RESULT:      -7.5      1.539      1.810
REMARK  Name = 
REMARK  15 active torsions:
REMARK  status: ('A' for Active; 'I' for Inactive)
REMARK    1  A    between atoms: C_1  and  N_2
REMARK    2  A    between atoms: C_3  and  C_5
REMARK    3  A    between atoms: C_5  and  C_6
REMARK    4  A    between atoms: C_5  and  N_13
REMARK    5  A    between atoms: C_6  and  C_7
REMARK    6  A    between atoms: C_14  and  C_16
REMARK    7  A    between atoms: C_16  and  C_17
REMARK    8  A    between atoms: C_16  and  C_21
REMARK    9  A    between atoms: C_17  and  C_18
REMARK   10  A    between atoms: C_18  and  C_19
REMARK   11  A    between atoms: C_18  and  C_20
REMARK   12  A    between atoms: C_21  and  C_22
REMARK   13  A    between atoms: C_21  and  C_23
REMARK   14  A    between atoms: C_21  and  C_24
REMARK   15  A    between atoms: N_26  and  O_27
REMARK                            x       y       z     vdW  Elec       q    Type
REMARK                         _______ _______ _______ _____ _____    ______ ____
ROOT
ATOM      1  N   UNL     1       4.586   4.658  17.574  0.00  0.00    +0.000 N 
ATOM      2  C   UNL     1       4.116   4.876  18.851  0.00  0.00    +0.000 C 
ATOM      3  O   UNL     1       4.895   5.191  19.767  0.00  0.00    +0.000 OA
ATOM      4  H   UNL     1       3.957   4.876  16.820  0.00  0.00    +0.000 HD
ENDROOT
BRANCH   1   5
ATOM      5  C   UNL     1       6.001   4.818  17.199  0.00  0.00    +0.000 C 
BRANCH   5   8
ATOM      6  C   UNL     1       7.654   8.303  17.412  0.00  0.00    +0.000 C 
ATOM      7  N   UNL     1       7.360   6.891  17.519  0.00  0.00    +0.000 N 
ATOM      8  C   UNL     1       6.284   6.317  16.876  0.00  0.00    +0.000 C 
ATOM      9  O   UNL     1       5.627   6.973  16.071  0.00  0.00    +0.000 OA
ATOM     10  H   UNL     1       8.008   6.283  18.018  0.00  0.00    +0.000 HD
ENDBRANCH   5   8
BRANCH   5  11
ATOM     11  C   UNL     1       6.465   3.778  16.113  0.00  0.00    +0.000 C 
BRANCH  11  12
ATOM     12  C   UNL     1       6.747   4.152  14.657  0.00  0.00    +0.000 A 
ATOM     13  C   UNL     1       5.917   3.719  13.618  0.00  0.00    +0.000 A 
ATOM     14  C   UNL     1       6.219   3.957  12.275  0.00  0.00    +0.000 A 
ATOM     15  C   UNL     1       7.255   4.817  11.941  0.00  0.00    +0.000 A 
ATOM     16  C   UNL     1       7.970   5.435  12.961  0.00  0.00    +0.000 A 
ATOM     17  C   UNL     1       7.746   5.078  14.306  0.00  0.00    +0.000 A 
ENDBRANCH  11  12
ENDBRANCH   5  11
ENDBRANCH   1   5
BRANCH   2  18
ATOM     18  C   UNL     1       2.581   4.773  19.048  0.00  0.00    +0.000 C 
BRANCH  18  19
ATOM     19  C   UNL     1       2.139   3.291  19.482  0.00  0.00    +0.000 C 
ATOM     20  C   UNL     1       0.898   3.365  20.415  0.00  0.00    +0.000 C 
ATOM     21  C   UNL     1       1.916   2.363  18.263  0.00  0.00    +0.000 C 
BRANCH  19  22
ATOM     22  C   UNL     1       3.214   2.563  20.332  0.00  0.00    +0.000 C 
ATOM     23  O   UNL     1       3.201   2.510  21.563  0.00  0.00    +0.000 OA
ATOM     24  N   UNL     1       4.226   1.962  19.602  0.00  0.00    +0.000 N 
ATOM     25  H   UNL     1       4.434   2.180  18.631  0.00  0.00    +0.000 HD
BRANCH  24  26
ATOM     26  O   UNL     1       5.300   1.418  20.342  0.00  0.00    +0.000 OA
ATOM     27  H   UNL     1       5.947   2.160  20.348  0.00  0.00    +0.000 HD
ENDBRANCH  24  26
ENDBRANCH  19  22
ENDBRANCH  18  19
BRANCH  18  28
ATOM     28  C   UNL     1       2.092   5.866  20.046  0.00  0.00    +0.000 C 
BRANCH  28  29
ATOM     29  C   UNL     1       2.340   7.364  19.725  0.00  0.00    +0.000 C 
ATOM     30  C   UNL     1       2.082   7.793  18.277  0.00  0.00    +0.000 C 
ATOM     31  C   UNL     1       1.449   8.234  20.623  0.00  0.00    +0.000 C 
ENDBRANCH  28  29
ENDBRANCH  18  28
ENDBRANCH   2  18
TORSDOF 10
ENDMDL
MODEL 7
REMARK VINA RESULT:      -7.5      1.748      2.317
REMARK  Name = 
REMARK  15 active torsions:
REMARK  status: ('A' for Active; 'I' for Inactive)
REMARK    1  A    between atoms: C_1  and  N_2
REMARK    2  A    between atoms: C_3  and  C_5
REMARK    3  A    between atoms: C_5  and  C_6
REMARK    4  A    between atoms: C_5  and  N_13
REMARK    5  A    between atoms: C_6  and  C_7
REMARK    6  A    between atoms: C_14  and  C_16
REMARK    7  A    between atoms: C_16  and  C_17
REMARK    8  A    between atoms: C_16  and  C_21
REMARK    9  A    between atoms: C_17  and  C_18
REMARK   10  A    between atoms: C_18  and  C_19
REMARK   11  A    between atoms: C_18  and  C_20
REMARK   12  A    between atoms: C_21  and  C_22
REMARK   13  A    between atoms: C_21  and  C_23
REMARK   14  A    between atoms: C_21  and  C_24
REMARK   15  A    between atoms: N_26  and  O_27
REMARK                            x       y       z     vdW  Elec       q    Type
REMARK                         _______ _______ _______ _____ _____    ______ ____
ROOT
ATOM      1  N   UNL     1       5.034   5.076  17.650  0.00  0.00    +0.000 N 
ATOM      2  C   UNL     1       4.415   4.850  18.860  0.00  0.00    +0.000 C 
ATOM      3  O   UNL     1       5.071   4.845  19.915  0.00  0.00    +0.000 OA
ATOM      4  H   UNL     1       4.482   5.530  16.941  0.00  0.00    +0.000 HD
ENDROOT
BRANCH   1   5
ATOM      5  C   UNL     1       6.472   5.363  17.522  0.00  0.00    +0.000 C 
BRANCH   5   8
ATOM      6  C   UNL     1       7.974   8.916  17.724  0.00  0.00    +0.000 C 
ATOM      7  N   UNL     1       7.749   7.490  17.819  0.00  0.00    +0.000 N 
ATOM      8  C   UNL     1       6.673   6.878  17.215  0.00  0.00    +0.000 C 
ATOM      9  O   UNL     1       5.951   7.515  16.451  0.00  0.00    +0.000 OA
ATOM     10  H   UNL     1       8.446   6.905  18.278  0.00  0.00    +0.000 HD
ENDBRANCH   5   8
BRANCH   5  11
ATOM     11  C   UNL     1       7.210   4.359  16.562  0.00  0.00    +0.000 C 
BRANCH  11  12
ATOM     12  C   UNL     1       7.026   4.359  15.043  0.00  0.00    +0.000 A 
ATOM     13  C   UNL     1       5.948   3.705  14.439  0.00  0.00    +0.000 A 
ATOM     14  C   UNL     1       5.823   3.600  13.051  0.00  0.00    +0.000 A 
ATOM     15  C   UNL     1       6.665   4.327  12.225  0.00  0.00    +0.000 A 
ATOM     16  C   UNL     1       7.619   5.159  12.801  0.00  0.00    +0.000 A 
ATOM     17  C   UNL     1       7.825   5.147  14.196  0.00  0.00    +0.000 A 
ENDBRANCH  11  12
ENDBRANCH   5  11
ENDBRANCH   1   5
BRANCH   2  18
ATOM     18  C   UNL     1       2.874   4.676  18.826  0.00  0.00    +0.000 C 
BRANCH  18  19
ATOM     19  C   UNL     1       2.444   3.155  19.114  0.00  0.00    +0.000 C 
ATOM     20  C   UNL     1       1.015   2.900  18.560  0.00  0.00    +0.000 C 
ATOM     21  C   UNL     1       3.483   2.140  18.580  0.00  0.00    +0.000 C 
BRANCH  19  22
ATOM     22  C   UNL     1       2.330   2.835  20.629  0.00  0.00    +0.000 C 
ATOM     23  O   UNL     1       3.293   2.594  21.357  0.00  0.00    +0.000 OA
ATOM     24  N   UNL     1       1.039   2.831  21.128  0.00  0.00    +0.000 N 
ATOM     25  H   UNL     1       0.204   2.767  20.549  0.00  0.00    +0.000 HD
BRANCH  24  26
ATOM     26  O   UNL     1       0.881   2.400  22.464  0.00  0.00    +0.000 OA
ATOM     27  H   UNL     1       0.007   1.947  22.436  0.00  0.00    +0.000 HD
ENDBRANCH  24  26
ENDBRANCH  19  22
ENDBRANCH  18  19
BRANCH  18  28
ATOM     28  C   UNL     1       2.197   5.690  19.797  0.00  0.00    +0.000 C 
BRANCH  28  29
ATOM     29  C   UNL     1       2.444   7.210  19.615  0.00  0.00    +0.000 C 
ATOM     30  C   UNL     1       2.256   7.757  18.195  0.00  0.00    +0.000 C 
ATOM     31  C   UNL     1       1.500   7.998  20.534  0.00  0.00    +0.000 C 
ENDBRANCH  28  29
ENDBRANCH  18  28
ENDBRANCH   2  18
TORSDOF 10
ENDMDL
MODEL 8
REMARK VINA RESULT:      -7.4      1.431      1.902
REMARK  Name = 
REMARK  15 active torsions:
REMARK  status: ('A' for Active; 'I' for Inactive)
REMARK    1  A    between atoms: C_1  and  N_2
REMARK    2  A    between atoms: C_3  and  C_5
REMARK    3  A    between atoms: C_5  and  C_6
REMARK    4  A    between atoms: C_5  and  N_13
REMARK    5  A    between atoms: C_6  and  C_7
REMARK    6  A    between atoms: C_14  and  C_16
REMARK    7  A    between atoms: C_16  and  C_17
REMARK    8  A    between atoms: C_16  and  C_21
REMARK    9  A    between atoms: C_17  and  C_18
REMARK   10  A    between atoms: C_18  and  C_19
REMARK   11  A    between atoms: C_18  and  C_20
REMARK   12  A    between atoms: C_21  and  C_22
REMARK   13  A    between atoms: C_21  and  C_23
REMARK   14  A    between atoms: C_21  and  C_24
REMARK   15  A    between atoms: N_26  and  O_27
REMARK                            x       y       z     vdW  Elec       q    Type
REMARK                         _______ _______ _______ _____ _____    ______ ____
ROOT
ATOM      1  N   UNL     1       4.841   5.084  17.717  0.00  0.00    +0.000 N 
ATOM      2  C   UNL     1       4.275   4.869  18.955  0.00  0.00    +0.000 C 
ATOM      3  O   UNL     1       4.987   4.780  19.969  0.00  0.00    +0.000 OA
ATOM      4  H   UNL     1       4.288   5.601  17.054  0.00  0.00    +0.000 HD
ENDROOT
BRANCH   1   5
ATOM      5  C   UNL     1       6.288   5.262  17.514  0.00  0.00    +0.000 C 
BRANCH   5   8
ATOM      6  C   UNL     1       7.915   8.763  17.641  0.00  0.00    +0.000 C 
ATOM      7  N   UNL     1       7.622   7.356  17.800  0.00  0.00    +0.000 N 
ATOM      8  C   UNL     1       6.579   6.747  17.136  0.00  0.00    +0.000 C 
ATOM      9  O   UNL     1       5.955   7.361  16.274  0.00  0.00    +0.000 OA
ATOM     10  H   UNL     1       8.251   6.775  18.353  0.00  0.00    +0.000 HD
ENDBRANCH   5   8
BRANCH   5  11
ATOM     11  C   UNL     1       6.908   4.173  16.562  0.00  0.00    +0.000 C 
BRANCH  11  12
ATOM     12  C   UNL     1       6.863   4.267  15.036  0.00  0.00    +0.000 A 
ATOM     13  C   UNL     1       5.835   3.674  14.298  0.00  0.00    +0.000 A 
ATOM     14  C   UNL     1       5.836   3.654  12.900  0.00  0.00    +0.000 A 
ATOM     15  C   UNL     1       6.762   4.411  12.200  0.00  0.00    +0.000 A 
ATOM     16  C   UNL     1       7.672   5.186  12.910  0.00  0.00    +0.000 A 
ATOM     17  C   UNL     1       7.749   5.087  14.314  0.00  0.00    +0.000 A 
ENDBRANCH  11  12
ENDBRANCH   5  11
ENDBRANCH   1   5
BRANCH   2  18
ATOM     18  C   UNL     1       2.725   4.817  19.007  0.00  0.00    +0.000 C 
BRANCH  18  19
ATOM     19  C   UNL     1       2.196   3.346  19.379  0.00  0.00    +0.000 C 
ATOM     20  C   UNL     1       2.526   3.030  20.863  0.00  0.00    +0.000 C 
ATOM     21  C   UNL     1       0.695   3.161  19.046  0.00  0.00    +0.000 C 
BRANCH  19  22
ATOM     22  C   UNL     1       2.913   2.225  18.580  0.00  0.00    +0.000 C 
ATOM     23  O   UNL     1       2.608   1.890  17.434  0.00  0.00    +0.000 OA
ATOM     24  N   UNL     1       3.947   1.599  19.255  0.00  0.00    +0.000 N 
ATOM     25  H   UNL     1       4.080   1.644  20.262  0.00  0.00    +0.000 HD
BRANCH  24  26
ATOM     26  O   UNL     1       4.527   0.478  18.619  0.00  0.00    +0.000 OA
ATOM     27  H   UNL     1       4.941   0.000  19.375  0.00  0.00    +0.000 HD
ENDBRANCH  24  26
ENDBRANCH  19  22
ENDBRANCH  18  19
BRANCH  18  28
ATOM     28  C   UNL     1       2.181   5.916  19.967  0.00  0.00    +0.000 C 
BRANCH  28  29
ATOM     29  C   UNL     1       2.386   7.413  19.615  0.00  0.00    +0.000 C 
ATOM     30  C   UNL     1       2.165   7.795  18.147  0.00  0.00    +0.000 C 
ATOM     31  C   UNL     1       1.434   8.274  20.457  0.00  0.00    +0.000 C 
ENDBRANCH  28  29
ENDBRANCH  18  28
ENDBRANCH   2  18
TORSDOF 10
ENDMDL
MODEL 9
REMARK VINA RESULT:      -7.2      1.454      2.161
REMARK  Name = 
REMARK  15 active torsions:
REMARK  status: ('A' for Active; 'I' for Inactive)
REMARK    1  A    between atoms: C_1  and  N_2
REMARK    2  A    between atoms: C_3  and  C_5
REMARK    3  A    between atoms: C_5  and  C_6
REMARK    4  A    between atoms: C_5  and  N_13
REMARK    5  A    between atoms: C_6  and  C_7
REMARK    6  A    between atoms: C_14  and  C_16
REMARK    7  A    between atoms: C_16  and  C_17
REMARK    8  A    between atoms: C_16  and  C_21
REMARK    9  A    between atoms: C_17  and  C_18
REMARK   10  A    between atoms: C_18  and  C_19
REMARK   11  A    between atoms: C_18  and  C_20
REMARK   12  A    between atoms: C_21  and  C_22
REMARK   13  A    between atoms: C_21  and  C_23
REMARK   14  A    between atoms: C_21  and  C_24
REMARK   15  A    between atoms: N_26  and  O_27
REMARK                            x       y       z     vdW  Elec       q    Type
REMARK                         _______ _______ _______ _____ _____    ______ ____
ROOT
ATOM      1  N   UNL     1       4.627   4.745  16.379  0.00  0.00    +0.000 N 
ATOM      2  C   UNL     1       4.362   4.257  17.640  0.00  0.00    +0.000 C 
ATOM      3  O   UNL     1       5.260   3.724  18.314  0.00  0.00    +0.000 OA
ATOM      4  H   UNL     1       4.082   5.536  16.080  0.00  0.00    +0.000 HD
ENDROOT
BRANCH   1   5
ATOM      5  C   UNL     1       5.965   4.711  15.767  0.00  0.00    +0.000 C 
BRANCH   5   8
ATOM      6  C   UNL     1       7.594   7.777  17.461  0.00  0.00    +0.000 C 
ATOM      7  N   UNL     1       6.686   6.877  16.785  0.00  0.00    +0.000 N 
ATOM      8  C   UNL     1       6.957   5.533  16.646  0.00  0.00    +0.000 C 
ATOM      9  O   UNL     1       7.919   5.035  17.227  0.00  0.00    +0.000 OA
ATOM     10  H   UNL     1       5.781   7.225  16.470  0.00  0.00    +0.000 HD
ENDBRANCH   5   8
BRANCH   5  11
ATOM     11  C   UNL     1       5.944   5.064  14.234  0.00  0.00    +0.000 C 
BRANCH  11  12
ATOM     12  C   UNL     1       5.972   4.008  13.128  0.00  0.00    +0.000 A 
ATOM     13  C   UNL     1       4.799   3.581  12.496  0.00  0.00    +0.000 A 
ATOM     14  C   UNL     1       4.792   2.541  11.564  0.00  0.00    +0.000 A 
ATOM     15  C   UNL     1       5.990   2.037  11.081  0.00  0.00    +0.000 A 
ATOM     16  C   UNL     1       7.183   2.589  11.535  0.00  0.00    +0.000 A 
ATOM     17  C   UNL     1       7.177   3.539  12.576  0.00  0.00    +0.000 A 
ENDBRANCH  11  12
ENDBRANCH   5  11
ENDBRANCH   1   5
BRANCH   2  18
ATOM     18  C   UNL     1       2.923   4.474  18.177  0.00  0.00    +0.000 C 
BRANCH  18  19
ATOM     19  C   UNL     1       2.263   3.097  18.674  0.00  0.00    +0.000 C 
ATOM     20  C   UNL     1       0.716   3.181  18.550  0.00  0.00    +0.000 C 
ATOM     21  C   UNL     1       2.855   1.865  17.947  0.00  0.00    +0.000 C 
BRANCH  19  22
ATOM     22  C   UNL     1       2.512   2.816  20.181  0.00  0.00    +0.000 C 
ATOM     23  O   UNL     1       3.607   2.515  20.655  0.00  0.00    +0.000 OA
ATOM     24  N   UNL     1       1.390   2.923  20.986  0.00  0.00    +0.000 N 
ATOM     25  H   UNL     1       0.435   2.914  20.637  0.00  0.00    +0.000 HD
BRANCH  24  26
ATOM     26  O   UNL     1       1.544   2.533  22.336  0.00  0.00    +0.000 OA
ATOM     27  H   UNL     1       0.671   2.773  22.723  0.00  0.00    +0.000 HD
ENDBRANCH  24  26
ENDBRANCH  19  22
ENDBRANCH  18  19
BRANCH  18  28
ATOM     28  C   UNL     1       2.920   5.578  19.277  0.00  0.00    +0.000 C 
BRANCH  28  29
ATOM     29  C   UNL     1       2.135   6.895  19.042  0.00  0.00    +0.000 C 
ATOM     30  C   UNL     1       1.906   7.772  20.278  0.00  0.00    +0.000 C 
ATOM     31  C   UNL     1       2.875   7.754  18.006  0.00  0.00    +0.000 C 
ENDBRANCH  28  29
ENDBRANCH  18  28
ENDBRANCH   2  18
TORSDOF 10
ENDMDL
