MODEL 1
REMARK VINA RESULT:      -8.6      0.000      0.000
REMARK  Name = 
REMARK  7 active torsions:
REMARK  status: ('A' for Active; 'I' for Inactive)
REMARK    1  A    between atoms: C_1  and  C_2
REMARK    2  A    between atoms: C_7  and  N_8
REMARK    3  A    between atoms: C_9  and  C_11
REMARK    4  A    between atoms: C_16  and  N_17
REMARK    5  A    between atoms: C_18  and  C_20
REMARK    6  A    between atoms: C_23  and  N_24
REMARK    7  A    between atoms: N_28  and  C_29
REMARK                            x       y       z     vdW  Elec       q    Type
REMARK                         _______ _______ _______ _____ _____    ______ ____
ROOT
ATOM      1  N   UNL     1      -0.267  11.107  21.870  0.00  0.00    +0.000 N 
ATOM      2  C   UNL     1      -0.174  10.769  20.536  0.00  0.00    +0.000 C 
ATOM      3  O   UNL     1      -0.800  11.366  19.683  0.00  0.00    +0.000 OA
ATOM      4  H   UNL     1       0.283  10.534  22.507  0.00  0.00    +0.000 HD
ENDROOT
BRANCH   1  10
ATOM      5  C   UNL     1      -0.672  13.563  22.370  0.00  0.00    +0.000 A 
ATOM      6  C   UNL     1      -1.480  14.522  23.036  0.00  0.00    +0.000 A 
ATOM      7  C   UNL     1      -2.651  14.163  23.694  0.00  0.00    +0.000 A 
ATOM      8  C   UNL     1      -3.070  12.850  23.696  0.00  0.00    +0.000 A 
ATOM      9  C   UNL     1      -2.309  11.877  23.080  0.00  0.00    +0.000 A 
ATOM     10  C   UNL     1      -1.077  12.173  22.430  0.00  0.00    +0.000 A 
BRANCH   5  12
ATOM     11  N   UNL     1       0.479  14.308  20.245  0.00  0.00    +0.000 N 
ATOM     12  C   UNL     1       0.531  14.082  21.600  0.00  0.00    +0.000 C 
ATOM     13  O   UNL     1       1.572  14.274  22.197  0.00  0.00    +0.000 OA
ATOM     14  H   UNL     1      -0.437  14.250  19.790  0.00  0.00    +0.000 HD
BRANCH  11  21
ATOM     15  C   UNL     1       0.972  17.150  19.305  0.00  0.00    +0.000 C 
ATOM     16  C   UNL     1       1.808  15.959  18.902  0.00  0.00    +0.000 A 
ATOM     17  C   UNL     1       2.866  16.220  18.012  0.00  0.00    +0.000 A 
ATOM     18  C   UNL     1       3.726  15.207  17.602  0.00  0.00    +0.000 A 
ATOM     19  C   UNL     1       3.540  13.911  18.065  0.00  0.00    +0.000 A 
ATOM     20  C   UNL     1       2.494  13.620  18.940  0.00  0.00    +0.000 A 
ATOM     21  C   UNL     1       1.602  14.629  19.389  0.00  0.00    +0.000 A 
ENDBRANCH  11  21
ENDBRANCH   5  12
ENDBRANCH   1  10
BRANCH   2  22
ATOM     22  C   UNL     1       0.712   9.682  20.056  0.00  0.00    +0.000 A 
ATOM     23  C   UNL     1       1.184   9.609  18.740  0.00  0.00    +0.000 A 
ATOM     24  C   UNL     1       1.957   8.526  18.341  0.00  0.00    +0.000 A 
ATOM     25  C   UNL     1       2.263   7.475  19.237  0.00  0.00    +0.000 A 
ATOM     26  C   UNL     1       1.832   7.586  20.565  0.00  0.00    +0.000 A 
ATOM     27  C   UNL     1       1.073   8.674  20.970  0.00  0.00    +0.000 A 
BRANCH  25  28
ATOM     28  N   UNL     1       2.921   6.291  18.769  0.00  0.00    +0.000 N 
ATOM     29  C   UNL     1       4.251   6.329  18.169  0.00  0.00    +0.000 C 
ATOM     30  C   UNL     1       4.383   5.477  16.889  0.00  0.00    +0.000 C 
ATOM     31  C   UNL     1       4.209   3.967  17.149  0.00  0.00    +0.000 C 
ATOM     32  N   UNL     1       2.808   3.485  17.179  0.00  0.00    +0.000 NA
ATOM     33  C   UNL     1       2.743   2.148  17.802  0.00  0.00    +0.000 C 
ATOM     34  C   UNL     1       1.806   4.369  17.799  0.00  0.00    +0.000 C 
ATOM     35  C   UNL     1       2.303   5.014  19.082  0.00  0.00    +0.000 C 
ENDBRANCH  25  28
ENDBRANCH   2  22
TORSDOF 5
ENDMDL
MODEL 2
REMARK VINA RESULT:      -8.6      0.864      1.488
REMARK  Name = 
REMARK  7 active torsions:
REMARK  status: ('A' for Active; 'I' for Inactive)
REMARK    1  A    between atoms: C_1  and  C_2
REMARK    2  A    between atoms: C_7  and  N_8
REMARK    3  A    between atoms: C_9  and  C_11
REMARK    4  A    between atoms: C_16  and  N_17
REMARK    5  A    between atoms: C_18  and  C_20
REMARK    6  A    between atoms: C_23  and  N_24
REMARK    7  A    between atoms: N_28  and  C_29
REMARK                            x       y       z     vdW  Elec       q    Type
REMARK                         _______ _______ _______ _____ _____    ______ ____
ROOT
ATOM      1  N   UNL     1      -0.080  11.044  21.643  0.00  0.00    +0.000 N 
ATOM      2  C   UNL     1      -0.029  10.820  20.283  0.00  0.00    +0.000 C 
ATOM      3  O   UNL     1      -0.688  11.480  19.505  0.00  0.00    +0.000 OA
ATOM      4  H   UNL     1       0.495  10.424  22.212  0.00  0.00    +0.000 HD
ENDROOT
BRANCH   1  10
ATOM      5  C   UNL     1      -0.493  13.448  22.345  0.00  0.00    +0.000 A 
ATOM      6  C   UNL     1      -1.282  14.341  23.117  0.00  0.00    +0.000 A 
ATOM      7  C   UNL     1      -2.418  13.915  23.797  0.00  0.00    +0.000 A 
ATOM      8  C   UNL     1      -2.819  12.599  23.718  0.00  0.00    +0.000 A 
ATOM      9  C   UNL     1      -2.074  11.688  22.997  0.00  0.00    +0.000 A 
ATOM     10  C   UNL     1      -0.877  12.051  22.318  0.00  0.00    +0.000 A 
BRANCH   5  12
ATOM     11  N   UNL     1       0.579  14.288  20.214  0.00  0.00    +0.000 N 
ATOM     12  C   UNL     1       0.667  14.042  21.564  0.00  0.00    +0.000 C 
ATOM     13  O   UNL     1       1.707  14.280  22.147  0.00  0.00    +0.000 OA
ATOM     14  H   UNL     1      -0.340  14.188  19.773  0.00  0.00    +0.000 HD
BRANCH  11  21
ATOM     15  C   UNL     1       0.841  17.143  19.224  0.00  0.00    +0.000 C 
ATOM     16  C   UNL     1       1.767  16.015  18.835  0.00  0.00    +0.000 A 
ATOM     17  C   UNL     1       2.796  16.344  17.933  0.00  0.00    +0.000 A 
ATOM     18  C   UNL     1       3.731  15.394  17.534  0.00  0.00    +0.000 A 
ATOM     19  C   UNL     1       3.650  14.096  18.019  0.00  0.00    +0.000 A 
ATOM     20  C   UNL     1       2.636  13.739  18.907  0.00  0.00    +0.000 A 
ATOM     21  C   UNL     1       1.669  14.681  19.346  0.00  0.00    +0.000 A 
ENDBRANCH  11  21
ENDBRANCH   5  12
ENDBRANCH   1  10
BRANCH   2  22
ATOM     22  C   UNL     1       0.847   9.785  19.684  0.00  0.00    +0.000 A 
ATOM     23  C   UNL     1       1.308   9.848  18.364  0.00  0.00    +0.000 A 
ATOM     24  C   UNL     1       2.071   8.809  17.847  0.00  0.00    +0.000 A 
ATOM     25  C   UNL     1       2.379   7.669  18.626  0.00  0.00    +0.000 A 
ATOM     26  C   UNL     1       1.959   7.642  19.961  0.00  0.00    +0.000 A 
ATOM     27  C   UNL     1       1.210   8.685  20.484  0.00  0.00    +0.000 A 
BRANCH  25  28
ATOM     28  N   UNL     1       3.027   6.537  18.030  0.00  0.00    +0.000 N 
ATOM     29  C   UNL     1       2.390   5.226  17.964  0.00  0.00    +0.000 C 
ATOM     30  C   UNL     1       3.323   4.059  18.350  0.00  0.00    +0.000 C 
ATOM     31  C   UNL     1       4.499   3.877  17.368  0.00  0.00    +0.000 C 
ATOM     32  N   UNL     1       5.676   4.741  17.621  0.00  0.00    +0.000 NA
ATOM     33  C   UNL     1       6.554   4.764  16.434  0.00  0.00    +0.000 C 
ATOM     34  C   UNL     1       5.414   6.119  18.070  0.00  0.00    +0.000 C 
ATOM     35  C   UNL     1       4.270   6.776  17.317  0.00  0.00    +0.000 C 
ENDBRANCH  25  28
ENDBRANCH   2  22
TORSDOF 5
ENDMDL
MODEL 3
REMARK VINA RESULT:      -8.4      0.971      1.944
REMARK  Name = 
REMARK  7 active torsions:
REMARK  status: ('A' for Active; 'I' for Inactive)
REMARK    1  A    between atoms: C_1  and  C_2
REMARK    2  A    between atoms: C_7  and  N_8
REMARK    3  A    between atoms: C_9  and  C_11
REMARK    4  A    between atoms: C_16  and  N_17
REMARK    5  A    between atoms: C_18  and  C_20
REMARK    6  A    between atoms: C_23  and  N_24
REMARK    7  A    between atoms: N_28  and  C_29
REMARK                            x       y       z     vdW  Elec       q    Type
REMARK                         _______ _______ _______ _____ _____    ______ ____
ROOT
ATOM      1  N   UNL     1       0.079  11.005  21.562  0.00  0.00    +0.000 N 
ATOM      2  C   UNL     1      -0.171  10.428  20.334  0.00  0.00    +0.000 C 
ATOM      3  O   UNL     1      -1.161  10.708  19.690  0.00  0.00    +0.000 OA
ATOM      4  H   UNL     1       0.926  10.690  22.031  0.00  0.00    +0.000 HD
ENDROOT
BRANCH   1  10
ATOM      5  C   UNL     1      -0.421  13.398  22.247  0.00  0.00    +0.000 A 
ATOM      6  C   UNL     1      -1.239  14.267  23.016  0.00  0.00    +0.000 A 
ATOM      7  C   UNL     1      -2.355  13.804  23.706  0.00  0.00    +0.000 A 
ATOM      8  C   UNL     1      -2.707  12.473  23.639  0.00  0.00    +0.000 A 
ATOM      9  C   UNL     1      -1.932  11.585  22.921  0.00  0.00    +0.000 A 
ATOM     10  C   UNL     1      -0.752  11.988  22.233  0.00  0.00    +0.000 A 
BRANCH   5  12
ATOM     11  N   UNL     1       0.519  14.528  20.189  0.00  0.00    +0.000 N 
ATOM     12  C   UNL     1       0.712  14.029  21.456  0.00  0.00    +0.000 C 
ATOM     13  O   UNL     1       1.823  14.068  21.949  0.00  0.00    +0.000 OA
ATOM     14  H   UNL     1      -0.444  14.588  19.845  0.00  0.00    +0.000 HD
BRANCH  11  21
ATOM     15  C   UNL     1       2.172  12.561  18.577  0.00  0.00    +0.000 C 
ATOM     16  C   UNL     1       2.370  14.058  18.562  0.00  0.00    +0.000 A 
ATOM     17  C   UNL     1       3.416  14.534  17.750  0.00  0.00    +0.000 A 
ATOM     18  C   UNL     1       3.666  15.897  17.628  0.00  0.00    +0.000 A 
ATOM     19  C   UNL     1       2.884  16.810  18.322  0.00  0.00    +0.000 A 
ATOM     20  C   UNL     1       1.846  16.367  19.142  0.00  0.00    +0.000 A 
ATOM     21  C   UNL     1       1.553  14.985  19.285  0.00  0.00    +0.000 A 
ENDBRANCH  11  21
ENDBRANCH   5  12
ENDBRANCH   1  10
BRANCH   2  22
ATOM     22  C   UNL     1       0.761   9.457  19.714  0.00  0.00    +0.000 A 
ATOM     23  C   UNL     1       1.104   9.490  18.357  0.00  0.00    +0.000 A 
ATOM     24  C   UNL     1       1.931   8.508  17.828  0.00  0.00    +0.000 A 
ATOM     25  C   UNL     1       2.421   7.453  18.631  0.00  0.00    +0.000 A 
ATOM     26  C   UNL     1       2.116   7.459  19.997  0.00  0.00    +0.000 A 
ATOM     27  C   UNL     1       1.303   8.448  20.532  0.00  0.00    +0.000 A 
BRANCH  25  28
ATOM     28  N   UNL     1       3.138   6.361  18.038  0.00  0.00    +0.000 N 
ATOM     29  C   UNL     1       2.532   5.047  17.852  0.00  0.00    +0.000 C 
ATOM     30  C   UNL     1       3.449   3.875  18.258  0.00  0.00    +0.000 C 
ATOM     31  C   UNL     1       4.707   3.758  17.374  0.00  0.00    +0.000 C 
ATOM     32  N   UNL     1       5.843   4.624  17.769  0.00  0.00    +0.000 NA
ATOM     33  C   UNL     1       6.818   4.720  16.665  0.00  0.00    +0.000 C 
ATOM     34  C   UNL     1       5.520   5.974  18.262  0.00  0.00    +0.000 C 
ATOM     35  C   UNL     1       4.433   6.653  17.448  0.00  0.00    +0.000 C 
ENDBRANCH  25  28
ENDBRANCH   2  22
TORSDOF 5
ENDMDL
MODEL 4
REMARK VINA RESULT:      -8.3      1.332      2.273
REMARK  Name = 
REMARK  7 active torsions:
REMARK  status: ('A' for Active; 'I' for Inactive)
REMARK    1  A    between atoms: C_1  and  C_2
REMARK    2  A    between atoms: C_7  and  N_8
REMARK    3  A    between atoms: C_9  and  C_11
REMARK    4  A    between atoms: C_16  and  N_17
REMARK    5  A    between atoms: C_18  and  C_20
REMARK    6  A    between atoms: C_23  and  N_24
REMARK    7  A    between atoms: N_28  and  C_29
REMARK                            x       y       z     vdW  Elec       q    Type
REMARK                         _______ _______ _______ _____ _____    ______ ____
ROOT
ATOM      1  N   UNL     1       0.272  11.163  21.129  0.00  0.00    +0.000 N 
ATOM      2  C   UNL     1      -0.045  10.372  20.044  0.00  0.00    +0.000 C 
ATOM      3  O   UNL     1      -1.129  10.442  19.502  0.00  0.00    +0.000 OA
ATOM      4  H   UNL     1       1.199  11.016  21.524  0.00  0.00    +0.000 HD
ENDROOT
BRANCH   1  10
ATOM      5  C   UNL     1      -0.659  13.521  21.280  0.00  0.00    +0.000 A 
ATOM      6  C   UNL     1      -1.452  14.439  22.017  0.00  0.00    +0.000 A 
ATOM      7  C   UNL     1      -2.184  14.045  23.132  0.00  0.00    +0.000 A 
ATOM      8  C   UNL     1      -2.169  12.730  23.541  0.00  0.00    +0.000 A 
ATOM      9  C   UNL     1      -1.397  11.803  22.870  0.00  0.00    +0.000 A 
ATOM     10  C   UNL     1      -0.590  12.152  21.751  0.00  0.00    +0.000 A 
BRANCH   5  12
ATOM     11  N   UNL     1       1.001  14.997  20.072  0.00  0.00    +0.000 N 
ATOM     12  C   UNL     1       0.017  14.038  20.022  0.00  0.00    +0.000 C 
ATOM     13  O   UNL     1      -0.344  13.610  18.943  0.00  0.00    +0.000 OA
ATOM     14  H   UNL     1       1.366  15.254  20.994  0.00  0.00    +0.000 HD
BRANCH  11  21
ATOM     15  C   UNL     1       3.380  13.837  18.589  0.00  0.00    +0.000 C 
ATOM     16  C   UNL     1       2.737  15.166  18.268  0.00  0.00    +0.000 A 
ATOM     17  C   UNL     1       3.322  15.897  17.218  0.00  0.00    +0.000 A 
ATOM     18  C   UNL     1       2.791  17.116  16.809  0.00  0.00    +0.000 A 
ATOM     19  C   UNL     1       1.672  17.633  17.448  0.00  0.00    +0.000 A 
ATOM     20  C   UNL     1       1.077  16.935  18.499  0.00  0.00    +0.000 A 
ATOM     21  C   UNL     1       1.583  15.684  18.938  0.00  0.00    +0.000 A 
ENDBRANCH  11  21
ENDBRANCH   5  12
ENDBRANCH   1  10
BRANCH   2  22
ATOM     22  C   UNL     1       0.921   9.413  19.457  0.00  0.00    +0.000 A 
ATOM     23  C   UNL     1       1.407   9.525  18.149  0.00  0.00    +0.000 A 
ATOM     24  C   UNL     1       2.258   8.553  17.641  0.00  0.00    +0.000 A 
ATOM     25  C   UNL     1       2.631   7.430  18.415  0.00  0.00    +0.000 A 
ATOM     26  C   UNL     1       2.183   7.355  19.739  0.00  0.00    +0.000 A 
ATOM     27  C   UNL     1       1.345   8.334  20.254  0.00  0.00    +0.000 A 
BRANCH  25  28
ATOM     28  N   UNL     1       3.376   6.356  17.824  0.00  0.00    +0.000 N 
ATOM     29  C   UNL     1       2.889   4.981  17.827  0.00  0.00    +0.000 C 
ATOM     30  C   UNL     1       3.963   3.940  18.204  0.00  0.00    +0.000 C 
ATOM     31  C   UNL     1       5.108   3.854  17.175  0.00  0.00    +0.000 C 
ATOM     32  N   UNL     1       6.191   4.852  17.346  0.00  0.00    +0.000 NA
ATOM     33  C   UNL     1       7.008   4.931  16.120  0.00  0.00    +0.000 C 
ATOM     34  C   UNL     1       5.795   6.208  17.765  0.00  0.00    +0.000 C 
ATOM     35  C   UNL     1       4.553   6.707  17.048  0.00  0.00    +0.000 C 
ENDBRANCH  25  28
ENDBRANCH   2  22
TORSDOF 5
ENDMDL
MODEL 5
REMARK VINA RESULT:      -8.2      1.041      1.636
REMARK  Name = 
REMARK  7 active torsions:
REMARK  status: ('A' for Active; 'I' for Inactive)
REMARK    1  A    between atoms: C_1  and  C_2
REMARK    2  A    between atoms: C_7  and  N_8
REMARK    3  A    between atoms: C_9  and  C_11
REMARK    4  A    between atoms: C_16  and  N_17
REMARK    5  A    between atoms: C_18  and  C_20
REMARK    6  A    between atoms: C_23  and  N_24
REMARK    7  A    between atoms: N_28  and  C_29
REMARK                            x       y       z     vdW  Elec       q    Type
REMARK                         _______ _______ _______ _____ _____    ______ ____
ROOT
ATOM      1  N   UNL     1      -0.119  11.404  21.170  0.00  0.00    +0.000 N 
ATOM      2  C   UNL     1      -0.344  10.568  20.097  0.00  0.00    +0.000 C 
ATOM      3  O   UNL     1      -1.368  10.629  19.447  0.00  0.00    +0.000 OA
ATOM      4  H   UNL     1       0.762  11.260  21.662  0.00  0.00    +0.000 HD
ENDROOT
BRANCH   1  10
ATOM      5  C   UNL     1      -1.017  13.778  21.112  0.00  0.00    +0.000 A 
ATOM      6  C   UNL     1      -1.858  14.744  21.723  0.00  0.00    +0.000 A 
ATOM      7  C   UNL     1      -2.696  14.420  22.786  0.00  0.00    +0.000 A 
ATOM      8  C   UNL     1      -2.742  13.128  23.262  0.00  0.00    +0.000 A 
ATOM      9  C   UNL     1      -1.928  12.157  22.715  0.00  0.00    +0.000 A 
ATOM     10  C   UNL     1      -1.016  12.436  21.657  0.00  0.00    +0.000 A 
BRANCH   5  12
ATOM     11  N   UNL     1       0.783  15.155  19.990  0.00  0.00    +0.000 N 
ATOM     12  C   UNL     1      -0.220  14.219  19.896  0.00  0.00    +0.000 C 
ATOM     13  O   UNL     1      -0.498  13.749  18.810  0.00  0.00    +0.000 OA
ATOM     14  H   UNL     1       1.073  15.446  20.928  0.00  0.00    +0.000 HD
BRANCH  11  21
ATOM     15  C   UNL     1       3.242  13.863  18.770  0.00  0.00    +0.000 C 
ATOM     16  C   UNL     1       2.670  15.193  18.338  0.00  0.00    +0.000 A 
ATOM     17  C   UNL     1       3.365  15.859  17.311  0.00  0.00    +0.000 A 
ATOM     18  C   UNL     1       2.909  17.072  16.806  0.00  0.00    +0.000 A 
ATOM     19  C   UNL     1       1.757  17.649  17.323  0.00  0.00    +0.000 A 
ATOM     20  C   UNL     1       1.053  17.017  18.347  0.00  0.00    +0.000 A 
ATOM     21  C   UNL     1       1.480  15.773  18.882  0.00  0.00    +0.000 A 
ENDBRANCH  11  21
ENDBRANCH   5  12
ENDBRANCH   1  10
BRANCH   2  22
ATOM     22  C   UNL     1       0.654   9.566  19.653  0.00  0.00    +0.000 A 
ATOM     23  C   UNL     1       1.140   9.504  18.342  0.00  0.00    +0.000 A 
ATOM     24  C   UNL     1       2.024   8.496  17.978  0.00  0.00    +0.000 A 
ATOM     25  C   UNL     1       2.431   7.510  18.906  0.00  0.00    +0.000 A 
ATOM     26  C   UNL     1       1.981   7.612  20.227  0.00  0.00    +0.000 A 
ATOM     27  C   UNL     1       1.111   8.627  20.597  0.00  0.00    +0.000 A 
BRANCH  25  28
ATOM     28  N   UNL     1       3.213   6.387  18.475  0.00  0.00    +0.000 N 
ATOM     29  C   UNL     1       4.474   6.550  17.761  0.00  0.00    +0.000 C 
ATOM     30  C   UNL     1       4.628   5.613  16.544  0.00  0.00    +0.000 C 
ATOM     31  C   UNL     1       4.689   4.122  16.934  0.00  0.00    +0.000 C 
ATOM     32  N   UNL     1       3.375   3.462  17.123  0.00  0.00    +0.000 NA
ATOM     33  C   UNL     1       3.546   2.189  17.850  0.00  0.00    +0.000 C 
ATOM     34  C   UNL     1       2.309   4.255  17.758  0.00  0.00    +0.000 C 
ATOM     35  C   UNL     1       2.806   5.071  18.938  0.00  0.00    +0.000 C 
ENDBRANCH  25  28
ENDBRANCH   2  22
TORSDOF 5
ENDMDL
MODEL 6
REMARK VINA RESULT:      -8.2      0.835      1.360
REMARK  Name = 
REMARK  7 active torsions:
REMARK  status: ('A' for Active; 'I' for Inactive)
REMARK    1  A    between atoms: C_1  and  C_2
REMARK    2  A    between atoms: C_7  and  N_8
REMARK    3  A    between atoms: C_9  and  C_11
REMARK    4  A    between atoms: C_16  and  N_17
REMARK    5  A    between atoms: C_18  and  C_20
REMARK    6  A    between atoms: C_23  and  N_24
REMARK    7  A    between atoms: N_28  and  C_29
REMARK                            x       y       z     vdW  Elec       q    Type
REMARK                         _______ _______ _______ _____ _____    ______ ____
ROOT
ATOM      1  N   UNL     1      -0.045  11.402  21.349  0.00  0.00    +0.000 N 
ATOM      2  C   UNL     1      -0.009  10.922  20.056  0.00  0.00    +0.000 C 
ATOM      3  O   UNL     1      -0.657  11.438  19.168  0.00  0.00    +0.000 OA
ATOM      4  H   UNL     1       0.519  10.888  22.024  0.00  0.00    +0.000 HD
ENDROOT
BRANCH   1  10
ATOM      5  C   UNL     1      -0.250  13.871  21.902  0.00  0.00    +0.000 A 
ATOM      6  C   UNL     1      -1.047  14.898  22.473  0.00  0.00    +0.000 A 
ATOM      7  C   UNL     1      -2.347  14.661  22.906  0.00  0.00    +0.000 A 
ATOM      8  C   UNL     1      -2.906  13.409  22.769  0.00  0.00    +0.000 A 
ATOM      9  C   UNL     1      -2.164  12.372  22.239  0.00  0.00    +0.000 A 
ATOM     10  C   UNL     1      -0.813  12.539  21.821  0.00  0.00    +0.000 A 
BRANCH   5  12
ATOM     11  N   UNL     1       1.261  15.030  20.237  0.00  0.00    +0.000 N 
ATOM     12  C   UNL     1       1.118  14.266  21.372  0.00  0.00    +0.000 C 
ATOM     13  O   UNL     1       2.110  13.872  21.955  0.00  0.00    +0.000 OA
ATOM     14  H   UNL     1       0.415  15.443  19.835  0.00  0.00    +0.000 HD
BRANCH  11  21
ATOM     15  C   UNL     1       2.410  13.087  18.210  0.00  0.00    +0.000 C 
ATOM     16  C   UNL     1       3.075  14.376  18.633  0.00  0.00    +0.000 A 
ATOM     17  C   UNL     1       4.322  14.649  18.040  0.00  0.00    +0.000 A 
ATOM     18  C   UNL     1       5.009  15.825  18.325  0.00  0.00    +0.000 A 
ATOM     19  C   UNL     1       4.470  16.744  19.213  0.00  0.00    +0.000 A 
ATOM     20  C   UNL     1       3.240  16.496  19.823  0.00  0.00    +0.000 A 
ATOM     21  C   UNL     1       2.504  15.313  19.551  0.00  0.00    +0.000 A 
ENDBRANCH  11  21
ENDBRANCH   5  12
ENDBRANCH   1  10
BRANCH   2  22
ATOM     22  C   UNL     1       0.839   9.772  19.664  0.00  0.00    +0.000 A 
ATOM     23  C   UNL     1       1.323   9.591  18.363  0.00  0.00    +0.000 A 
ATOM     24  C   UNL     1       2.057   8.454  18.049  0.00  0.00    +0.000 A 
ATOM     25  C   UNL     1       2.310   7.456  19.018  0.00  0.00    +0.000 A 
ATOM     26  C   UNL     1       1.868   7.672  20.328  0.00  0.00    +0.000 A 
ATOM     27  C   UNL     1       1.149   8.815  20.648  0.00  0.00    +0.000 A 
BRANCH  25  28
ATOM     28  N   UNL     1       2.926   6.217  18.640  0.00  0.00    +0.000 N 
ATOM     29  C   UNL     1       4.279   6.159  18.097  0.00  0.00    +0.000 C 
ATOM     30  C   UNL     1       4.420   5.234  16.870  0.00  0.00    +0.000 C 
ATOM     31  C   UNL     1       4.160   3.750  17.199  0.00  0.00    +0.000 C 
ATOM     32  N   UNL     1       2.736   3.339  17.194  0.00  0.00    +0.000 NA
ATOM     33  C   UNL     1       2.578   2.042  17.881  0.00  0.00    +0.000 C 
ATOM     34  C   UNL     1       1.756   4.302  17.724  0.00  0.00    +0.000 C 
ATOM     35  C   UNL     1       2.232   4.990  18.991  0.00  0.00    +0.000 C 
ENDBRANCH  25  28
ENDBRANCH   2  22
TORSDOF 5
ENDMDL
MODEL 7
REMARK VINA RESULT:      -8.2      1.658      2.415
REMARK  Name = 
REMARK  7 active torsions:
REMARK  status: ('A' for Active; 'I' for Inactive)
REMARK    1  A    between atoms: C_1  and  C_2
REMARK    2  A    between atoms: C_7  and  N_8
REMARK    3  A    between atoms: C_9  and  C_11
REMARK    4  A    between atoms: C_16  and  N_17
REMARK    5  A    between atoms: C_18  and  C_20
REMARK    6  A    between atoms: C_23  and  N_24
REMARK    7  A    between atoms: N_28  and  C_29
REMARK                            x       y       z     vdW  Elec       q    Type
REMARK                         _______ _______ _______ _____ _____    ______ ____
ROOT
ATOM      1  N   UNL     1       0.637  10.303  21.261  0.00  0.00    +0.000 N 
ATOM      2  C   UNL     1       0.404   9.575  20.113  0.00  0.00    +0.000 C 
ATOM      3  O   UNL     1      -0.602   9.736  19.452  0.00  0.00    +0.000 OA
ATOM      4  H   UNL     1       1.500  10.080  21.755  0.00  0.00    +0.000 HD
ENDROOT
BRANCH   1  10
ATOM      5  C   UNL     1      -0.152  12.712  21.411  0.00  0.00    +0.000 A 
ATOM      6  C   UNL     1      -0.969  13.653  22.089  0.00  0.00    +0.000 A 
ATOM      7  C   UNL     1      -1.856  13.268  23.089  0.00  0.00    +0.000 A 
ATOM      8  C   UNL     1      -1.977  11.939  23.433  0.00  0.00    +0.000 A 
ATOM      9  C   UNL     1      -1.189  10.988  22.818  0.00  0.00    +0.000 A 
ATOM     10  C   UNL     1      -0.229  11.324  21.821  0.00  0.00    +0.000 A 
BRANCH   5  12
ATOM     11  N   UNL     1       1.672  14.188  20.468  0.00  0.00    +0.000 N 
ATOM     12  C   UNL     1       0.706  13.230  20.269  0.00  0.00    +0.000 C 
ATOM     13  O   UNL     1       0.511  12.804  19.147  0.00  0.00    +0.000 OA
ATOM     14  H   UNL     1       1.894  14.444  21.434  0.00  0.00    +0.000 HD
BRANCH  11  21
ATOM     15  C   UNL     1       0.650  16.774  19.255  0.00  0.00    +0.000 C 
ATOM     16  C   UNL     1       1.913  16.068  18.824  0.00  0.00    +0.000 A 
ATOM     17  C   UNL     1       2.626  16.668  17.770  0.00  0.00    +0.000 A 
ATOM     18  C   UNL     1       3.824  16.127  17.314  0.00  0.00    +0.000 A 
ATOM     19  C   UNL     1       4.328  14.972  17.895  0.00  0.00    +0.000 A 
ATOM     20  C   UNL     1       3.637  14.349  18.935  0.00  0.00    +0.000 A 
ATOM     21  C   UNL     1       2.417  14.876  19.434  0.00  0.00    +0.000 A 
ENDBRANCH  11  21
ENDBRANCH   5  12
ENDBRANCH   1  10
BRANCH   2  22
ATOM     22  C   UNL     1       1.371   8.575  19.601  0.00  0.00    +0.000 A 
ATOM     23  C   UNL     1       1.766   7.451  20.336  0.00  0.00    +0.000 A 
ATOM     24  C   UNL     1       2.728   6.591  19.822  0.00  0.00    +0.000 A 
ATOM     25  C   UNL     1       3.338   6.839  18.570  0.00  0.00    +0.000 A 
ATOM     26  C   UNL     1       2.896   7.936  17.820  0.00  0.00    +0.000 A 
ATOM     27  C   UNL     1       1.924   8.787  18.324  0.00  0.00    +0.000 A 
BRANCH  25  28
ATOM     28  N   UNL     1       4.440   6.035  18.129  0.00  0.00    +0.000 N 
ATOM     29  C   UNL     1       5.275   5.285  19.061  0.00  0.00    +0.000 C 
ATOM     30  C   UNL     1       6.787   5.405  18.780  0.00  0.00    +0.000 C 
ATOM     31  C   UNL     1       7.201   4.782  17.431  0.00  0.00    +0.000 C 
ATOM     32  N   UNL     1       7.036   5.660  16.249  0.00  0.00    +0.000 NA
ATOM     33  C   UNL     1       7.089   4.860  15.010  0.00  0.00    +0.000 C 
ATOM     34  C   UNL     1       5.851   6.536  16.222  0.00  0.00    +0.000 C 
ATOM     35  C   UNL     1       4.591   5.835  16.698  0.00  0.00    +0.000 C 
ENDBRANCH  25  28
ENDBRANCH   2  22
TORSDOF 5
ENDMDL
MODEL 8
REMARK VINA RESULT:      -8.1      1.402      2.466
REMARK  Name = 
REMARK  7 active torsions:
REMARK  status: ('A' for Active; 'I' for Inactive)
REMARK    1  A    between atoms: C_1  and  C_2
REMARK    2  A    between atoms: C_7  and  N_8
REMARK    3  A    between atoms: C_9  and  C_11
REMARK    4  A    between atoms: C_16  and  N_17
REMARK    5  A    between atoms: C_18  and  C_20
REMARK    6  A    between atoms: C_23  and  N_24
REMARK    7  A    between atoms: N_28  and  C_29
REMARK                            x       y       z     vdW  Elec       q    Type
REMARK                         _______ _______ _______ _____ _____    ______ ____
ROOT
ATOM      1  N   UNL     1      -0.422  10.847  20.760  0.00  0.00    +0.000 N 
ATOM      2  C   UNL     1       0.653  10.089  21.177  0.00  0.00    +0.000 C 
ATOM      3  O   UNL     1       1.167  10.260  22.263  0.00  0.00    +0.000 OA
ATOM      4  H   UNL     1      -0.768  10.640  19.824  0.00  0.00    +0.000 HD
ENDROOT
BRANCH   1  10
ATOM      5  C   UNL     1      -0.882  13.304  21.204  0.00  0.00    +0.000 A 
ATOM      6  C   UNL     1      -1.479  14.263  22.064  0.00  0.00    +0.000 A 
ATOM      7  C   UNL     1      -2.263  13.888  23.150  0.00  0.00    +0.000 A 
ATOM      8  C   UNL     1      -2.498  12.555  23.406  0.00  0.00    +0.000 A 
ATOM      9  C   UNL     1      -1.923  11.583  22.612  0.00  0.00    +0.000 A 
ATOM     10  C   UNL     1      -1.073  11.901  21.515  0.00  0.00    +0.000 A 
BRANCH   5  12
ATOM     11  N   UNL     1       0.892  14.740  20.116  0.00  0.00    +0.000 N 
ATOM     12  C   UNL     1      -0.129  13.828  19.993  0.00  0.00    +0.000 C 
ATOM     13  O   UNL     1      -0.460  13.447  18.887  0.00  0.00    +0.000 OA
ATOM     14  H   UNL     1       1.225  14.954  21.060  0.00  0.00    +0.000 HD
BRANCH  11  21
ATOM     15  C   UNL     1       3.165  13.444  18.581  0.00  0.00    +0.000 C 
ATOM     16  C   UNL     1       2.658  14.846  18.337  0.00  0.00    +0.000 A 
ATOM     17  C   UNL     1       3.325  15.577  17.337  0.00  0.00    +0.000 A 
ATOM     18  C   UNL     1       2.920  16.865  17.000  0.00  0.00    +0.000 A 
ATOM     19  C   UNL     1       1.849  17.450  17.661  0.00  0.00    +0.000 A 
ATOM     20  C   UNL     1       1.176  16.753  18.663  0.00  0.00    +0.000 A 
ATOM     21  C   UNL     1       1.552  15.433  19.029  0.00  0.00    +0.000 A 
ENDBRANCH  11  21
ENDBRANCH   5  12
ENDBRANCH   1  10
BRANCH   2  22
ATOM     22  C   UNL     1       1.227   9.006  20.343  0.00  0.00    +0.000 A 
ATOM     23  C   UNL     1       1.558   7.746  20.854  0.00  0.00    +0.000 A 
ATOM     24  C   UNL     1       2.155   6.800  20.031  0.00  0.00    +0.000 A 
ATOM     25  C   UNL     1       2.458   7.092  18.681  0.00  0.00    +0.000 A 
ATOM     26  C   UNL     1       2.074   8.336  18.166  0.00  0.00    +0.000 A 
ATOM     27  C   UNL     1       1.462   9.276  18.982  0.00  0.00    +0.000 A 
BRANCH  25  28
ATOM     28  N   UNL     1       3.218   6.167  17.891  0.00  0.00    +0.000 N 
ATOM     29  C   UNL     1       2.790   4.787  17.687  0.00  0.00    +0.000 C 
ATOM     30  C   UNL     1       3.923   3.752  17.844  0.00  0.00    +0.000 C 
ATOM     31  C   UNL     1       5.021   3.892  16.770  0.00  0.00    +0.000 C 
ATOM     32  N   UNL     1       6.067   4.901  17.059  0.00  0.00    +0.000 NA
ATOM     33  C   UNL     1       6.821   5.219  15.831  0.00  0.00    +0.000 C 
ATOM     34  C   UNL     1       5.636   6.149  17.712  0.00  0.00    +0.000 C 
ATOM     35  C   UNL     1       4.341   6.697  17.137  0.00  0.00    +0.000 C 
ENDBRANCH  25  28
ENDBRANCH   2  22
TORSDOF 5
ENDMDL
MODEL 9
REMARK VINA RESULT:      -8.1      1.309      1.977
REMARK  Name = 
REMARK  7 active torsions:
REMARK  status: ('A' for Active; 'I' for Inactive)
REMARK    1  A    between atoms: C_1  and  C_2
REMARK    2  A    between atoms: C_7  and  N_8
REMARK    3  A    between atoms: C_9  and  C_11
REMARK    4  A    between atoms: C_16  and  N_17
REMARK    5  A    between atoms: C_18  and  C_20
REMARK    6  A    between atoms: C_23  and  N_24
REMARK    7  A    between atoms: N_28  and  C_29
REMARK                            x       y       z     vdW  Elec       q    Type
REMARK                         _______ _______ _______ _____ _____    ______ ____
ROOT
ATOM      1  N   UNL     1       0.373  11.223  21.203  0.00  0.00    +0.000 N 
ATOM      2  C   UNL     1       0.004  10.399  20.161  0.00  0.00    +0.000 C 
ATOM      3  O   UNL     1      -1.104  10.457  19.666  0.00  0.00    +0.000 OA
ATOM      4  H   UNL     1       1.317  11.083  21.561  0.00  0.00    +0.000 HD
ENDROOT
BRANCH   1  10
ATOM      5  C   UNL     1      -0.427  13.623  21.414  0.00  0.00    +0.000 A 
ATOM      6  C   UNL     1      -1.196  14.557  22.156  0.00  0.00    +0.000 A 
ATOM      7  C   UNL     1      -1.992  14.165  23.227  0.00  0.00    +0.000 A 
ATOM      8  C   UNL     1      -2.069  12.837  23.583  0.00  0.00    +0.000 A 
ATOM      9  C   UNL     1      -1.324  11.892  22.905  0.00  0.00    +0.000 A 
ATOM     10  C   UNL     1      -0.455  12.236  21.831  0.00  0.00    +0.000 A 
BRANCH   5  12
ATOM     11  N   UNL     1       1.020  15.334  20.243  0.00  0.00    +0.000 N 
ATOM     12  C   UNL     1       0.327  14.148  20.204  0.00  0.00    +0.000 C 
ATOM     13  O   UNL     1       0.291  13.511  19.168  0.00  0.00    +0.000 OA
ATOM     14  H   UNL     1       1.131  15.789  21.154  0.00  0.00    +0.000 HD
BRANCH  11  21
ATOM     15  C   UNL     1      -0.450  17.549  18.781  0.00  0.00    +0.000 C 
ATOM     16  C   UNL     1       0.908  17.019  18.387  0.00  0.00    +0.000 A 
ATOM     17  C   UNL     1       1.490  17.601  17.246  0.00  0.00    +0.000 A 
ATOM     18  C   UNL     1       2.756  17.220  16.812  0.00  0.00    +0.000 A 
ATOM     19  C   UNL     1       3.459  16.243  17.503  0.00  0.00    +0.000 A 
ATOM     20  C   UNL     1       2.904  15.641  18.631  0.00  0.00    +0.000 A 
ATOM     21  C   UNL     1       1.620  16.010  19.111  0.00  0.00    +0.000 A 
ENDBRANCH  11  21
ENDBRANCH   5  12
ENDBRANCH   1  10
BRANCH   2  22
ATOM     22  C   UNL     1       0.937   9.416  19.562  0.00  0.00    +0.000 A 
ATOM     23  C   UNL     1       1.382   9.497  18.237  0.00  0.00    +0.000 A 
ATOM     24  C   UNL     1       2.204   8.504  17.720  0.00  0.00    +0.000 A 
ATOM     25  C   UNL     1       2.588   7.391  18.503  0.00  0.00    +0.000 A 
ATOM     26  C   UNL     1       2.181   7.347  19.842  0.00  0.00    +0.000 A 
ATOM     27  C   UNL     1       1.374   8.346  20.365  0.00  0.00    +0.000 A 
BRANCH  25  28
ATOM     28  N   UNL     1       3.299   6.296  17.909  0.00  0.00    +0.000 N 
ATOM     29  C   UNL     1       2.711   4.967  17.783  0.00  0.00    +0.000 C 
ATOM     30  C   UNL     1       3.666   3.822  18.182  0.00  0.00    +0.000 C 
ATOM     31  C   UNL     1       4.888   3.704  17.249  0.00  0.00    +0.000 C 
ATOM     32  N   UNL     1       6.023   4.600  17.575  0.00  0.00    +0.000 NA
ATOM     33  C   UNL     1       6.950   4.683  16.429  0.00  0.00    +0.000 C 
ATOM     34  C   UNL     1       5.695   5.957  18.045  0.00  0.00    +0.000 C 
ATOM     35  C   UNL     1       4.563   6.595  17.259  0.00  0.00    +0.000 C 
ENDBRANCH  25  28
ENDBRANCH   2  22
TORSDOF 5
ENDMDL
