MODEL 1
REMARK VINA RESULT:      -8.4      0.000      0.000
REMARK  Name = 
REMARK  7 active torsions:
REMARK  status: ('A' for Active; 'I' for Inactive)
REMARK    1  A    between atoms: C_1  and  C_2
REMARK    2  A    between atoms: C_3  and  C_4
REMARK    3  A    between atoms: N_6  and  C_7
REMARK    4  A    between atoms: C_7  and  N_9
REMARK    5  A    between atoms: N_9  and  C_10
REMARK    6  A    between atoms: C_13  and  N_14
REMARK    7  A    between atoms: C_15  and  C_17
REMARK                            x       y       z     vdW  Elec       q    Type
REMARK                         _______ _______ _______ _____ _____    ______ ____
ROOT
ATOM      1  N   UNL     1       5.916   4.277  18.494  0.00  0.00    +0.000 N 
ATOM      2  H   UNL     1       6.419   3.480  18.115  0.00  0.00    +0.000 HD
ENDROOT
BRANCH   1   3
ATOM      3  C   UNL     1       6.555   5.529  18.382  0.00  0.00    +0.000 A 
ATOM      4  C   UNL     1       7.699   5.834  19.114  0.00  0.00    +0.000 A 
ATOM      5  C   UNL     1       8.346   7.059  18.948  0.00  0.00    +0.000 A 
ATOM      6  C   UNL     1       7.868   8.003  18.043  0.00  0.00    +0.000 A 
ATOM      7  C   UNL     1       6.716   7.698  17.305  0.00  0.00    +0.000 A 
ATOM      8  C   UNL     1       6.075   6.458  17.458  0.00  0.00    +0.000 A 
BRANCH   6   9
ATOM      9  N   UNL     1       8.507   9.238  17.800  0.00  0.00    +0.000 N 
ATOM     10  C   UNL     1       9.006  10.129  18.743  0.00  0.00    +0.000 C 
ATOM     11  O   UNL     1       8.877   9.995  19.957  0.00  0.00    +0.000 OA
ATOM     12  H   UNL     1       8.669   9.490  16.833  0.00  0.00    +0.000 HD
BRANCH  10  13
ATOM     13  C   UNL     1       9.732  11.276  18.203  0.00  0.00    +0.000 A 
ATOM     14  C   UNL     1      11.097  11.336  17.975  0.00  0.00    +0.000 A 
ATOM     15  C   UNL     1      11.507  12.578  17.414  0.00  0.00    +0.000 A 
ATOM     16  C   UNL     1      10.444  13.432  17.233  0.00  0.00    +0.000 A 
ATOM     17  S   UNL     1       8.967  12.737  17.743  0.00  0.00    +0.000 S 
ENDBRANCH  10  13
ENDBRANCH   6   9
ENDBRANCH   1   3
BRANCH   1  18
ATOM     18  C   UNL     1       4.821   3.957  19.274  0.00  0.00    +0.000 C 
ATOM     19  S   UNL     1       4.598   2.361  19.698  0.00  0.00    +0.000 S 
BRANCH  18  22
ATOM     20  C   UNL     1       2.591   5.177  19.410  0.00  0.00    +0.000 C 
ATOM     21  O   UNL     1       1.806   4.268  19.172  0.00  0.00    +0.000 OA
ATOM     22  N   UNL     1       3.973   5.024  19.531  0.00  0.00    +0.000 N 
ATOM     23  H   UNL     1       4.448   5.896  19.729  0.00  0.00    +0.000 HD
BRANCH  20  26
ATOM     24  C   UNL     1       2.780   7.858  17.488  0.00  0.00    +0.000 C 
ATOM     25  C   UNL     1       2.226   7.698  18.858  0.00  0.00    +0.000 A 
ATOM     26  C   UNL     1       2.171   6.553  19.642  0.00  0.00    +0.000 A 
ATOM     27  O   UNL     1       1.575   6.849  20.847  0.00  0.00    +0.000 OA
ATOM     28  C   UNL     1       1.252   8.170  20.836  0.00  0.00    +0.000 A 
ATOM     29  C   UNL     1       0.621   8.861  21.869  0.00  0.00    +0.000 A 
ATOM     30  C   UNL     1       0.381  10.222  21.653  0.00  0.00    +0.000 A 
ATOM     31  C   UNL     1       0.762  10.843  20.460  0.00  0.00    +0.000 A 
ATOM     32  C   UNL     1       1.393  10.118  19.440  0.00  0.00    +0.000 A 
ATOM     33  C   UNL     1       1.640   8.746  19.634  0.00  0.00    +0.000 A 
ENDBRANCH  20  26
ENDBRANCH  18  22
ENDBRANCH   1  18
TORSDOF 6
ENDMDL
MODEL 2
REMARK VINA RESULT:      -8.3      3.911      7.931
REMARK  Name = 
REMARK  7 active torsions:
REMARK  status: ('A' for Active; 'I' for Inactive)
REMARK    1  A    between atoms: C_1  and  C_2
REMARK    2  A    between atoms: C_3  and  C_4
REMARK    3  A    between atoms: N_6  and  C_7
REMARK    4  A    between atoms: C_7  and  N_9
REMARK    5  A    between atoms: N_9  and  C_10
REMARK    6  A    between atoms: C_13  and  N_14
REMARK    7  A    between atoms: C_15  and  C_17
REMARK                            x       y       z     vdW  Elec       q    Type
REMARK                         _______ _______ _______ _____ _____    ______ ____
ROOT
ATOM      1  N   UNL     1       2.737   4.839  19.728  0.00  0.00    +0.000 N 
ATOM      2  H   UNL     1       2.923   4.487  20.662  0.00  0.00    +0.000 HD
ENDROOT
BRANCH   1   3
ATOM      3  C   UNL     1       2.306   6.179  19.640  0.00  0.00    +0.000 A 
ATOM      4  C   UNL     1       1.707   6.826  20.718  0.00  0.00    +0.000 A 
ATOM      5  C   UNL     1       1.337   8.169  20.627  0.00  0.00    +0.000 A 
ATOM      6  C   UNL     1       1.562   8.896  19.461  0.00  0.00    +0.000 A 
ATOM      7  C   UNL     1       2.165   8.246  18.375  0.00  0.00    +0.000 A 
ATOM      8  C   UNL     1       2.556   6.900  18.471  0.00  0.00    +0.000 A 
BRANCH   6   9
ATOM      9  N   UNL     1       1.251  10.266  19.328  0.00  0.00    +0.000 N 
ATOM     10  C   UNL     1      -0.007  10.833  19.164  0.00  0.00    +0.000 C 
ATOM     11  O   UNL     1      -1.042  10.188  19.023  0.00  0.00    +0.000 OA
ATOM     12  H   UNL     1       2.019  10.921  19.410  0.00  0.00    +0.000 HD
BRANCH  10  13
ATOM     13  C   UNL     1      -0.046  12.293  19.179  0.00  0.00    +0.000 A 
ATOM     14  C   UNL     1      -1.072  13.071  19.690  0.00  0.00    +0.000 A 
ATOM     15  C   UNL     1      -0.808  14.466  19.587  0.00  0.00    +0.000 A 
ATOM     16  C   UNL     1       0.410  14.713  18.998  0.00  0.00    +0.000 A 
ATOM     17  S   UNL     1       1.221  13.270  18.568  0.00  0.00    +0.000 S 
ENDBRANCH  10  13
ENDBRANCH   6   9
ENDBRANCH   1   3
BRANCH   1  18
ATOM     18  C   UNL     1       2.693   3.875  18.739  0.00  0.00    +0.000 C 
ATOM     19  S   UNL     1       1.547   2.672  18.866  0.00  0.00    +0.000 S 
BRANCH  18  22
ATOM     20  C   UNL     1       5.081   4.159  17.904  0.00  0.00    +0.000 C 
ATOM     21  O   UNL     1       5.710   4.100  18.952  0.00  0.00    +0.000 OA
ATOM     22  N   UNL     1       3.701   3.983  17.793  0.00  0.00    +0.000 N 
ATOM     23  H   UNL     1       3.371   4.070  16.840  0.00  0.00    +0.000 HD
BRANCH  20  26
ATOM     24  C   UNL     1       7.373   6.342  16.955  0.00  0.00    +0.000 C 
ATOM     25  C   UNL     1       6.679   5.283  16.177  0.00  0.00    +0.000 A 
ATOM     26  C   UNL     1       5.710   4.384  16.609  0.00  0.00    +0.000 A 
ATOM     27  O   UNL     1       5.336   3.574  15.562  0.00  0.00    +0.000 OA
ATOM     28  C   UNL     1       6.056   3.949  14.470  0.00  0.00    +0.000 A 
ATOM     29  C   UNL     1       5.978   3.365  13.207  0.00  0.00    +0.000 A 
ATOM     30  C   UNL     1       6.808   3.905  12.219  0.00  0.00    +0.000 A 
ATOM     31  C   UNL     1       7.663   4.975  12.498  0.00  0.00    +0.000 A 
ATOM     32  C   UNL     1       7.718   5.537  13.781  0.00  0.00    +0.000 A 
ATOM     33  C   UNL     1       6.895   5.006  14.791  0.00  0.00    +0.000 A 
ENDBRANCH  20  26
ENDBRANCH  18  22
ENDBRANCH   1  18
TORSDOF 6
ENDMDL
MODEL 3
REMARK VINA RESULT:      -8.1      4.162      8.233
REMARK  Name = 
REMARK  7 active torsions:
REMARK  status: ('A' for Active; 'I' for Inactive)
REMARK    1  A    between atoms: C_1  and  C_2
REMARK    2  A    between atoms: C_3  and  C_4
REMARK    3  A    between atoms: N_6  and  C_7
REMARK    4  A    between atoms: C_7  and  N_9
REMARK    5  A    between atoms: N_9  and  C_10
REMARK    6  A    between atoms: C_13  and  N_14
REMARK    7  A    between atoms: C_15  and  C_17
REMARK                            x       y       z     vdW  Elec       q    Type
REMARK                         _______ _______ _______ _____ _____    ______ ____
ROOT
ATOM      1  N   UNL     1       2.826   5.626  19.743  0.00  0.00    +0.000 N 
ATOM      2  H   UNL     1       3.317   5.305  20.572  0.00  0.00    +0.000 HD
ENDROOT
BRANCH   1   3
ATOM      3  C   UNL     1       2.230   6.901  19.824  0.00  0.00    +0.000 A 
ATOM      4  C   UNL     1       2.261   7.792  18.755  0.00  0.00    +0.000 A 
ATOM      5  C   UNL     1       1.618   9.028  18.837  0.00  0.00    +0.000 A 
ATOM      6  C   UNL     1       0.926   9.399  19.988  0.00  0.00    +0.000 A 
ATOM      7  C   UNL     1       0.894   8.503  21.065  0.00  0.00    +0.000 A 
ATOM      8  C   UNL     1       1.525   7.251  20.977  0.00  0.00    +0.000 A 
BRANCH   6   9
ATOM      9  N   UNL     1       0.220  10.614  20.110  0.00  0.00    +0.000 N 
ATOM     10  C   UNL     1       0.661  11.789  20.708  0.00  0.00    +0.000 C 
ATOM     11  O   UNL     1       1.729  11.902  21.304  0.00  0.00    +0.000 OA
ATOM     12  H   UNL     1      -0.692  10.662  19.674  0.00  0.00    +0.000 HD
BRANCH  10  13
ATOM     13  C   UNL     1      -0.236  12.935  20.580  0.00  0.00    +0.000 A 
ATOM     14  C   UNL     1       0.070  14.138  19.965  0.00  0.00    +0.000 A 
ATOM     15  C   UNL     1      -1.020  15.053  19.973  0.00  0.00    +0.000 A 
ATOM     16  C   UNL     1      -2.126  14.524  20.597  0.00  0.00    +0.000 A 
ATOM     17  S   UNL     1      -1.842  12.938  21.172  0.00  0.00    +0.000 S 
ENDBRANCH  10  13
ENDBRANCH   6   9
ENDBRANCH   1   3
BRANCH   1  18
ATOM     18  C   UNL     1       2.612   4.657  18.782  0.00  0.00    +0.000 C 
ATOM     19  S   UNL     1       1.294   3.653  18.959  0.00  0.00    +0.000 S 
BRANCH  18  22
ATOM     20  C   UNL     1       4.983   4.372  17.900  0.00  0.00    +0.000 C 
ATOM     21  O   UNL     1       5.580   4.050  18.919  0.00  0.00    +0.000 OA
ATOM     22  N   UNL     1       3.606   4.581  17.817  0.00  0.00    +0.000 N 
ATOM     23  H   UNL     1       3.305   4.842  16.887  0.00  0.00    +0.000 HD
BRANCH  20  26
ATOM     24  C   UNL     1       7.412   6.404  16.956  0.00  0.00    +0.000 C 
ATOM     25  C   UNL     1       6.666   5.378  16.182  0.00  0.00    +0.000 A 
ATOM     26  C   UNL     1       5.641   4.544  16.611  0.00  0.00    +0.000 A 
ATOM     27  O   UNL     1       5.233   3.743  15.570  0.00  0.00    +0.000 OA
ATOM     28  C   UNL     1       5.988   4.060  14.483  0.00  0.00    +0.000 A 
ATOM     29  C   UNL     1       5.893   3.465  13.226  0.00  0.00    +0.000 A 
ATOM     30  C   UNL     1       6.767   3.943  12.243  0.00  0.00    +0.000 A 
ATOM     31  C   UNL     1       7.679   4.964  12.521  0.00  0.00    +0.000 A 
ATOM     32  C   UNL     1       7.750   5.539  13.797  0.00  0.00    +0.000 A 
ATOM     33  C   UNL     1       6.884   5.071  14.803  0.00  0.00    +0.000 A 
ENDBRANCH  20  26
ENDBRANCH  18  22
ENDBRANCH   1  18
TORSDOF 6
ENDMDL
MODEL 4
REMARK VINA RESULT:      -8.1      0.544      1.031
REMARK  Name = 
REMARK  7 active torsions:
REMARK  status: ('A' for Active; 'I' for Inactive)
REMARK    1  A    between atoms: C_1  and  C_2
REMARK    2  A    between atoms: C_3  and  C_4
REMARK    3  A    between atoms: N_6  and  C_7
REMARK    4  A    between atoms: C_7  and  N_9
REMARK    5  A    between atoms: N_9  and  C_10
REMARK    6  A    between atoms: C_13  and  N_14
REMARK    7  A    between atoms: C_15  and  C_17
REMARK                            x       y       z     vdW  Elec       q    Type
REMARK                         _______ _______ _______ _____ _____    ______ ____
ROOT
ATOM      1  N   UNL     1       5.913   4.237  18.562  0.00  0.00    +0.000 N 
ATOM      2  H   UNL     1       6.509   3.488  18.900  0.00  0.00    +0.000 HD
ENDROOT
BRANCH   1   3
ATOM      3  C   UNL     1       6.553   5.461  18.274  0.00  0.00    +0.000 A 
ATOM      4  C   UNL     1       6.077   6.320  17.287  0.00  0.00    +0.000 A 
ATOM      5  C   UNL     1       6.693   7.551  17.055  0.00  0.00    +0.000 A 
ATOM      6  C   UNL     1       7.793   7.953  17.809  0.00  0.00    +0.000 A 
ATOM      7  C   UNL     1       8.273   7.089  18.803  0.00  0.00    +0.000 A 
ATOM      8  C   UNL     1       7.643   5.858  19.050  0.00  0.00    +0.000 A 
BRANCH   6   9
ATOM      9  N   UNL     1       8.427   9.203  17.650  0.00  0.00    +0.000 N 
ATOM     10  C   UNL     1       8.952  10.015  18.648  0.00  0.00    +0.000 C 
ATOM     11  O   UNL     1       8.857   9.782  19.850  0.00  0.00    +0.000 OA
ATOM     12  H   UNL     1       8.562   9.534  16.702  0.00  0.00    +0.000 HD
BRANCH  10  13
ATOM     13  C   UNL     1       9.665  11.203  18.183  0.00  0.00    +0.000 A 
ATOM     14  C   UNL     1      11.030  11.297  17.970  0.00  0.00    +0.000 A 
ATOM     15  C   UNL     1      11.425  12.577  17.487  0.00  0.00    +0.000 A 
ATOM     16  C   UNL     1      10.350  13.424  17.350  0.00  0.00    +0.000 A 
ATOM     17  S   UNL     1       8.881  12.678  17.806  0.00  0.00    +0.000 S 
ENDBRANCH  10  13
ENDBRANCH   6   9
ENDBRANCH   1   3
BRANCH   1  18
ATOM     18  C   UNL     1       4.557   4.006  18.688  0.00  0.00    +0.000 C 
ATOM     19  S   UNL     1       3.965   2.524  18.209  0.00  0.00    +0.000 S 
BRANCH  18  22
ATOM     20  C   UNL     1       2.812   5.247  20.065  0.00  0.00    +0.000 C 
ATOM     21  O   UNL     1       2.457   4.374  20.845  0.00  0.00    +0.000 OA
ATOM     22  N   UNL     1       3.829   5.105  19.120  0.00  0.00    +0.000 N 
ATOM     23  H   UNL     1       3.972   5.942  18.569  0.00  0.00    +0.000 HD
BRANCH  20  26
ATOM     24  C   UNL     1       2.861   7.608  17.753  0.00  0.00    +0.000 C 
ATOM     25  C   UNL     1       2.228   7.597  19.098  0.00  0.00    +0.000 A 
ATOM     26  C   UNL     1       2.235   6.585  20.050  0.00  0.00    +0.000 A 
ATOM     27  O   UNL     1       1.526   6.991  21.157  0.00  0.00    +0.000 OA
ATOM     28  C   UNL     1       1.068   8.250  20.917  0.00  0.00    +0.000 A 
ATOM     29  C   UNL     1       0.295   9.014  21.790  0.00  0.00    +0.000 A 
ATOM     30  C   UNL     1      -0.069  10.290  21.346  0.00  0.00    +0.000 A 
ATOM     31  C   UNL     1       0.332  10.761  20.093  0.00  0.00    +0.000 A 
ATOM     32  C   UNL     1       1.108   9.966  19.239  0.00  0.00    +0.000 A 
ATOM     33  C   UNL     1       1.481   8.677  19.663  0.00  0.00    +0.000 A 
ENDBRANCH  20  26
ENDBRANCH  18  22
ENDBRANCH   1  18
TORSDOF 6
ENDMDL
MODEL 5
REMARK VINA RESULT:      -7.9      1.296      1.373
REMARK  Name = 
REMARK  7 active torsions:
REMARK  status: ('A' for Active; 'I' for Inactive)
REMARK    1  A    between atoms: C_1  and  C_2
REMARK    2  A    between atoms: C_3  and  C_4
REMARK    3  A    between atoms: N_6  and  C_7
REMARK    4  A    between atoms: C_7  and  N_9
REMARK    5  A    between atoms: N_9  and  C_10
REMARK    6  A    between atoms: C_13  and  N_14
REMARK    7  A    between atoms: C_15  and  C_17
REMARK                            x       y       z     vdW  Elec       q    Type
REMARK                         _______ _______ _______ _____ _____    ______ ____
ROOT
ATOM      1  N   UNL     1       5.134   4.333  17.395  0.00  0.00    +0.000 N 
ATOM      2  H   UNL     1       5.540   3.534  16.918  0.00  0.00    +0.000 HD
ENDROOT
BRANCH   1   3
ATOM      3  C   UNL     1       6.028   5.360  17.764  0.00  0.00    +0.000 A 
ATOM      4  C   UNL     1       6.886   5.226  18.852  0.00  0.00    +0.000 A 
ATOM      5  C   UNL     1       7.800   6.232  19.168  0.00  0.00    +0.000 A 
ATOM      6  C   UNL     1       7.882   7.390  18.399  0.00  0.00    +0.000 A 
ATOM      7  C   UNL     1       7.019   7.527  17.303  0.00  0.00    +0.000 A 
ATOM      8  C   UNL     1       6.111   6.507  16.973  0.00  0.00    +0.000 A 
BRANCH   6   9
ATOM      9  N   UNL     1       8.817   8.419  18.643  0.00  0.00    +0.000 N 
ATOM     10  C   UNL     1       8.672   9.773  18.367  0.00  0.00    +0.000 C 
ATOM     11  O   UNL     1       7.710  10.259  17.778  0.00  0.00    +0.000 OA
ATOM     12  H   UNL     1       9.674   8.158  19.115  0.00  0.00    +0.000 HD
BRANCH  10  13
ATOM     13  C   UNL     1       9.755  10.631  18.842  0.00  0.00    +0.000 A 
ATOM     14  C   UNL     1      10.810  11.102  18.077  0.00  0.00    +0.000 A 
ATOM     15  C   UNL     1      11.692  11.941  18.814  0.00  0.00    +0.000 A 
ATOM     16  C   UNL     1      11.287  12.084  20.120  0.00  0.00    +0.000 A 
ATOM     17  S   UNL     1       9.858  11.206  20.451  0.00  0.00    +0.000 S 
ENDBRANCH  10  13
ENDBRANCH   6   9
ENDBRANCH   1   3
BRANCH   1  18
ATOM     18  C   UNL     1       3.832   4.158  17.822  0.00  0.00    +0.000 C 
ATOM     19  S   UNL     1       3.061   2.734  17.428  0.00  0.00    +0.000 S 
BRANCH  18  22
ATOM     20  C   UNL     1       2.791   5.454  19.749  0.00  0.00    +0.000 C 
ATOM     21  O   UNL     1       2.892   4.646  20.664  0.00  0.00    +0.000 OA
ATOM     22  N   UNL     1       3.287   5.262  18.459  0.00  0.00    +0.000 N 
ATOM     23  H   UNL     1       3.102   6.047  17.847  0.00  0.00    +0.000 HD
BRANCH  20  26
ATOM     24  C   UNL     1       2.764   8.101  17.772  0.00  0.00    +0.000 C 
ATOM     25  C   UNL     1       2.123   7.888  19.095  0.00  0.00    +0.000 A 
ATOM     26  C   UNL     1       2.162   6.760  19.905  0.00  0.00    +0.000 A 
ATOM     27  O   UNL     1       1.431   6.988  21.048  0.00  0.00    +0.000 OA
ATOM     28  C   UNL     1       0.927   8.250  20.972  0.00  0.00    +0.000 A 
ATOM     29  C   UNL     1       0.119   8.861  21.929  0.00  0.00    +0.000 A 
ATOM     30  C   UNL     1      -0.291  10.171  21.654  0.00  0.00    +0.000 A 
ATOM     31  C   UNL     1       0.099  10.819  20.479  0.00  0.00    +0.000 A 
ATOM     32  C   UNL     1       0.911  10.174  19.536  0.00  0.00    +0.000 A 
ATOM     33  C   UNL     1       1.331   8.854  19.790  0.00  0.00    +0.000 A 
ENDBRANCH  20  26
ENDBRANCH  18  22
ENDBRANCH   1  18
TORSDOF 6
ENDMDL
MODEL 6
REMARK VINA RESULT:      -7.8      4.275      7.873
REMARK  Name = 
REMARK  7 active torsions:
REMARK  status: ('A' for Active; 'I' for Inactive)
REMARK    1  A    between atoms: C_1  and  C_2
REMARK    2  A    between atoms: C_3  and  C_4
REMARK    3  A    between atoms: N_6  and  C_7
REMARK    4  A    between atoms: C_7  and  N_9
REMARK    5  A    between atoms: N_9  and  C_10
REMARK    6  A    between atoms: C_13  and  N_14
REMARK    7  A    between atoms: C_15  and  C_17
REMARK                            x       y       z     vdW  Elec       q    Type
REMARK                         _______ _______ _______ _____ _____    ______ ____
ROOT
ATOM      1  N   UNL     1       2.532   5.942  20.393  0.00  0.00    +0.000 N 
ATOM      2  H   UNL     1       3.018   5.747  21.263  0.00  0.00    +0.000 HD
ENDROOT
BRANCH   1   3
ATOM      3  C   UNL     1       1.927   7.211  20.287  0.00  0.00    +0.000 A 
ATOM      4  C   UNL     1       1.181   7.755  21.330  0.00  0.00    +0.000 A 
ATOM      5  C   UNL     1       0.635   9.035  21.224  0.00  0.00    +0.000 A 
ATOM      6  C   UNL     1       0.828   9.802  20.078  0.00  0.00    +0.000 A 
ATOM      7  C   UNL     1       1.578   9.256  19.027  0.00  0.00    +0.000 A 
ATOM      8  C   UNL     1       2.144   7.976  19.140  0.00  0.00    +0.000 A 
BRANCH   6   9
ATOM      9  N   UNL     1       0.340  11.118  19.934  0.00  0.00    +0.000 N 
ATOM     10  C   UNL     1       0.937  12.292  20.379  0.00  0.00    +0.000 C 
ATOM     11  O   UNL     1       1.962  12.334  21.053  0.00  0.00    +0.000 OA
ATOM     12  H   UNL     1      -0.517  11.236  19.407  0.00  0.00    +0.000 HD
BRANCH  10  13
ATOM     13  C   UNL     1       0.267  13.528  19.981  0.00  0.00    +0.000 A 
ATOM     14  C   UNL     1       0.658  14.366  18.949  0.00  0.00    +0.000 A 
ATOM     15  C   UNL     1      -0.212  15.480  18.785  0.00  0.00    +0.000 A 
ATOM     16  C   UNL     1      -1.240  15.463  19.698  0.00  0.00    +0.000 A 
ATOM     17  S   UNL     1      -1.147  14.115  20.747  0.00  0.00    +0.000 S 
ENDBRANCH  10  13
ENDBRANCH   6   9
ENDBRANCH   1   3
BRANCH   1  18
ATOM     18  C   UNL     1       2.334   4.844  19.578  0.00  0.00    +0.000 C 
ATOM     19  S   UNL     1       1.064   3.824  19.929  0.00  0.00    +0.000 S 
BRANCH  18  22
ATOM     20  C   UNL     1       4.577   4.104  18.628  0.00  0.00    +0.000 C 
ATOM     21  O   UNL     1       5.036   3.467  19.568  0.00  0.00    +0.000 OA
ATOM     22  N   UNL     1       3.304   4.677  18.601  0.00  0.00    +0.000 N 
ATOM     23  H   UNL     1       3.112   5.163  17.734  0.00  0.00    +0.000 HD
BRANCH  20  26
ATOM     24  C   UNL     1       7.448   5.618  18.009  0.00  0.00    +0.000 C 
ATOM     25  C   UNL     1       6.506   4.935  17.084  0.00  0.00    +0.000 A 
ATOM     26  C   UNL     1       5.298   4.314  17.380  0.00  0.00    +0.000 A 
ATOM     27  O   UNL     1       4.746   3.809  16.225  0.00  0.00    +0.000 OA
ATOM     28  C   UNL     1       5.590   4.104  15.199  0.00  0.00    +0.000 A 
ATOM     29  C   UNL     1       5.397   3.755  13.863  0.00  0.00    +0.000 A 
ATOM     30  C   UNL     1       6.391   4.159  12.965  0.00  0.00    +0.000 A 
ATOM     31  C   UNL     1       7.510   4.875  13.398  0.00  0.00    +0.000 A 
ATOM     32  C   UNL     1       7.674   5.207  14.750  0.00  0.00    +0.000 A 
ATOM     33  C   UNL     1       6.689   4.807  15.672  0.00  0.00    +0.000 A 
ENDBRANCH  20  26
ENDBRANCH  18  22
ENDBRANCH   1  18
TORSDOF 6
ENDMDL
MODEL 7
REMARK VINA RESULT:      -7.7      3.916      7.730
REMARK  Name = 
REMARK  7 active torsions:
REMARK  status: ('A' for Active; 'I' for Inactive)
REMARK    1  A    between atoms: C_1  and  C_2
REMARK    2  A    between atoms: C_3  and  C_4
REMARK    3  A    between atoms: N_6  and  C_7
REMARK    4  A    between atoms: C_7  and  N_9
REMARK    5  A    between atoms: N_9  and  C_10
REMARK    6  A    between atoms: C_13  and  N_14
REMARK    7  A    between atoms: C_15  and  C_17
REMARK                            x       y       z     vdW  Elec       q    Type
REMARK                         _______ _______ _______ _____ _____    ______ ____
ROOT
ATOM      1  N   UNL     1       2.256   4.208  19.178  0.00  0.00    +0.000 N 
ATOM      2  H   UNL     1       1.418   3.708  18.897  0.00  0.00    +0.000 HD
ENDROOT
BRANCH   1   3
ATOM      3  C   UNL     1       2.159   5.614  19.222  0.00  0.00    +0.000 A 
ATOM      4  C   UNL     1       2.378   6.397  18.091  0.00  0.00    +0.000 A 
ATOM      5  C   UNL     1       2.225   7.784  18.143  0.00  0.00    +0.000 A 
ATOM      6  C   UNL     1       1.844   8.417  19.324  0.00  0.00    +0.000 A 
ATOM      7  C   UNL     1       1.624   7.630  20.463  0.00  0.00    +0.000 A 
ATOM      8  C   UNL     1       1.759   6.233  20.407  0.00  0.00    +0.000 A 
BRANCH   6   9
ATOM      9  N   UNL     1       1.629   9.808  19.423  0.00  0.00    +0.000 N 
ATOM     10  C   UNL     1       0.530  10.526  18.968  0.00  0.00    +0.000 C 
ATOM     11  O   UNL     1      -0.393  10.040  18.321  0.00  0.00    +0.000 OA
ATOM     12  H   UNL     1       2.325  10.346  19.925  0.00  0.00    +0.000 HD
BRANCH  10  13
ATOM     13  C   UNL     1       0.516  11.944  19.318  0.00  0.00    +0.000 A 
ATOM     14  C   UNL     1       0.986  12.980  18.527  0.00  0.00    +0.000 A 
ATOM     15  C   UNL     1       0.809  14.257  19.129  0.00  0.00    +0.000 A 
ATOM     16  C   UNL     1       0.212  14.160  20.364  0.00  0.00    +0.000 A 
ATOM     17  S   UNL     1      -0.123  12.538  20.791  0.00  0.00    +0.000 S 
ENDBRANCH  10  13
ENDBRANCH   6   9
ENDBRANCH   1   3
BRANCH   1  18
ATOM     18  C   UNL     1       3.405   3.442  19.218  0.00  0.00    +0.000 C 
ATOM     19  S   UNL     1       3.631   2.434  20.526  0.00  0.00    +0.000 S 
BRANCH  18  22
ATOM     20  C   UNL     1       5.555   4.283  18.147  0.00  0.00    +0.000 C 
ATOM     21  O   UNL     1       6.213   4.584  19.135  0.00  0.00    +0.000 OA
ATOM     22  N   UNL     1       4.292   3.690  18.182  0.00  0.00    +0.000 N 
ATOM     23  H   UNL     1       3.913   3.521  17.259  0.00  0.00    +0.000 HD
BRANCH  20  26
ATOM     24  C   UNL     1       7.578   6.554  16.854  0.00  0.00    +0.000 C 
ATOM     25  C   UNL     1       6.885   5.408  16.208  0.00  0.00    +0.000 A 
ATOM     26  C   UNL     1       6.032   4.475  16.784  0.00  0.00    +0.000 A 
ATOM     27  O   UNL     1       5.612   3.583  15.824  0.00  0.00    +0.000 OA
ATOM     28  C   UNL     1       6.190   3.940  14.645  0.00  0.00    +0.000 A 
ATOM     29  C   UNL     1       6.027   3.280  13.428  0.00  0.00    +0.000 A 
ATOM     30  C   UNL     1       6.712   3.817  12.332  0.00  0.00    +0.000 A 
ATOM     31  C   UNL     1       7.512   4.955  12.466  0.00  0.00    +0.000 A 
ATOM     32  C   UNL     1       7.656   5.592  13.706  0.00  0.00    +0.000 A 
ATOM     33  C   UNL     1       6.979   5.067  14.823  0.00  0.00    +0.000 A 
ENDBRANCH  20  26
ENDBRANCH  18  22
ENDBRANCH   1  18
TORSDOF 6
ENDMDL
MODEL 8
REMARK VINA RESULT:      -7.7      4.124      8.901
REMARK  Name = 
REMARK  7 active torsions:
REMARK  status: ('A' for Active; 'I' for Inactive)
REMARK    1  A    between atoms: C_1  and  C_2
REMARK    2  A    between atoms: C_3  and  C_4
REMARK    3  A    between atoms: N_6  and  C_7
REMARK    4  A    between atoms: C_7  and  N_9
REMARK    5  A    between atoms: N_9  and  C_10
REMARK    6  A    between atoms: C_13  and  N_14
REMARK    7  A    between atoms: C_15  and  C_17
REMARK                            x       y       z     vdW  Elec       q    Type
REMARK                         _______ _______ _______ _____ _____    ______ ____
ROOT
ATOM      1  N   UNL     1       2.932   6.690  19.911  0.00  0.00    +0.000 N 
ATOM      2  H   UNL     1       3.812   6.818  20.401  0.00  0.00    +0.000 HD
ENDROOT
BRANCH   1   3
ATOM      3  C   UNL     1       1.951   7.682  20.121  0.00  0.00    +0.000 A 
ATOM      4  C   UNL     1       1.288   7.808  21.340  0.00  0.00    +0.000 A 
ATOM      5  C   UNL     1       0.359   8.829  21.544  0.00  0.00    +0.000 A 
ATOM      6  C   UNL     1       0.078   9.751  20.539  0.00  0.00    +0.000 A 
ATOM      7  C   UNL     1       0.744   9.625  19.312  0.00  0.00    +0.000 A 
ATOM      8  C   UNL     1       1.692   8.609  19.111  0.00  0.00    +0.000 A 
BRANCH   6   9
ATOM      9  N   UNL     1      -0.816  10.830  20.705  0.00  0.00    +0.000 N 
ATOM     10  C   UNL     1      -1.033  11.576  21.857  0.00  0.00    +0.000 C 
ATOM     11  O   UNL     1      -0.519  11.331  22.945  0.00  0.00    +0.000 OA
ATOM     12  H   UNL     1      -1.326  11.135  19.885  0.00  0.00    +0.000 HD
BRANCH  10  13
ATOM     13  C   UNL     1      -1.929  12.720  21.707  0.00  0.00    +0.000 A 
ATOM     14  C   UNL     1      -3.039  12.988  22.491  0.00  0.00    +0.000 A 
ATOM     15  C   UNL     1      -3.697  14.194  22.120  0.00  0.00    +0.000 A 
ATOM     16  C   UNL     1      -3.073  14.810  21.060  0.00  0.00    +0.000 A 
ATOM     17  S   UNL     1      -1.709  13.932  20.518  0.00  0.00    +0.000 S 
ENDBRANCH  10  13
ENDBRANCH   6   9
ENDBRANCH   1   3
BRANCH   1  18
ATOM     18  C   UNL     1       2.761   5.447  19.334  0.00  0.00    +0.000 C 
ATOM     19  S   UNL     1       1.640   4.415  20.009  0.00  0.00    +0.000 S 
BRANCH  18  22
ATOM     20  C   UNL     1       4.834   4.456  18.239  0.00  0.00    +0.000 C 
ATOM     21  O   UNL     1       5.277   3.763  19.146  0.00  0.00    +0.000 OA
ATOM     22  N   UNL     1       3.639   5.175  18.296  0.00  0.00    +0.000 N 
ATOM     23  H   UNL     1       3.449   5.686  17.443  0.00  0.00    +0.000 HD
BRANCH  20  26
ATOM     24  C   UNL     1       7.328   6.392  17.263  0.00  0.00    +0.000 C 
ATOM     25  C   UNL     1       6.544   5.384  16.503  0.00  0.00    +0.000 A 
ATOM     26  C   UNL     1       5.492   4.591  16.946  0.00  0.00    +0.000 A 
ATOM     27  O   UNL     1       5.052   3.793  15.915  0.00  0.00    +0.000 OA
ATOM     28  C   UNL     1       5.813   4.072  14.821  0.00  0.00    +0.000 A 
ATOM     29  C   UNL     1       5.692   3.467  13.571  0.00  0.00    +0.000 A 
ATOM     30  C   UNL     1       6.577   3.903  12.580  0.00  0.00    +0.000 A 
ATOM     31  C   UNL     1       7.526   4.895  12.843  0.00  0.00    +0.000 A 
ATOM     32  C   UNL     1       7.622   5.481  14.112  0.00  0.00    +0.000 A 
ATOM     33  C   UNL     1       6.745   5.054  15.127  0.00  0.00    +0.000 A 
ENDBRANCH  20  26
ENDBRANCH  18  22
ENDBRANCH   1  18
TORSDOF 6
ENDMDL
MODEL 9
REMARK VINA RESULT:      -7.6      4.289      9.006
REMARK  Name = 
REMARK  7 active torsions:
REMARK  status: ('A' for Active; 'I' for Inactive)
REMARK    1  A    between atoms: C_1  and  C_2
REMARK    2  A    between atoms: C_3  and  C_4
REMARK    3  A    between atoms: N_6  and  C_7
REMARK    4  A    between atoms: C_7  and  N_9
REMARK    5  A    between atoms: N_9  and  C_10
REMARK    6  A    between atoms: C_13  and  N_14
REMARK    7  A    between atoms: C_15  and  C_17
REMARK                            x       y       z     vdW  Elec       q    Type
REMARK                         _______ _______ _______ _____ _____    ______ ____
ROOT
ATOM      1  N   UNL     1       2.975   6.607  19.329  0.00  0.00    +0.000 N 
ATOM      2  H   UNL     1       3.839   6.620  19.862  0.00  0.00    +0.000 HD
ENDROOT
BRANCH   1   3
ATOM      3  C   UNL     1       2.082   7.674  19.561  0.00  0.00    +0.000 A 
ATOM      4  C   UNL     1       1.434   7.832  20.784  0.00  0.00    +0.000 A 
ATOM      5  C   UNL     1       0.596   8.925  21.010  0.00  0.00    +0.000 A 
ATOM      6  C   UNL     1       0.391   9.886  20.022  0.00  0.00    +0.000 A 
ATOM      7  C   UNL     1       1.042   9.727  18.791  0.00  0.00    +0.000 A 
ATOM      8  C   UNL     1       1.901   8.638  18.569  0.00  0.00    +0.000 A 
BRANCH   6   9
ATOM      9  N   UNL     1      -0.407  11.034  20.211  0.00  0.00    +0.000 N 
ATOM     10  C   UNL     1      -1.617  11.330  19.594  0.00  0.00    +0.000 C 
ATOM     11  O   UNL     1      -2.127  10.647  18.710  0.00  0.00    +0.000 OA
ATOM     12  H   UNL     1      -0.098  11.700  20.908  0.00  0.00    +0.000 HD
BRANCH  10  13
ATOM     13  C   UNL     1      -2.289  12.535  20.074  0.00  0.00    +0.000 A 
ATOM     14  C   UNL     1      -3.660  12.721  20.155  0.00  0.00    +0.000 A 
ATOM     15  C   UNL     1      -4.013  13.991  20.691  0.00  0.00    +0.000 A 
ATOM     16  C   UNL     1      -2.901  14.740  21.000  0.00  0.00    +0.000 A 
ATOM     17  S   UNL     1      -1.448  13.915  20.640  0.00  0.00    +0.000 S 
ENDBRANCH  10  13
ENDBRANCH   6   9
ENDBRANCH   1   3
BRANCH   1  18
ATOM     18  C   UNL     1       2.716   5.421  18.669  0.00  0.00    +0.000 C 
ATOM     19  S   UNL     1       1.497   4.446  19.254  0.00  0.00    +0.000 S 
BRANCH  18  22
ATOM     20  C   UNL     1       4.609   4.196  17.488  0.00  0.00    +0.000 C 
ATOM     21  O   UNL     1       4.821   3.276  18.266  0.00  0.00    +0.000 OA
ATOM     22  N   UNL     1       3.593   5.143  17.632  0.00  0.00    +0.000 N 
ATOM     23  H   UNL     1       3.583   5.824  16.883  0.00  0.00    +0.000 HD
BRANCH  20  26
ATOM     24  C   UNL     1       7.197   6.151  16.856  0.00  0.00    +0.000 C 
ATOM     25  C   UNL     1       6.472   5.204  15.969  0.00  0.00    +0.000 A 
ATOM     26  C   UNL     1       5.379   4.401  16.267  0.00  0.00    +0.000 A 
ATOM     27  O   UNL     1       5.022   3.676  15.153  0.00  0.00    +0.000 OA
ATOM     28  C   UNL     1       5.879   4.011  14.150  0.00  0.00    +0.000 A 
ATOM     29  C   UNL     1       5.861   3.487  12.858  0.00  0.00    +0.000 A 
ATOM     30  C   UNL     1       6.834   3.971  11.977  0.00  0.00    +0.000 A 
ATOM     31  C   UNL     1       7.765   4.930  12.383  0.00  0.00    +0.000 A 
ATOM     32  C   UNL     1       7.756   5.435  13.691  0.00  0.00    +0.000 A 
ATOM     33  C   UNL     1       6.789   4.958  14.596  0.00  0.00    +0.000 A 
ENDBRANCH  20  26
ENDBRANCH  18  22
ENDBRANCH   1  18
TORSDOF 6
ENDMDL
