MODEL 1
REMARK VINA RESULT:      -8.0      0.000      0.000
REMARK  Name = 
REMARK  7 active torsions:
REMARK  status: ('A' for Active; 'I' for Inactive)
REMARK    1  A    between atoms: C_1  and  O_2
REMARK    2  A    between atoms: O_2  and  C_3
REMARK    3  A    between atoms: C_15  and  N_16
REMARK    4  A    between atoms: N_16  and  C_17
REMARK    5  A    between atoms: C_20  and  N_21
REMARK    6  A    between atoms: N_21  and  C_22
REMARK    7  A    between atoms: N_21  and  C_23
REMARK                            x       y       z     vdW  Elec       q    Type
REMARK                         _______ _______ _______ _____ _____    ______ ____
ROOT
ATOM      1  C   UNL     1       1.510   2.887  19.834  0.00  0.00    +0.000 A 
ATOM      2  C   UNL     1       1.685   1.822  18.961  0.00  0.00    +0.000 A 
ATOM      3  C   UNL     1       2.557   1.953  17.880  0.00  0.00    +0.000 A 
ATOM      4  C   UNL     1       3.279   3.115  17.654  0.00  0.00    +0.000 A 
ATOM      5  N   UNL     1       4.087   3.131  16.590  0.00  0.00    +0.000 NA
ATOM      6  C   UNL     1       4.867   4.192  16.369  0.00  0.00    +0.000 A 
ATOM      7  C   UNL     1       5.688   4.148  15.251  0.00  0.00    +0.000 A 
ATOM      8  C   UNL     1       6.579   5.177  14.960  0.00  0.00    +0.000 A 
ATOM      9 CL   UNL     1       7.547   5.104  13.541  0.00  0.00    +0.000 Cl
ATOM     10  C   UNL     1       6.698   6.252  15.819  0.00  0.00    +0.000 A 
ATOM     11  C   UNL     1       5.875   6.307  16.943  0.00  0.00    +0.000 A 
ATOM     12  C   UNL     1       4.883   5.322  17.205  0.00  0.00    +0.000 A 
ATOM     13  C   UNL     1       3.924   5.360  18.268  0.00  0.00    +0.000 A 
ATOM     14  C   UNL     1       3.127   4.206  18.528  0.00  0.00    +0.000 A 
ATOM     15  C   UNL     1       2.200   4.081  19.598  0.00  0.00    +0.000 A 
ENDROOT
BRANCH   1  17
ATOM     16  C   UNL     1       1.311   2.587  22.169  0.00  0.00    +0.000 C 
ATOM     17  O   UNL     1       0.684   2.881  20.924  0.00  0.00    +0.000 OA
ENDBRANCH   1  17
BRANCH  13  18
ATOM     18  N   UNL     1       3.705   6.536  19.053  0.00  0.00    +0.000 N 
ATOM     19  H   UNL     1       4.552   6.886  19.489  0.00  0.00    +0.000 HD
BRANCH  18  20
ATOM     20  C   UNL     1       2.644   7.460  18.983  0.00  0.00    +0.000 A 
ATOM     21  C   UNL     1       2.378   8.181  17.817  0.00  0.00    +0.000 A 
ATOM     22  C   UNL     1       1.538   9.300  17.841  0.00  0.00    +0.000 A 
ATOM     23  C   UNL     1       0.904   9.733  19.014  0.00  0.00    +0.000 A 
ATOM     24  C   UNL     1       1.072   8.918  20.143  0.00  0.00    +0.000 A 
ATOM     25  C   UNL     1       1.926   7.800  20.132  0.00  0.00    +0.000 A 
BRANCH  23  26
ATOM     26  N   UNL     1       0.131  10.888  19.007  0.00  0.00    +0.000 N 
ATOM     27  C   UNL     1       0.739  12.212  18.981  0.00  0.00    +0.000 C 
ATOM     28  C   UNL     1      -1.224  10.826  18.452  0.00  0.00    +0.000 C 
ENDBRANCH  23  26
ENDBRANCH  18  20
ENDBRANCH  13  18
TORSDOF 4
ENDMDL
MODEL 2
REMARK VINA RESULT:      -7.7      4.549      9.296
REMARK  Name = 
REMARK  7 active torsions:
REMARK  status: ('A' for Active; 'I' for Inactive)
REMARK    1  A    between atoms: C_1  and  O_2
REMARK    2  A    between atoms: O_2  and  C_3
REMARK    3  A    between atoms: C_15  and  N_16
REMARK    4  A    between atoms: N_16  and  C_17
REMARK    5  A    between atoms: C_20  and  N_21
REMARK    6  A    between atoms: N_21  and  C_22
REMARK    7  A    between atoms: N_21  and  C_23
REMARK                            x       y       z     vdW  Elec       q    Type
REMARK                         _______ _______ _______ _____ _____    ______ ____
ROOT
ATOM      1  C   UNL     1      -3.024  10.297  16.131  0.00  0.00    +0.000 A 
ATOM      2  C   UNL     1      -4.225  10.712  16.688  0.00  0.00    +0.000 A 
ATOM      3  C   UNL     1      -4.224  11.356  17.926  0.00  0.00    +0.000 A 
ATOM      4  C   UNL     1      -3.052  11.618  18.619  0.00  0.00    +0.000 A 
ATOM      5  N   UNL     1      -3.168  12.242  19.795  0.00  0.00    +0.000 NA
ATOM      6  C   UNL     1      -2.069  12.592  20.467  0.00  0.00    +0.000 A 
ATOM      7  C   UNL     1      -2.252  13.243  21.679  0.00  0.00    +0.000 A 
ATOM      8  C   UNL     1      -1.175  13.699  22.433  0.00  0.00    +0.000 A 
ATOM      9 CL   UNL     1      -1.444  14.460  23.950  0.00  0.00    +0.000 Cl
ATOM     10  C   UNL     1       0.113  13.554  21.955  0.00  0.00    +0.000 A 
ATOM     11  C   UNL     1       0.309  12.899  20.740  0.00  0.00    +0.000 A 
ATOM     12  C   UNL     1      -0.768  12.330  20.003  0.00  0.00    +0.000 A 
ATOM     13  C   UNL     1      -0.646  11.546  18.812  0.00  0.00    +0.000 A 
ATOM     14  C   UNL     1      -1.820  11.216  18.073  0.00  0.00    +0.000 A 
ATOM     15  C   UNL     1      -1.834  10.517  16.835  0.00  0.00    +0.000 A 
ENDROOT
BRANCH   1  17
ATOM     16  C   UNL     1      -3.796  10.076  13.909  0.00  0.00    +0.000 C 
ATOM     17  O   UNL     1      -2.895   9.656  14.930  0.00  0.00    +0.000 OA
ENDBRANCH   1  17
BRANCH  13  18
ATOM     18  N   UNL     1       0.614  11.042  18.357  0.00  0.00    +0.000 N 
ATOM     19  H   UNL     1       1.195  11.755  17.928  0.00  0.00    +0.000 HD
BRANCH  18  20
ATOM     20  C   UNL     1       1.297   9.878  18.760  0.00  0.00    +0.000 A 
ATOM     21  C   UNL     1       2.042   9.117  17.856  0.00  0.00    +0.000 A 
ATOM     22  C   UNL     1       2.457   7.821  18.181  0.00  0.00    +0.000 A 
ATOM     23  C   UNL     1       2.178   7.237  19.425  0.00  0.00    +0.000 A 
ATOM     24  C   UNL     1       1.552   8.065  20.368  0.00  0.00    +0.000 A 
ATOM     25  C   UNL     1       1.117   9.364  20.045  0.00  0.00    +0.000 A 
BRANCH  23  26
ATOM     26  N   UNL     1       2.552   5.923  19.681  0.00  0.00    +0.000 N 
ATOM     27  C   UNL     1       3.899   5.445  19.395  0.00  0.00    +0.000 C 
ATOM     28  C   UNL     1       1.848   5.182  20.732  0.00  0.00    +0.000 C 
ENDBRANCH  23  26
ENDBRANCH  18  20
ENDBRANCH  13  18
TORSDOF 4
ENDMDL
MODEL 3
REMARK VINA RESULT:      -7.7      3.903      6.748
REMARK  Name = 
REMARK  7 active torsions:
REMARK  status: ('A' for Active; 'I' for Inactive)
REMARK    1  A    between atoms: C_1  and  O_2
REMARK    2  A    between atoms: O_2  and  C_3
REMARK    3  A    between atoms: C_15  and  N_16
REMARK    4  A    between atoms: N_16  and  C_17
REMARK    5  A    between atoms: C_20  and  N_21
REMARK    6  A    between atoms: N_21  and  C_22
REMARK    7  A    between atoms: N_21  and  C_23
REMARK                            x       y       z     vdW  Elec       q    Type
REMARK                         _______ _______ _______ _____ _____    ______ ____
ROOT
ATOM      1  C   UNL     1      -0.928  11.176  22.491  0.00  0.00    +0.000 A 
ATOM      2  C   UNL     1      -0.477  10.220  23.389  0.00  0.00    +0.000 A 
ATOM      3  C   UNL     1       0.291   9.150  22.929  0.00  0.00    +0.000 A 
ATOM      4  C   UNL     1       0.641   9.015  21.594  0.00  0.00    +0.000 A 
ATOM      5  N   UNL     1       1.381   7.953  21.263  0.00  0.00    +0.000 NA
ATOM      6  C   UNL     1       1.815   7.816  20.008  0.00  0.00    +0.000 A 
ATOM      7  C   UNL     1       2.583   6.696  19.726  0.00  0.00    +0.000 A 
ATOM      8  C   UNL     1       3.131   6.484  18.465  0.00  0.00    +0.000 A 
ATOM      9 CL   UNL     1       4.040   5.061  18.145  0.00  0.00    +0.000 Cl
ATOM     10  C   UNL     1       2.957   7.428  17.470  0.00  0.00    +0.000 A 
ATOM     11  C   UNL     1       2.185   8.556  17.741  0.00  0.00    +0.000 A 
ATOM     12  C   UNL     1       1.526   8.741  18.989  0.00  0.00    +0.000 A 
ATOM     13  C   UNL     1       0.626   9.807  19.312  0.00  0.00    +0.000 A 
ATOM     14  C   UNL     1       0.204   9.976  20.664  0.00  0.00    +0.000 A 
ATOM     15  C   UNL     1      -0.618  11.036  21.134  0.00  0.00    +0.000 A 
ENDROOT
BRANCH   1  17
ATOM     16  C   UNL     1      -2.934  11.979  23.448  0.00  0.00    +0.000 C 
ATOM     17  O   UNL     1      -1.687  12.265  22.819  0.00  0.00    +0.000 OA
ENDBRANCH   1  17
BRANCH  13  18
ATOM     18  N   UNL     1       0.098  10.686  18.314  0.00  0.00    +0.000 N 
ATOM     19  H   UNL     1       0.780  10.938  17.606  0.00  0.00    +0.000 HD
BRANCH  18  20
ATOM     20  C   UNL     1      -1.245  10.907  17.953  0.00  0.00    +0.000 A 
ATOM     21  C   UNL     1      -1.937  12.045  18.372  0.00  0.00    +0.000 A 
ATOM     22  C   UNL     1      -3.331  12.114  18.276  0.00  0.00    +0.000 A 
ATOM     23  C   UNL     1      -4.095  11.071  17.732  0.00  0.00    +0.000 A 
ATOM     24  C   UNL     1      -3.374   9.998  17.190  0.00  0.00    +0.000 A 
ATOM     25  C   UNL     1      -1.973   9.913  17.296  0.00  0.00    +0.000 A 
BRANCH  23  26
ATOM     26  N   UNL     1      -5.482  11.154  17.716  0.00  0.00    +0.000 N 
ATOM     27  C   UNL     1      -6.300  10.427  18.679  0.00  0.00    +0.000 C 
ATOM     28  C   UNL     1      -6.110  12.356  17.162  0.00  0.00    +0.000 C 
ENDBRANCH  23  26
ENDBRANCH  18  20
ENDBRANCH  13  18
TORSDOF 4
ENDMDL
MODEL 4
REMARK VINA RESULT:      -7.7      3.160      5.091
REMARK  Name = 
REMARK  7 active torsions:
REMARK  status: ('A' for Active; 'I' for Inactive)
REMARK    1  A    between atoms: C_1  and  O_2
REMARK    2  A    between atoms: O_2  and  C_3
REMARK    3  A    between atoms: C_15  and  N_16
REMARK    4  A    between atoms: N_16  and  C_17
REMARK    5  A    between atoms: C_20  and  N_21
REMARK    6  A    between atoms: N_21  and  C_22
REMARK    7  A    between atoms: N_21  and  C_23
REMARK                            x       y       z     vdW  Elec       q    Type
REMARK                         _______ _______ _______ _____ _____    ______ ____
ROOT
ATOM      1  C   UNL     1       7.258   7.419  17.582  0.00  0.00    +0.000 A 
ATOM      2  C   UNL     1       7.900   6.258  17.987  0.00  0.00    +0.000 A 
ATOM      3  C   UNL     1       7.143   5.137  18.333  0.00  0.00    +0.000 A 
ATOM      4  C   UNL     1       5.758   5.135  18.267  0.00  0.00    +0.000 A 
ATOM      5  N   UNL     1       5.135   4.007  18.620  0.00  0.00    +0.000 NA
ATOM      6  C   UNL     1       3.808   3.921  18.499  0.00  0.00    +0.000 A 
ATOM      7  C   UNL     1       3.218   2.723  18.875  0.00  0.00    +0.000 A 
ATOM      8  C   UNL     1       1.850   2.509  18.738  0.00  0.00    +0.000 A 
ATOM      9 CL   UNL     1       1.151   1.027  19.258  0.00  0.00    +0.000 Cl
ATOM     10  C   UNL     1       1.052   3.483  18.169  0.00  0.00    +0.000 A 
ATOM     11  C   UNL     1       1.634   4.691  17.790  0.00  0.00    +0.000 A 
ATOM     12  C   UNL     1       3.010   4.974  18.019  0.00  0.00    +0.000 A 
ATOM     13  C   UNL     1       3.662   6.224  17.767  0.00  0.00    +0.000 A 
ATOM     14  C   UNL     1       5.084   6.297  17.852  0.00  0.00    +0.000 A 
ATOM     15  C   UNL     1       5.860   7.448  17.548  0.00  0.00    +0.000 A 
ENDROOT
BRANCH   1  17
ATOM     16  C   UNL     1       8.482   9.312  18.289  0.00  0.00    +0.000 C 
ATOM     17  O   UNL     1       7.887   8.579  17.222  0.00  0.00    +0.000 OA
ENDBRANCH   1  17
BRANCH  13  18
ATOM     18  N   UNL     1       2.930   7.419  17.474  0.00  0.00    +0.000 N 
ATOM     19  H   UNL     1       2.592   7.453  16.518  0.00  0.00    +0.000 HD
BRANCH  18  20
ATOM     20  C   UNL     1       2.292   8.304  18.365  0.00  0.00    +0.000 A 
ATOM     21  C   UNL     1       2.087   7.972  19.706  0.00  0.00    +0.000 A 
ATOM     22  C   UNL     1       1.198   8.705  20.499  0.00  0.00    +0.000 A 
ATOM     23  C   UNL     1       0.500   9.817  20.006  0.00  0.00    +0.000 A 
ATOM     24  C   UNL     1       0.823  10.219  18.702  0.00  0.00    +0.000 A 
ATOM     25  C   UNL     1       1.703   9.479  17.892  0.00  0.00    +0.000 A 
BRANCH  23  26
ATOM     26  N   UNL     1      -0.423  10.477  20.809  0.00  0.00    +0.000 N 
ATOM     27  C   UNL     1      -0.512  10.215  22.241  0.00  0.00    +0.000 C 
ATOM     28  C   UNL     1      -0.896  11.801  20.398  0.00  0.00    +0.000 C 
ENDBRANCH  23  26
ENDBRANCH  18  20
ENDBRANCH  13  18
TORSDOF 4
ENDMDL
MODEL 5
REMARK VINA RESULT:      -7.6      2.995      6.527
REMARK  Name = 
REMARK  7 active torsions:
REMARK  status: ('A' for Active; 'I' for Inactive)
REMARK    1  A    between atoms: C_1  and  O_2
REMARK    2  A    between atoms: O_2  and  C_3
REMARK    3  A    between atoms: C_15  and  N_16
REMARK    4  A    between atoms: N_16  and  C_17
REMARK    5  A    between atoms: C_20  and  N_21
REMARK    6  A    between atoms: N_21  and  C_22
REMARK    7  A    between atoms: N_21  and  C_23
REMARK                            x       y       z     vdW  Elec       q    Type
REMARK                         _______ _______ _______ _____ _____    ______ ____
ROOT
ATOM      1  C   UNL     1       4.314   2.383  20.397  0.00  0.00    +0.000 A 
ATOM      2  C   UNL     1       3.172   2.477  21.179  0.00  0.00    +0.000 A 
ATOM      3  C   UNL     1       2.411   3.646  21.148  0.00  0.00    +0.000 A 
ATOM      4  C   UNL     1       2.747   4.723  20.341  0.00  0.00    +0.000 A 
ATOM      5  N   UNL     1       1.947   5.791  20.389  0.00  0.00    +0.000 NA
ATOM      6  C   UNL     1       2.176   6.824  19.574  0.00  0.00    +0.000 A 
ATOM      7  C   UNL     1       1.308   7.903  19.666  0.00  0.00    +0.000 A 
ATOM      8  C   UNL     1       1.423   9.006  18.826  0.00  0.00    +0.000 A 
ATOM      9 CL   UNL     1       0.355  10.341  19.002  0.00  0.00    +0.000 Cl
ATOM     10  C   UNL     1       2.389   9.023  17.837  0.00  0.00    +0.000 A 
ATOM     11  C   UNL     1       3.268   7.946  17.738  0.00  0.00    +0.000 A 
ATOM     12  C   UNL     1       3.238   6.856  18.653  0.00  0.00    +0.000 A 
ATOM     13  C   UNL     1       4.170   5.771  18.695  0.00  0.00    +0.000 A 
ATOM     14  C   UNL     1       3.896   4.649  19.532  0.00  0.00    +0.000 A 
ATOM     15  C   UNL     1       4.691   3.474  19.607  0.00  0.00    +0.000 A 
ENDROOT
BRANCH   1  17
ATOM     16  C   UNL     1       5.518   0.746  21.603  0.00  0.00    +0.000 C 
ATOM     17  O   UNL     1       5.141   1.294  20.343  0.00  0.00    +0.000 OA
ENDBRANCH   1  17
BRANCH  13  18
ATOM     18  N   UNL     1       5.395   5.791  17.956  0.00  0.00    +0.000 N 
ATOM     19  H   UNL     1       6.186   6.105  18.508  0.00  0.00    +0.000 HD
BRANCH  18  20
ATOM     20  C   UNL     1       5.729   5.094  16.779  0.00  0.00    +0.000 A 
ATOM     21  C   UNL     1       6.941   5.308  16.119  0.00  0.00    +0.000 A 
ATOM     22  C   UNL     1       7.136   4.854  14.810  0.00  0.00    +0.000 A 
ATOM     23  C   UNL     1       6.150   4.142  14.112  0.00  0.00    +0.000 A 
ATOM     24  C   UNL     1       4.995   3.816  14.837  0.00  0.00    +0.000 A 
ATOM     25  C   UNL     1       4.784   4.281  16.148  0.00  0.00    +0.000 A 
BRANCH  23  26
ATOM     26  N   UNL     1       6.361   3.767  12.790  0.00  0.00    +0.000 N 
ATOM     27  C   UNL     1       5.306   3.153  11.994  0.00  0.00    +0.000 C 
ATOM     28  C   UNL     1       7.384   4.471  12.013  0.00  0.00    +0.000 C 
ENDBRANCH  23  26
ENDBRANCH  18  20
ENDBRANCH  13  18
TORSDOF 4
ENDMDL
MODEL 6
REMARK VINA RESULT:      -7.6      3.165      5.029
REMARK  Name = 
REMARK  7 active torsions:
REMARK  status: ('A' for Active; 'I' for Inactive)
REMARK    1  A    between atoms: C_1  and  O_2
REMARK    2  A    between atoms: O_2  and  C_3
REMARK    3  A    between atoms: C_15  and  N_16
REMARK    4  A    between atoms: N_16  and  C_17
REMARK    5  A    between atoms: C_20  and  N_21
REMARK    6  A    between atoms: N_21  and  C_22
REMARK    7  A    between atoms: N_21  and  C_23
REMARK                            x       y       z     vdW  Elec       q    Type
REMARK                         _______ _______ _______ _____ _____    ______ ____
ROOT
ATOM      1  C   UNL     1       7.369   7.370  17.596  0.00  0.00    +0.000 A 
ATOM      2  C   UNL     1       7.982   6.188  17.988  0.00  0.00    +0.000 A 
ATOM      3  C   UNL     1       7.198   5.086  18.329  0.00  0.00    +0.000 A 
ATOM      4  C   UNL     1       5.813   5.121  18.271  0.00  0.00    +0.000 A 
ATOM      5  N   UNL     1       5.162   4.007  18.618  0.00  0.00    +0.000 NA
ATOM      6  C   UNL     1       3.833   3.957  18.504  0.00  0.00    +0.000 A 
ATOM      7  C   UNL     1       3.213   2.772  18.874  0.00  0.00    +0.000 A 
ATOM      8  C   UNL     1       1.839   2.595  18.743  0.00  0.00    +0.000 A 
ATOM      9 CL   UNL     1       1.104   1.128  19.255  0.00  0.00    +0.000 Cl
ATOM     10  C   UNL     1       1.064   3.595  18.186  0.00  0.00    +0.000 A 
ATOM     11  C   UNL     1       1.676   4.790  17.813  0.00  0.00    +0.000 A 
ATOM     12  C   UNL     1       3.060   5.035  18.036  0.00  0.00    +0.000 A 
ATOM     13  C   UNL     1       3.744   6.268  17.791  0.00  0.00    +0.000 A 
ATOM     14  C   UNL     1       5.167   6.304  17.869  0.00  0.00    +0.000 A 
ATOM     15  C   UNL     1       5.972   7.436  17.570  0.00  0.00    +0.000 A 
ENDROOT
BRANCH   1  17
ATOM     16  C   UNL     1       8.488   9.319  18.324  0.00  0.00    +0.000 C 
ATOM     17  O   UNL     1       8.027   8.515  17.242  0.00  0.00    +0.000 OA
ENDBRANCH   1  17
BRANCH  13  18
ATOM     18  N   UNL     1       3.042   7.485  17.512  0.00  0.00    +0.000 N 
ATOM     19  H   UNL     1       2.974   7.685  16.520  0.00  0.00    +0.000 HD
BRANCH  18  20
ATOM     20  C   UNL     1       2.131   8.186  18.326  0.00  0.00    +0.000 A 
ATOM     21  C   UNL     1       1.473   9.330  17.870  0.00  0.00    +0.000 A 
ATOM     22  C   UNL     1       0.818  10.185  18.763  0.00  0.00    +0.000 A 
ATOM     23  C   UNL     1       0.762   9.926  20.141  0.00  0.00    +0.000 A 
ATOM     24  C   UNL     1       1.307   8.704  20.561  0.00  0.00    +0.000 A 
ATOM     25  C   UNL     1       1.981   7.846  19.672  0.00  0.00    +0.000 A 
BRANCH  23  26
ATOM     26  N   UNL     1       0.158  10.835  21.000  0.00  0.00    +0.000 N 
ATOM     27  C   UNL     1      -0.582  11.985  20.495  0.00  0.00    +0.000 C 
ATOM     28  C   UNL     1      -0.249  10.382  22.333  0.00  0.00    +0.000 C 
ENDBRANCH  23  26
ENDBRANCH  18  20
ENDBRANCH  13  18
TORSDOF 4
ENDMDL
MODEL 7
REMARK VINA RESULT:      -7.6      4.579      9.612
REMARK  Name = 
REMARK  7 active torsions:
REMARK  status: ('A' for Active; 'I' for Inactive)
REMARK    1  A    between atoms: C_1  and  O_2
REMARK    2  A    between atoms: O_2  and  C_3
REMARK    3  A    between atoms: C_15  and  N_16
REMARK    4  A    between atoms: N_16  and  C_17
REMARK    5  A    between atoms: C_20  and  N_21
REMARK    6  A    between atoms: N_21  and  C_22
REMARK    7  A    between atoms: N_21  and  C_23
REMARK                            x       y       z     vdW  Elec       q    Type
REMARK                         _______ _______ _______ _____ _____    ______ ____
ROOT
ATOM      1  C   UNL     1      -2.916  10.607  16.143  0.00  0.00    +0.000 A 
ATOM      2  C   UNL     1      -4.171  11.038  16.548  0.00  0.00    +0.000 A 
ATOM      3  C   UNL     1      -4.328  11.613  17.810  0.00  0.00    +0.000 A 
ATOM      4  C   UNL     1      -3.260  11.789  18.676  0.00  0.00    +0.000 A 
ATOM      5  N   UNL     1      -3.522  12.351  19.859  0.00  0.00    +0.000 NA
ATOM      6  C   UNL     1      -2.521  12.619  20.700  0.00  0.00    +0.000 A 
ATOM      7  C   UNL     1      -2.855  13.209  21.911  0.00  0.00    +0.000 A 
ATOM      8  C   UNL     1      -1.884  13.580  22.835  0.00  0.00    +0.000 A 
ATOM      9 CL   UNL     1      -2.343  14.266  24.343  0.00  0.00    +0.000 Cl
ATOM     10  C   UNL     1      -0.545  13.410  22.536  0.00  0.00    +0.000 A 
ATOM     11  C   UNL     1      -0.198  12.815  21.324  0.00  0.00    +0.000 A 
ATOM     12  C   UNL     1      -1.176  12.331  20.410  0.00  0.00    +0.000 A 
ATOM     13  C   UNL     1      -0.909  11.610  19.202  0.00  0.00    +0.000 A 
ATOM     14  C   UNL     1      -1.975  11.368  18.286  0.00  0.00    +0.000 A 
ATOM     15  C   UNL     1      -1.834  10.740  17.019  0.00  0.00    +0.000 A 
ENDROOT
BRANCH   1  17
ATOM     16  C   UNL     1      -3.705  10.031  13.991  0.00  0.00    +0.000 C 
ATOM     17  O   UNL     1      -2.638  10.028  14.935  0.00  0.00    +0.000 OA
ENDBRANCH   1  17
BRANCH  13  18
ATOM     18  N   UNL     1       0.387  11.082  18.901  0.00  0.00    +0.000 N 
ATOM     19  H   UNL     1       1.111  11.792  18.888  0.00  0.00    +0.000 HD
BRANCH  18  20
ATOM     20  C   UNL     1       0.851   9.758  19.021  0.00  0.00    +0.000 A 
ATOM     21  C   UNL     1       0.868   9.098  20.252  0.00  0.00    +0.000 A 
ATOM     22  C   UNL     1       1.601   7.918  20.423  0.00  0.00    +0.000 A 
ATOM     23  C   UNL     1       2.321   7.327  19.375  0.00  0.00    +0.000 A 
ATOM     24  C   UNL     1       2.179   7.927  18.115  0.00  0.00    +0.000 A 
ATOM     25  C   UNL     1       1.457   9.121  17.937  0.00  0.00    +0.000 A 
BRANCH  23  26
ATOM     26  N   UNL     1       3.089   6.191  19.605  0.00  0.00    +0.000 N 
ATOM     27  C   UNL     1       2.575   5.070  20.381  0.00  0.00    +0.000 C 
ATOM     28  C   UNL     1       4.137   5.842  18.643  0.00  0.00    +0.000 C 
ENDBRANCH  23  26
ENDBRANCH  18  20
ENDBRANCH  13  18
TORSDOF 4
ENDMDL
MODEL 8
REMARK VINA RESULT:      -7.6      4.032      6.917
REMARK  Name = 
REMARK  7 active torsions:
REMARK  status: ('A' for Active; 'I' for Inactive)
REMARK    1  A    between atoms: C_1  and  O_2
REMARK    2  A    between atoms: O_2  and  C_3
REMARK    3  A    between atoms: C_15  and  N_16
REMARK    4  A    between atoms: N_16  and  C_17
REMARK    5  A    between atoms: C_20  and  N_21
REMARK    6  A    between atoms: N_21  and  C_22
REMARK    7  A    between atoms: N_21  and  C_23
REMARK                            x       y       z     vdW  Elec       q    Type
REMARK                         _______ _______ _______ _____ _____    ______ ____
ROOT
ATOM      1  C   UNL     1      -1.050  11.366  22.549  0.00  0.00    +0.000 A 
ATOM      2  C   UNL     1      -0.815  10.264  23.359  0.00  0.00    +0.000 A 
ATOM      3  C   UNL     1      -0.109   9.173  22.851  0.00  0.00    +0.000 A 
ATOM      4  C   UNL     1       0.391   9.157  21.558  0.00  0.00    +0.000 A 
ATOM      5  N   UNL     1       1.054   8.063  21.176  0.00  0.00    +0.000 NA
ATOM      6  C   UNL     1       1.626   8.025  19.970  0.00  0.00    +0.000 A 
ATOM      7  C   UNL     1       2.306   6.863  19.632  0.00  0.00    +0.000 A 
ATOM      8  C   UNL     1       2.984   6.740  18.423  0.00  0.00    +0.000 A 
ATOM      9 CL   UNL     1       3.776   5.268  18.022  0.00  0.00    +0.000 Cl
ATOM     10  C   UNL     1       3.034   7.808  17.547  0.00  0.00    +0.000 A 
ATOM     11  C   UNL     1       2.352   8.979  17.876  0.00  0.00    +0.000 A 
ATOM     12  C   UNL     1       1.564   9.091  19.056  0.00  0.00    +0.000 A 
ATOM     13  C   UNL     1       0.744  10.209  19.413  0.00  0.00    +0.000 A 
ATOM     14  C   UNL     1       0.174  10.266  20.719  0.00  0.00    +0.000 A 
ATOM     15  C   UNL     1      -0.588  11.351  21.229  0.00  0.00    +0.000 A 
ENDROOT
BRANCH   1  17
ATOM     16  C   UNL     1      -3.093  12.290  23.295  0.00  0.00    +0.000 C 
ATOM     17  O   UNL     1      -1.730  12.489  22.931  0.00  0.00    +0.000 OA
ENDBRANCH   1  17
BRANCH  13  18
ATOM     18  N   UNL     1       0.438  11.255  18.485  0.00  0.00    +0.000 N 
ATOM     19  H   UNL     1      -0.484  11.163  18.073  0.00  0.00    +0.000 HD
BRANCH  18  20
ATOM     20  C   UNL     1       1.015  12.536  18.377  0.00  0.00    +0.000 A 
ATOM     21  C   UNL     1       2.391  12.707  18.210  0.00  0.00    +0.000 A 
ATOM     22  C   UNL     1       2.988  13.957  18.408  0.00  0.00    +0.000 A 
ATOM     23  C   UNL     1       2.243  15.095  18.750  0.00  0.00    +0.000 A 
ATOM     24  C   UNL     1       0.850  14.935  18.777  0.00  0.00    +0.000 A 
ATOM     25  C   UNL     1       0.243  13.679  18.594  0.00  0.00    +0.000 A 
BRANCH  23  26
ATOM     26  N   UNL     1       2.885  16.302  19.002  0.00  0.00    +0.000 N 
ATOM     27  C   UNL     1       4.224  16.573  18.496  0.00  0.00    +0.000 C 
ATOM     28  C   UNL     1       2.070  17.495  19.249  0.00  0.00    +0.000 C 
ENDBRANCH  23  26
ENDBRANCH  18  20
ENDBRANCH  13  18
TORSDOF 4
ENDMDL
MODEL 9
REMARK VINA RESULT:      -7.4      4.428      9.392
REMARK  Name = 
REMARK  7 active torsions:
REMARK  status: ('A' for Active; 'I' for Inactive)
REMARK    1  A    between atoms: C_1  and  O_2
REMARK    2  A    between atoms: O_2  and  C_3
REMARK    3  A    between atoms: C_15  and  N_16
REMARK    4  A    between atoms: N_16  and  C_17
REMARK    5  A    between atoms: C_20  and  N_21
REMARK    6  A    between atoms: N_21  and  C_22
REMARK    7  A    between atoms: N_21  and  C_23
REMARK                            x       y       z     vdW  Elec       q    Type
REMARK                         _______ _______ _______ _____ _____    ______ ____
ROOT
ATOM      1  C   UNL     1       1.993  13.603  21.017  0.00  0.00    +0.000 A 
ATOM      2  C   UNL     1       0.999  14.407  21.554  0.00  0.00    +0.000 A 
ATOM      3  C   UNL     1      -0.329  14.209  21.172  0.00  0.00    +0.000 A 
ATOM      4  C   UNL     1      -0.697  13.213  20.281  0.00  0.00    +0.000 A 
ATOM      5  N   UNL     1      -1.997  13.110  19.987  0.00  0.00    +0.000 NA
ATOM      6  C   UNL     1      -2.419  12.119  19.199  0.00  0.00    +0.000 A 
ATOM      7  C   UNL     1      -3.780  12.061  18.934  0.00  0.00    +0.000 A 
ATOM      8  C   UNL     1      -4.332  11.037  18.170  0.00  0.00    +0.000 A 
ATOM      9 CL   UNL     1      -6.016  11.027  17.828  0.00  0.00    +0.000 Cl
ATOM     10  C   UNL     1      -3.528  10.018  17.697  0.00  0.00    +0.000 A 
ATOM     11  C   UNL     1      -2.159  10.068  17.955  0.00  0.00    +0.000 A 
ATOM     12  C   UNL     1      -1.556  11.159  18.642  0.00  0.00    +0.000 A 
ATOM     13  C   UNL     1      -0.152  11.346  18.849  0.00  0.00    +0.000 A 
ATOM     14  C   UNL     1       0.291  12.377  19.729  0.00  0.00    +0.000 A 
ATOM     15  C   UNL     1       1.645  12.618  20.086  0.00  0.00    +0.000 A 
ENDROOT
BRANCH   1  17
ATOM     16  C   UNL     1       4.045  14.687  20.575  0.00  0.00    +0.000 C 
ATOM     17  O   UNL     1       3.326  13.701  21.310  0.00  0.00    +0.000 OA
ENDBRANCH   1  17
BRANCH  13  18
ATOM     18  N   UNL     1       0.830  10.559  18.166  0.00  0.00    +0.000 N 
ATOM     19  H   UNL     1       1.275  11.057  17.403  0.00  0.00    +0.000 HD
BRANCH  18  20
ATOM     20  C   UNL     1       1.523   9.421  18.623  0.00  0.00    +0.000 A 
ATOM     21  C   UNL     1       2.309   8.650  17.764  0.00  0.00    +0.000 A 
ATOM     22  C   UNL     1       2.739   7.372  18.137  0.00  0.00    +0.000 A 
ATOM     23  C   UNL     1       2.434   6.818  19.389  0.00  0.00    +0.000 A 
ATOM     24  C   UNL     1       1.764   7.659  20.289  0.00  0.00    +0.000 A 
ATOM     25  C   UNL     1       1.314   8.939  19.916  0.00  0.00    +0.000 A 
BRANCH  23  26
ATOM     26  N   UNL     1       2.826   5.519  19.693  0.00  0.00    +0.000 N 
ATOM     27  C   UNL     1       4.150   5.021  19.345  0.00  0.00    +0.000 C 
ATOM     28  C   UNL     1       2.195   4.841  20.829  0.00  0.00    +0.000 C 
ENDBRANCH  23  26
ENDBRANCH  18  20
ENDBRANCH  13  18
TORSDOF 4
ENDMDL
