MODEL 1
REMARK VINA RESULT:      -9.2      0.000      0.000
REMARK  Name = 
REMARK  8 active torsions:
REMARK  status: ('A' for Active; 'I' for Inactive)
REMARK    1  A    between atoms: C_2  and  O_3
REMARK    2  A    between atoms: C_2  and  C_4
REMARK    3  A    between atoms: C_7  and  N_8
REMARK    4  A    between atoms: N_8  and  C_9
REMARK    5  A    between atoms: C_9  and  C_10
REMARK    6  A    between atoms: C_9  and  C_22
REMARK    7  A    between atoms: C_10  and  C_11
REMARK    8  A    between atoms: C_11  and  C_13
REMARK                            x       y       z     vdW  Elec       q    Type
REMARK                         _______ _______ _______ _____ _____    ______ ____
ROOT
ATOM      1  C   UNL     1       3.415   5.738  18.590  0.00  0.00    +0.000 C 
ENDROOT
BRANCH   1   2
ATOM      2  C   UNL     1       2.595   4.466  18.726  0.00  0.00    +0.000 A 
ATOM      3  C   UNL     1       2.827   3.399  17.839  0.00  0.00    +0.000 A 
ATOM      4  C   UNL     1       2.076   2.224  17.913  0.00  0.00    +0.000 A 
ATOM      5  C   UNL     1       1.080   2.095  18.878  0.00  0.00    +0.000 A 
ATOM      6  C   UNL     1       0.846   3.133  19.775  0.00  0.00    +0.000 A 
ATOM      7  C   UNL     1       1.601   4.305  19.705  0.00  0.00    +0.000 A 
ENDBRANCH   1   2
BRANCH   1   8
ATOM      8  N   UNL     1       3.131   6.718  19.627  0.00  0.00    +0.000 N 
ATOM      9  H   UNL     1       3.154   6.335  20.571  0.00  0.00    +0.000 HD
BRANCH   8  13
ATOM     10  C   UNL     1       0.413   9.846  18.948  0.00  0.00    +0.000 A 
ATOM     11  C   UNL     1       1.240   9.382  17.930  0.00  0.00    +0.000 A 
ATOM     12  C   UNL     1       2.163   8.365  18.187  0.00  0.00    +0.000 A 
ATOM     13  C   UNL     1       2.289   7.804  19.464  0.00  0.00    +0.000 A 
ATOM     14  C   UNL     1       1.496   8.320  20.491  0.00  0.00    +0.000 A 
ATOM     15  C   UNL     1       0.549   9.319  20.240  0.00  0.00    +0.000 A 
BRANCH  10  17
ATOM     16  O   UNL     1      -1.048  11.669  19.382  0.00  0.00    +0.000 OA
ATOM     17  C   UNL     1      -0.649  10.825  18.599  0.00  0.00    +0.000 C 
BRANCH  17  18
ATOM     18  O   UNL     1      -1.142  10.679  17.353  0.00  0.00    +0.000 OA
ATOM     19  H   UNL     1      -0.972   9.813  16.942  0.00  0.00    +0.000 HD
ENDBRANCH  17  18
ENDBRANCH  10  17
ENDBRANCH   8  13
ENDBRANCH   1   8
BRANCH   1  20
ATOM     20  C   UNL     1       4.919   5.507  18.478  0.00  0.00    +0.000 C 
BRANCH  20  21
ATOM     21  C   UNL     1       5.665   6.162  17.334  0.00  0.00    +0.000 C 
ATOM     22  O   UNL     1       6.108   7.306  17.518  0.00  0.00    +0.000 OA
BRANCH  21  23
ATOM     23  C   UNL     1       6.028   5.428  16.132  0.00  0.00    +0.000 A 
ATOM     24  C   UNL     1       5.353   4.367  15.556  0.00  0.00    +0.000 A 
ATOM     25  C   UNL     1       5.894   4.185  14.263  0.00  0.00    +0.000 A 
ATOM     26  C   UNL     1       5.535   3.430  13.136  0.00  0.00    +0.000 A 
ATOM     27  C   UNL     1       6.303   3.550  11.974  0.00  0.00    +0.000 A 
ATOM     28  C   UNL     1       7.447   4.354  11.954  0.00  0.00    +0.000 A 
ATOM     29  C   UNL     1       7.834   5.100  13.079  0.00  0.00    +0.000 A 
ATOM     30  C   UNL     1       7.000   5.024  14.194  0.00  0.00    +0.000 A 
ATOM     31  O   UNL     1       7.094   5.768  15.339  0.00  0.00    +0.000 OA
ENDBRANCH  21  23
ENDBRANCH  20  21
ENDBRANCH   1  20
TORSDOF 8
ENDMDL
MODEL 2
REMARK VINA RESULT:      -9.1      0.682      1.152
REMARK  Name = 
REMARK  8 active torsions:
REMARK  status: ('A' for Active; 'I' for Inactive)
REMARK    1  A    between atoms: C_2  and  O_3
REMARK    2  A    between atoms: C_2  and  C_4
REMARK    3  A    between atoms: C_7  and  N_8
REMARK    4  A    between atoms: N_8  and  C_9
REMARK    5  A    between atoms: C_9  and  C_10
REMARK    6  A    between atoms: C_9  and  C_22
REMARK    7  A    between atoms: C_10  and  C_11
REMARK    8  A    between atoms: C_11  and  C_13
REMARK                            x       y       z     vdW  Elec       q    Type
REMARK                         _______ _______ _______ _____ _____    ______ ____
ROOT
ATOM      1  C   UNL     1       3.871   5.518  18.573  0.00  0.00    +0.000 C 
ENDROOT
BRANCH   1   2
ATOM      2  C   UNL     1       3.127   4.193  18.572  0.00  0.00    +0.000 A 
ATOM      3  C   UNL     1       3.857   2.994  18.671  0.00  0.00    +0.000 A 
ATOM      4  C   UNL     1       3.214   1.755  18.645  0.00  0.00    +0.000 A 
ATOM      5  C   UNL     1       1.828   1.693  18.521  0.00  0.00    +0.000 A 
ATOM      6  C   UNL     1       1.087   2.867  18.438  0.00  0.00    +0.000 A 
ATOM      7  C   UNL     1       1.729   4.107  18.470  0.00  0.00    +0.000 A 
ENDBRANCH   1   2
BRANCH   1   8
ATOM      8  N   UNL     1       3.363   6.459  19.559  0.00  0.00    +0.000 N 
ATOM      9  H   UNL     1       3.259   6.062  20.492  0.00  0.00    +0.000 HD
BRANCH   8  13
ATOM     10  C   UNL     1       0.862   9.764  18.885  0.00  0.00    +0.000 A 
ATOM     11  C   UNL     1       0.865   9.106  20.110  0.00  0.00    +0.000 A 
ATOM     12  C   UNL     1       1.678   7.986  20.301  0.00  0.00    +0.000 A 
ATOM     13  C   UNL     1       2.490   7.494  19.272  0.00  0.00    +0.000 A 
ATOM     14  C   UNL     1       2.432   8.127  18.028  0.00  0.00    +0.000 A 
ATOM     15  C   UNL     1       1.643   9.265  17.833  0.00  0.00    +0.000 A 
BRANCH  10  17
ATOM     16  O   UNL     1       0.252  11.967  19.533  0.00  0.00    +0.000 OA
ATOM     17  C   UNL     1       0.093  11.031  18.770  0.00  0.00    +0.000 C 
BRANCH  17  18
ATOM     18  O   UNL     1      -0.805  11.039  17.765  0.00  0.00    +0.000 OA
ATOM     19  H   UNL     1      -0.721  11.784  17.144  0.00  0.00    +0.000 HD
ENDBRANCH  17  18
ENDBRANCH  10  17
ENDBRANCH   8  13
ENDBRANCH   1   8
BRANCH   1  20
ATOM     20  C   UNL     1       5.386   5.388  18.697  0.00  0.00    +0.000 C 
BRANCH  20  21
ATOM     21  C   UNL     1       6.251   5.972  17.599  0.00  0.00    +0.000 C 
ATOM     22  O   UNL     1       6.927   6.975  17.874  0.00  0.00    +0.000 OA
BRANCH  21  23
ATOM     23  C   UNL     1       6.446   5.291  16.330  0.00  0.00    +0.000 A 
ATOM     24  C   UNL     1       5.700   4.249  15.807  0.00  0.00    +0.000 A 
ATOM     25  C   UNL     1       6.059   4.125  14.447  0.00  0.00    +0.000 A 
ATOM     26  C   UNL     1       5.550   3.413  13.349  0.00  0.00    +0.000 A 
ATOM     27  C   UNL     1       6.151   3.586  12.098  0.00  0.00    +0.000 A 
ATOM     28  C   UNL     1       7.280   4.399  11.955  0.00  0.00    +0.000 A 
ATOM     29  C   UNL     1       7.817   5.101  13.046  0.00  0.00    +0.000 A 
ATOM     30  C   UNL     1       7.144   4.973  14.261  0.00  0.00    +0.000 A 
ATOM     31  O   UNL     1       7.393   5.671  15.413  0.00  0.00    +0.000 OA
ENDBRANCH  21  23
ENDBRANCH  20  21
ENDBRANCH   1  20
TORSDOF 8
ENDMDL
MODEL 3
REMARK VINA RESULT:      -9.0      1.833      8.185
REMARK  Name = 
REMARK  8 active torsions:
REMARK  status: ('A' for Active; 'I' for Inactive)
REMARK    1  A    between atoms: C_2  and  O_3
REMARK    2  A    between atoms: C_2  and  C_4
REMARK    3  A    between atoms: C_7  and  N_8
REMARK    4  A    between atoms: N_8  and  C_9
REMARK    5  A    between atoms: C_9  and  C_10
REMARK    6  A    between atoms: C_9  and  C_22
REMARK    7  A    between atoms: C_10  and  C_11
REMARK    8  A    between atoms: C_11  and  C_13
REMARK                            x       y       z     vdW  Elec       q    Type
REMARK                         _______ _______ _______ _____ _____    ______ ____
ROOT
ATOM      1  C   UNL     1       2.885   6.307  19.281  0.00  0.00    +0.000 C 
ENDROOT
BRANCH   1   2
ATOM      2  C   UNL     1       2.229   4.989  19.656  0.00  0.00    +0.000 A 
ATOM      3  C   UNL     1       1.584   4.233  18.660  0.00  0.00    +0.000 A 
ATOM      4  C   UNL     1       0.945   3.030  18.970  0.00  0.00    +0.000 A 
ATOM      5  C   UNL     1       0.944   2.561  20.281  0.00  0.00    +0.000 A 
ATOM      6  C   UNL     1       1.590   3.286  21.277  0.00  0.00    +0.000 A 
ATOM      7  C   UNL     1       2.234   4.486  20.967  0.00  0.00    +0.000 A 
ENDBRANCH   1   2
BRANCH   1   8
ATOM      8  N   UNL     1       4.286   6.169  18.917  0.00  0.00    +0.000 N 
ATOM      9  H   UNL     1       4.893   6.864  19.349  0.00  0.00    +0.000 HD
BRANCH   8  13
ATOM     10  C   UNL     1       5.888   4.877  15.256  0.00  0.00    +0.000 A 
ATOM     11  C   UNL     1       5.544   6.210  15.457  0.00  0.00    +0.000 A 
ATOM     12  C   UNL     1       4.978   6.612  16.670  0.00  0.00    +0.000 A 
ATOM     13  C   UNL     1       4.732   5.691  17.697  0.00  0.00    +0.000 A 
ATOM     14  C   UNL     1       5.026   4.347  17.460  0.00  0.00    +0.000 A 
ATOM     15  C   UNL     1       5.617   3.937  16.260  0.00  0.00    +0.000 A 
BRANCH  10  17
ATOM     16  O   UNL     1       7.433   5.259  13.492  0.00  0.00    +0.000 OA
ATOM     17  C   UNL     1       6.615   4.520  14.011  0.00  0.00    +0.000 C 
BRANCH  17  18
ATOM     18  O   UNL     1       6.272   3.321  13.500  0.00  0.00    +0.000 OA
ATOM     19  H   UNL     1       5.872   3.350  12.613  0.00  0.00    +0.000 HD
ENDBRANCH  17  18
ENDBRANCH  10  17
ENDBRANCH   8  13
ENDBRANCH   1   8
BRANCH   1  20
ATOM     20  C   UNL     1       2.137   7.099  18.211  0.00  0.00    +0.000 C 
BRANCH  20  21
ATOM     21  C   UNL     1       1.933   8.584  18.426  0.00  0.00    +0.000 C 
ATOM     22  O   UNL     1       2.445   9.358  17.603  0.00  0.00    +0.000 OA
BRANCH  21  23
ATOM     23  C   UNL     1       1.018   9.097  19.433  0.00  0.00    +0.000 A 
ATOM     24  C   UNL     1       0.892   8.683  20.748  0.00  0.00    +0.000 A 
ATOM     25  C   UNL     1       0.113   9.656  21.414  0.00  0.00    +0.000 A 
ATOM     26  C   UNL     1      -0.207   9.918  22.756  0.00  0.00    +0.000 A 
ATOM     27  C   UNL     1      -0.985  11.042  23.053  0.00  0.00    +0.000 A 
ATOM     28  C   UNL     1      -1.491  11.850  22.031  0.00  0.00    +0.000 A 
ATOM     29  C   UNL     1      -1.199  11.591  20.683  0.00  0.00    +0.000 A 
ATOM     30  C   UNL     1      -0.353  10.513  20.425  0.00  0.00    +0.000 A 
ATOM     31  O   UNL     1       0.183  10.163  19.215  0.00  0.00    +0.000 OA
ENDBRANCH  21  23
ENDBRANCH  20  21
ENDBRANCH   1  20
TORSDOF 8
ENDMDL
MODEL 4
REMARK VINA RESULT:      -9.0      1.926      8.143
REMARK  Name = 
REMARK  8 active torsions:
REMARK  status: ('A' for Active; 'I' for Inactive)
REMARK    1  A    between atoms: C_2  and  O_3
REMARK    2  A    between atoms: C_2  and  C_4
REMARK    3  A    between atoms: C_7  and  N_8
REMARK    4  A    between atoms: N_8  and  C_9
REMARK    5  A    between atoms: C_9  and  C_10
REMARK    6  A    between atoms: C_9  and  C_22
REMARK    7  A    between atoms: C_10  and  C_11
REMARK    8  A    between atoms: C_11  and  C_13
REMARK                            x       y       z     vdW  Elec       q    Type
REMARK                         _______ _______ _______ _____ _____    ______ ____
ROOT
ATOM      1  C   UNL     1       2.791   6.368  19.329  0.00  0.00    +0.000 C 
ENDROOT
BRANCH   1   2
ATOM      2  C   UNL     1       2.210   5.022  19.729  0.00  0.00    +0.000 A 
ATOM      3  C   UNL     1       1.559   4.239  18.758  0.00  0.00    +0.000 A 
ATOM      4  C   UNL     1       0.987   3.008  19.092  0.00  0.00    +0.000 A 
ATOM      5  C   UNL     1       1.058   2.540  20.401  0.00  0.00    +0.000 A 
ATOM      6  C   UNL     1       1.711   3.293  21.372  0.00  0.00    +0.000 A 
ATOM      7  C   UNL     1       2.289   4.520  21.038  0.00  0.00    +0.000 A 
ENDBRANCH   1   2
BRANCH   1   8
ATOM      8  N   UNL     1       4.194   6.299  18.956  0.00  0.00    +0.000 N 
ATOM      9  H   UNL     1       4.761   7.051  19.346  0.00  0.00    +0.000 HD
BRANCH   8  13
ATOM     10  C   UNL     1       5.831   4.944  15.334  0.00  0.00    +0.000 A 
ATOM     11  C   UNL     1       5.352   6.243  15.461  0.00  0.00    +0.000 A 
ATOM     12  C   UNL     1       4.777   6.663  16.664  0.00  0.00    +0.000 A 
ATOM     13  C   UNL     1       4.658   5.791  17.754  0.00  0.00    +0.000 A 
ATOM     14  C   UNL     1       5.088   4.473  17.593  0.00  0.00    +0.000 A 
ATOM     15  C   UNL     1       5.689   4.049  16.403  0.00  0.00    +0.000 A 
BRANCH  10  17
ATOM     16  O   UNL     1       6.150   3.745  13.307  0.00  0.00    +0.000 OA
ATOM     17  C   UNL     1       6.561   4.584  14.090  0.00  0.00    +0.000 C 
BRANCH  17  18
ATOM     18  O   UNL     1       7.721   5.249  13.922  0.00  0.00    +0.000 OA
ATOM     19  H   UNL     1       8.317   5.238  14.691  0.00  0.00    +0.000 HD
ENDBRANCH  17  18
ENDBRANCH  10  17
ENDBRANCH   8  13
ENDBRANCH   1   8
BRANCH   1  20
ATOM     20  C   UNL     1       1.993   7.104  18.256  0.00  0.00    +0.000 C 
BRANCH  20  21
ATOM     21  C   UNL     1       1.927   8.615  18.318  0.00  0.00    +0.000 C 
ATOM     22  O   UNL     1       2.213   9.245  17.288  0.00  0.00    +0.000 OA
BRANCH  21  23
ATOM     23  C   UNL     1       1.368   9.315  19.463  0.00  0.00    +0.000 A 
ATOM     24  C   UNL     1       0.924  10.624  19.519  0.00  0.00    +0.000 A 
ATOM     25  C   UNL     1       0.196  10.764  20.721  0.00  0.00    +0.000 A 
ATOM     26  C   UNL     1      -0.642  11.751  21.262  0.00  0.00    +0.000 A 
ATOM     27  C   UNL     1      -1.255  11.510  22.497  0.00  0.00    +0.000 A 
ATOM     28  C   UNL     1      -0.984  10.340  23.211  0.00  0.00    +0.000 A 
ATOM     29  C   UNL     1      -0.131   9.350  22.696  0.00  0.00    +0.000 A 
ATOM     30  C   UNL     1       0.397   9.584  21.426  0.00  0.00    +0.000 A 
ATOM     31  O   UNL     1       1.126   8.706  20.669  0.00  0.00    +0.000 OA
ENDBRANCH  21  23
ENDBRANCH  20  21
ENDBRANCH   1  20
TORSDOF 8
ENDMDL
MODEL 5
REMARK VINA RESULT:      -9.0      2.474      7.182
REMARK  Name = 
REMARK  8 active torsions:
REMARK  status: ('A' for Active; 'I' for Inactive)
REMARK    1  A    between atoms: C_2  and  O_3
REMARK    2  A    between atoms: C_2  and  C_4
REMARK    3  A    between atoms: C_7  and  N_8
REMARK    4  A    between atoms: N_8  and  C_9
REMARK    5  A    between atoms: C_9  and  C_10
REMARK    6  A    between atoms: C_9  and  C_22
REMARK    7  A    between atoms: C_10  and  C_11
REMARK    8  A    between atoms: C_11  and  C_13
REMARK                            x       y       z     vdW  Elec       q    Type
REMARK                         _______ _______ _______ _____ _____    ______ ____
ROOT
ATOM      1  C   UNL     1       4.965   4.757  15.405  0.00  0.00    +0.000 C 
ENDROOT
BRANCH   1   2
ATOM      2  C   UNL     1       5.704   4.387  14.130  0.00  0.00    +0.000 A 
ATOM      3  C   UNL     1       5.110   3.486  13.227  0.00  0.00    +0.000 A 
ATOM      4  C   UNL     1       5.769   3.098  12.058  0.00  0.00    +0.000 A 
ATOM      5  C   UNL     1       7.033   3.607  11.770  0.00  0.00    +0.000 A 
ATOM      6  C   UNL     1       7.630   4.512  12.643  0.00  0.00    +0.000 A 
ATOM      7  C   UNL     1       6.970   4.904  13.809  0.00  0.00    +0.000 A 
ENDBRANCH   1   2
BRANCH   1   8
ATOM      8  N   UNL     1       5.257   3.867  16.517  0.00  0.00    +0.000 N 
ATOM      9  H   UNL     1       5.957   3.157  16.302  0.00  0.00    +0.000 HD
BRANCH   8  13
ATOM     10  C   UNL     1       2.536   2.997  19.594  0.00  0.00    +0.000 A 
ATOM     11  C   UNL     1       3.905   3.018  19.834  0.00  0.00    +0.000 A 
ATOM     12  C   UNL     1       4.796   3.273  18.788  0.00  0.00    +0.000 A 
ATOM     13  C   UNL     1       4.338   3.497  17.483  0.00  0.00    +0.000 A 
ATOM     14  C   UNL     1       2.965   3.414  17.244  0.00  0.00    +0.000 A 
ATOM     15  C   UNL     1       2.062   3.185  18.289  0.00  0.00    +0.000 A 
BRANCH  10  17
ATOM     16  O   UNL     1       2.019   2.605  21.880  0.00  0.00    +0.000 OA
ATOM     17  C   UNL     1       1.621   2.863  20.758  0.00  0.00    +0.000 C 
BRANCH  17  18
ATOM     18  O   UNL     1       0.319   3.030  20.454  0.00  0.00    +0.000 OA
ATOM     19  H   UNL     1      -0.297   2.464  20.953  0.00  0.00    +0.000 HD
ENDBRANCH  17  18
ENDBRANCH  10  17
ENDBRANCH   8  13
ENDBRANCH   1   8
BRANCH   1  20
ATOM     20  C   UNL     1       5.138   6.212  15.832  0.00  0.00    +0.000 C 
BRANCH  20  21
ATOM     21  C   UNL     1       5.018   6.549  17.304  0.00  0.00    +0.000 C 
ATOM     22  O   UNL     1       6.052   6.503  17.988  0.00  0.00    +0.000 OA
BRANCH  21  23
ATOM     23  C   UNL     1       3.795   7.093  17.871  0.00  0.00    +0.000 A 
ATOM     24  C   UNL     1       3.187   6.738  19.062  0.00  0.00    +0.000 A 
ATOM     25  C   UNL     1       2.218   7.727  19.343  0.00  0.00    +0.000 A 
ATOM     26  C   UNL     1       1.421   8.046  20.453  0.00  0.00    +0.000 A 
ATOM     27  C   UNL     1       0.590   9.169  20.384  0.00  0.00    +0.000 A 
ATOM     28  C   UNL     1       0.504   9.922  19.209  0.00  0.00    +0.000 A 
ATOM     29  C   UNL     1       1.277   9.605  18.081  0.00  0.00    +0.000 A 
ATOM     30  C   UNL     1       2.156   8.530  18.210  0.00  0.00    +0.000 A 
ATOM     31  O   UNL     1       3.104   8.134  17.305  0.00  0.00    +0.000 OA
ENDBRANCH  21  23
ENDBRANCH  20  21
ENDBRANCH   1  20
TORSDOF 8
ENDMDL
MODEL 6
REMARK VINA RESULT:      -8.8      1.759      8.105
REMARK  Name = 
REMARK  8 active torsions:
REMARK  status: ('A' for Active; 'I' for Inactive)
REMARK    1  A    between atoms: C_2  and  O_3
REMARK    2  A    between atoms: C_2  and  C_4
REMARK    3  A    between atoms: C_7  and  N_8
REMARK    4  A    between atoms: N_8  and  C_9
REMARK    5  A    between atoms: C_9  and  C_10
REMARK    6  A    between atoms: C_9  and  C_22
REMARK    7  A    between atoms: C_10  and  C_11
REMARK    8  A    between atoms: C_11  and  C_13
REMARK                            x       y       z     vdW  Elec       q    Type
REMARK                         _______ _______ _______ _____ _____    ______ ____
ROOT
ATOM      1  C   UNL     1       2.939   6.029  19.554  0.00  0.00    +0.000 C 
ENDROOT
BRANCH   1   2
ATOM      2  C   UNL     1       2.194   4.719  19.749  0.00  0.00    +0.000 A 
ATOM      3  C   UNL     1       2.123   4.153  21.035  0.00  0.00    +0.000 A 
ATOM      4  C   UNL     1       1.472   2.936  21.251  0.00  0.00    +0.000 A 
ATOM      5  C   UNL     1       0.877   2.266  20.184  0.00  0.00    +0.000 A 
ATOM      6  C   UNL     1       0.923   2.818  18.908  0.00  0.00    +0.000 A 
ATOM      7  C   UNL     1       1.569   4.037  18.692  0.00  0.00    +0.000 A 
ENDBRANCH   1   2
BRANCH   1   8
ATOM      8  N   UNL     1       4.383   5.864  19.497  0.00  0.00    +0.000 N 
ATOM      9  H   UNL     1       4.889   6.430  20.178  0.00  0.00    +0.000 HD
BRANCH   8  13
ATOM     10  C   UNL     1       6.271   4.986  15.851  0.00  0.00    +0.000 A 
ATOM     11  C   UNL     1       5.493   4.034  16.502  0.00  0.00    +0.000 A 
ATOM     12  C   UNL     1       4.904   4.335  17.733  0.00  0.00    +0.000 A 
ATOM     13  C   UNL     1       5.091   5.582  18.342  0.00  0.00    +0.000 A 
ATOM     14  C   UNL     1       5.923   6.506  17.707  0.00  0.00    +0.000 A 
ATOM     15  C   UNL     1       6.497   6.226  16.462  0.00  0.00    +0.000 A 
BRANCH  10  17
ATOM     16  O   UNL     1       6.289   3.779  13.804  0.00  0.00    +0.000 OA
ATOM     17  C   UNL     1       6.759   4.676  14.482  0.00  0.00    +0.000 C 
BRANCH  17  18
ATOM     18  O   UNL     1       7.779   5.457  14.073  0.00  0.00    +0.000 OA
ATOM     19  H   UNL     1       7.517   6.334  13.740  0.00  0.00    +0.000 HD
ENDBRANCH  17  18
ENDBRANCH  10  17
ENDBRANCH   8  13
ENDBRANCH   1   8
BRANCH   1  20
ATOM     20  C   UNL     1       2.454   6.858  18.368  0.00  0.00    +0.000 C 
BRANCH  20  21
ATOM     21  C   UNL     1       2.203   8.337  18.578  0.00  0.00    +0.000 C 
ATOM     22  O   UNL     1       2.712   9.126  17.768  0.00  0.00    +0.000 OA
BRANCH  21  23
ATOM     23  C   UNL     1       1.251   8.823  19.565  0.00  0.00    +0.000 A 
ATOM     24  C   UNL     1       1.017   8.318  20.832  0.00  0.00    +0.000 A 
ATOM     25  C   UNL     1       0.247   9.280  21.523  0.00  0.00    +0.000 A 
ATOM     26  C   UNL     1      -0.147   9.458  22.859  0.00  0.00    +0.000 A 
ATOM     27  C   UNL     1      -0.885  10.597  23.196  0.00  0.00    +0.000 A 
ATOM     28  C   UNL     1      -1.281  11.508  22.211  0.00  0.00    +0.000 A 
ATOM     29  C   UNL     1      -0.914  11.335  20.867  0.00  0.00    +0.000 A 
ATOM     30  C   UNL     1      -0.108  10.233  20.578  0.00  0.00    +0.000 A 
ATOM     31  O   UNL     1       0.488   9.947  19.379  0.00  0.00    +0.000 OA
ENDBRANCH  21  23
ENDBRANCH  20  21
ENDBRANCH   1  20
TORSDOF 8
ENDMDL
MODEL 7
REMARK VINA RESULT:      -8.8      0.528      1.459
REMARK  Name = 
REMARK  8 active torsions:
REMARK  status: ('A' for Active; 'I' for Inactive)
REMARK    1  A    between atoms: C_2  and  O_3
REMARK    2  A    between atoms: C_2  and  C_4
REMARK    3  A    between atoms: C_7  and  N_8
REMARK    4  A    between atoms: N_8  and  C_9
REMARK    5  A    between atoms: C_9  and  C_10
REMARK    6  A    between atoms: C_9  and  C_22
REMARK    7  A    between atoms: C_10  and  C_11
REMARK    8  A    between atoms: C_11  and  C_13
REMARK                            x       y       z     vdW  Elec       q    Type
REMARK                         _______ _______ _______ _____ _____    ______ ____
ROOT
ATOM      1  C   UNL     1       3.267   5.779  18.713  0.00  0.00    +0.000 C 
ENDROOT
BRANCH   1   2
ATOM      2  C   UNL     1       2.465   4.516  18.975  0.00  0.00    +0.000 A 
ATOM      3  C   UNL     1       1.935   4.291  20.258  0.00  0.00    +0.000 A 
ATOM      4  C   UNL     1       1.216   3.128  20.547  0.00  0.00    +0.000 A 
ATOM      5  C   UNL     1       1.012   2.172  19.555  0.00  0.00    +0.000 A 
ATOM      6  C   UNL     1       1.515   2.384  18.275  0.00  0.00    +0.000 A 
ATOM      7  C   UNL     1       2.229   3.548  17.984  0.00  0.00    +0.000 A 
ENDBRANCH   1   2
BRANCH   1   8
ATOM      8  N   UNL     1       3.008   6.834  19.680  0.00  0.00    +0.000 N 
ATOM      9  H   UNL     1       3.126   6.541  20.650  0.00  0.00    +0.000 HD
BRANCH   8  13
ATOM     10  C   UNL     1       0.396  10.100  19.299  0.00  0.00    +0.000 A 
ATOM     11  C   UNL     1       0.525   9.424  20.507  0.00  0.00    +0.000 A 
ATOM     12  C   UNL     1       1.372   8.317  20.603  0.00  0.00    +0.000 A 
ATOM     13  C   UNL     1       2.093   7.856  19.493  0.00  0.00    +0.000 A 
ATOM     14  C   UNL     1       1.908   8.506  18.272  0.00  0.00    +0.000 A 
ATOM     15  C   UNL     1       1.083   9.632  18.170  0.00  0.00    +0.000 A 
BRANCH  10  17
ATOM     16  O   UNL     1      -0.842  11.834  18.247  0.00  0.00    +0.000 OA
ATOM     17  C   UNL     1      -0.403  11.353  19.277  0.00  0.00    +0.000 C 
BRANCH  17  18
ATOM     18  O   UNL     1      -0.574  11.916  20.489  0.00  0.00    +0.000 OA
ATOM     19  H   UNL     1      -0.016  12.695  20.665  0.00  0.00    +0.000 HD
ENDBRANCH  17  18
ENDBRANCH  10  17
ENDBRANCH   8  13
ENDBRANCH   1   8
BRANCH   1  20
ATOM     20  C   UNL     1       4.769   5.552  18.569  0.00  0.00    +0.000 C 
BRANCH  20  21
ATOM     21  C   UNL     1       5.485   6.189  17.396  0.00  0.00    +0.000 C 
ATOM     22  O   UNL     1       5.902   7.348  17.540  0.00  0.00    +0.000 OA
BRANCH  21  23
ATOM     23  C   UNL     1       5.849   5.428  16.212  0.00  0.00    +0.000 A 
ATOM     24  C   UNL     1       5.155   4.379  15.636  0.00  0.00    +0.000 A 
ATOM     25  C   UNL     1       5.716   4.164  14.358  0.00  0.00    +0.000 A 
ATOM     26  C   UNL     1       5.357   3.403  13.234  0.00  0.00    +0.000 A 
ATOM     27  C   UNL     1       6.153   3.484  12.086  0.00  0.00    +0.000 A 
ATOM     28  C   UNL     1       7.320   4.253  12.079  0.00  0.00    +0.000 A 
ATOM     29  C   UNL     1       7.706   5.004  13.201  0.00  0.00    +0.000 A 
ATOM     30  C   UNL     1       6.848   4.967  14.300  0.00  0.00    +0.000 A 
ATOM     31  O   UNL     1       6.941   5.725  15.436  0.00  0.00    +0.000 OA
ENDBRANCH  21  23
ENDBRANCH  20  21
ENDBRANCH   1  20
TORSDOF 8
ENDMDL
MODEL 8
REMARK VINA RESULT:      -8.8      1.859      7.989
REMARK  Name = 
REMARK  8 active torsions:
REMARK  status: ('A' for Active; 'I' for Inactive)
REMARK    1  A    between atoms: C_2  and  O_3
REMARK    2  A    between atoms: C_2  and  C_4
REMARK    3  A    between atoms: C_7  and  N_8
REMARK    4  A    between atoms: N_8  and  C_9
REMARK    5  A    between atoms: C_9  and  C_10
REMARK    6  A    between atoms: C_9  and  C_22
REMARK    7  A    between atoms: C_10  and  C_11
REMARK    8  A    between atoms: C_11  and  C_13
REMARK                            x       y       z     vdW  Elec       q    Type
REMARK                         _______ _______ _______ _____ _____    ______ ____
ROOT
ATOM      1  C   UNL     1       2.653   6.117  19.369  0.00  0.00    +0.000 C 
ENDROOT
BRANCH   1   2
ATOM      2  C   UNL     1       2.036   4.743  19.573  0.00  0.00    +0.000 A 
ATOM      3  C   UNL     1       1.597   4.013  18.453  0.00  0.00    +0.000 A 
ATOM      4  C   UNL     1       0.999   2.759  18.600  0.00  0.00    +0.000 A 
ATOM      5  C   UNL     1       0.832   2.213  19.869  0.00  0.00    +0.000 A 
ATOM      6  C   UNL     1       1.274   2.912  20.988  0.00  0.00    +0.000 A 
ATOM      7  C   UNL     1       1.877   4.163  20.842  0.00  0.00    +0.000 A 
ENDBRANCH   1   2
BRANCH   1   8
ATOM      8  N   UNL     1       4.106   6.092  19.322  0.00  0.00    +0.000 N 
ATOM      9  H   UNL     1       4.550   6.745  19.966  0.00  0.00    +0.000 HD
BRANCH   8  13
ATOM     10  C   UNL     1       6.118   5.075  15.779  0.00  0.00    +0.000 A 
ATOM     11  C   UNL     1       5.820   4.110  16.735  0.00  0.00    +0.000 A 
ATOM     12  C   UNL     1       5.183   4.476  17.924  0.00  0.00    +0.000 A 
ATOM     13  C   UNL     1       4.845   5.810  18.186  0.00  0.00    +0.000 A 
ATOM     14  C   UNL     1       5.204   6.777  17.244  0.00  0.00    +0.000 A 
ATOM     15  C   UNL     1       5.817   6.419  16.039  0.00  0.00    +0.000 A 
BRANCH  10  17
ATOM     16  O   UNL     1       7.415   5.310  13.802  0.00  0.00    +0.000 OA
ATOM     17  C   UNL     1       6.665   4.623  14.473  0.00  0.00    +0.000 C 
BRANCH  17  18
ATOM     18  O   UNL     1       6.239   3.403  14.091  0.00  0.00    +0.000 OA
ATOM     19  H   UNL     1       5.870   3.358  13.192  0.00  0.00    +0.000 HD
ENDBRANCH  17  18
ENDBRANCH  10  17
ENDBRANCH   8  13
ENDBRANCH   1   8
BRANCH   1  20
ATOM     20  C   UNL     1       2.098   6.884  18.172  0.00  0.00    +0.000 C 
BRANCH  20  21
ATOM     21  C   UNL     1       2.069   8.397  18.238  0.00  0.00    +0.000 C 
ATOM     22  O   UNL     1       2.399   9.021  17.218  0.00  0.00    +0.000 OA
BRANCH  21  23
ATOM     23  C   UNL     1       1.497   9.107  19.370  0.00  0.00    +0.000 A 
ATOM     24  C   UNL     1       0.898  10.354  19.369  0.00  0.00    +0.000 A 
ATOM     25  C   UNL     1       0.233  10.494  20.607  0.00  0.00    +0.000 A 
ATOM     26  C   UNL     1      -0.689  11.411  21.138  0.00  0.00    +0.000 A 
ATOM     27  C   UNL     1      -1.190  11.191  22.425  0.00  0.00    +0.000 A 
ATOM     28  C   UNL     1      -0.733  10.117  23.195  0.00  0.00    +0.000 A 
ATOM     29  C   UNL     1       0.204   9.202  22.689  0.00  0.00    +0.000 A 
ATOM     30  C   UNL     1       0.621   9.402  21.373  0.00  0.00    +0.000 A 
ATOM     31  O   UNL     1       1.407   8.565  20.627  0.00  0.00    +0.000 OA
ENDBRANCH  21  23
ENDBRANCH  20  21
ENDBRANCH   1  20
TORSDOF 8
ENDMDL
MODEL 9
REMARK VINA RESULT:      -8.8      0.770      1.309
REMARK  Name = 
REMARK  8 active torsions:
REMARK  status: ('A' for Active; 'I' for Inactive)
REMARK    1  A    between atoms: C_2  and  O_3
REMARK    2  A    between atoms: C_2  and  C_4
REMARK    3  A    between atoms: C_7  and  N_8
REMARK    4  A    between atoms: N_8  and  C_9
REMARK    5  A    between atoms: C_9  and  C_10
REMARK    6  A    between atoms: C_9  and  C_22
REMARK    7  A    between atoms: C_10  and  C_11
REMARK    8  A    between atoms: C_11  and  C_13
REMARK                            x       y       z     vdW  Elec       q    Type
REMARK                         _______ _______ _______ _____ _____    ______ ____
ROOT
ATOM      1  C   UNL     1       3.563   5.335  18.533  0.00  0.00    +0.000 C 
ENDROOT
BRANCH   1   2
ATOM      2  C   UNL     1       2.568   4.397  19.193  0.00  0.00    +0.000 A 
ATOM      3  C   UNL     1       1.648   3.695  18.392  0.00  0.00    +0.000 A 
ATOM      4  C   UNL     1       0.698   2.844  18.962  0.00  0.00    +0.000 A 
ATOM      5  C   UNL     1       0.654   2.678  20.344  0.00  0.00    +0.000 A 
ATOM      6  C   UNL     1       1.565   3.351  21.152  0.00  0.00    +0.000 A 
ATOM      7  C   UNL     1       2.519   4.197  20.583  0.00  0.00    +0.000 A 
ENDBRANCH   1   2
BRANCH   1   8
ATOM      8  N   UNL     1       3.594   6.657  19.139  0.00  0.00    +0.000 N 
ATOM      9  H   UNL     1       4.121   6.698  20.010  0.00  0.00    +0.000 HD
BRANCH   8  13
ATOM     10  C   UNL     1       0.644   9.643  19.026  0.00  0.00    +0.000 A 
ATOM     11  C   UNL     1       0.876   8.910  20.184  0.00  0.00    +0.000 A 
ATOM     12  C   UNL     1       1.838   7.896  20.190  0.00  0.00    +0.000 A 
ATOM     13  C   UNL     1       2.572   7.585  19.038  0.00  0.00    +0.000 A 
ATOM     14  C   UNL     1       2.286   8.288  17.866  0.00  0.00    +0.000 A 
ATOM     15  C   UNL     1       1.345   9.323  17.855  0.00  0.00    +0.000 A 
BRANCH  10  17
ATOM     16  O   UNL     1      -1.492  10.684  19.022  0.00  0.00    +0.000 OA
ATOM     17  C   UNL     1      -0.283  10.803  19.103  0.00  0.00    +0.000 C 
BRANCH  17  18
ATOM     18  O   UNL     1       0.337  11.991  19.246  0.00  0.00    +0.000 OA
ATOM     19  H   UNL     1       0.384  12.531  18.437  0.00  0.00    +0.000 HD
ENDBRANCH  17  18
ENDBRANCH  10  17
ENDBRANCH   8  13
ENDBRANCH   1   8
BRANCH   1  20
ATOM     20  C   UNL     1       4.978   4.773  18.419  0.00  0.00    +0.000 C 
BRANCH  20  21
ATOM     21  C   UNL     1       5.968   5.490  17.526  0.00  0.00    +0.000 C 
ATOM     22  O   UNL     1       6.596   6.443  18.014  0.00  0.00    +0.000 OA
BRANCH  21  23
ATOM     23  C   UNL     1       6.326   4.983  16.211  0.00  0.00    +0.000 A 
ATOM     24  C   UNL     1       5.755   3.922  15.532  0.00  0.00    +0.000 A 
ATOM     25  C   UNL     1       6.208   3.994  14.196  0.00  0.00    +0.000 A 
ATOM     26  C   UNL     1       5.863   3.351  12.997  0.00  0.00    +0.000 A 
ATOM     27  C   UNL     1       6.512   3.733  11.818  0.00  0.00    +0.000 A 
ATOM     28  C   UNL     1       7.532   4.689  11.843  0.00  0.00    +0.000 A 
ATOM     29  C   UNL     1       7.906   5.327  13.036  0.00  0.00    +0.000 A 
ATOM     30  C   UNL     1       7.183   4.984  14.179  0.00  0.00    +0.000 A 
ATOM     31  O   UNL     1       7.269   5.575  15.410  0.00  0.00    +0.000 OA
ENDBRANCH  21  23
ENDBRANCH  20  21
ENDBRANCH   1  20
TORSDOF 8
ENDMDL
