MODEL 1
REMARK VINA RESULT:      -8.2      0.000      0.000
REMARK  Name = 
REMARK  9 active torsions:
REMARK  status: ('A' for Active; 'I' for Inactive)
REMARK    1  A    between atoms: C_1  and  O_2
REMARK    2  A    between atoms: O_2  and  C_3
REMARK    3  A    between atoms: C_6  and  C_7
REMARK    4  A    between atoms: C_7  and  C_8
REMARK    5  A    between atoms: C_8  and  N_9
REMARK    6  A    between atoms: C_10  and  C_12
REMARK    7  A    between atoms: C_12  and  C_13
REMARK    8  A    between atoms: C_24  and  O_25
REMARK    9  A    between atoms: O_25  and  C_26
REMARK                            x       y       z     vdW  Elec       q    Type
REMARK                         _______ _______ _______ _____ _____    ______ ____
ROOT
ATOM      1  N   UNL     1       2.195   2.638  19.351  0.00  0.00    +0.000 NA
ATOM      2  C   UNL     1       1.721   3.640  20.026  0.00  0.00    +0.000 C 
ATOM      3  N   UNL     1       0.316   3.745  20.190  0.00  0.00    +0.000 N 
ATOM      4  H   UNL     1      -0.310   3.044  19.770  0.00  0.00    +0.000 HD
ATOM      5  H   UNL     1      -0.093   4.544  20.694  0.00  0.00    +0.000 HD
ENDROOT
BRANCH   1   6
ATOM      6  C   UNL     1       3.603   2.390  19.095  0.00  0.00    +0.000 C 
BRANCH   6   7
ATOM      7  C   UNL     1       3.958   2.635  17.624  0.00  0.00    +0.000 C 
BRANCH   7  11
ATOM      8  C   UNL     1       6.795   5.869  17.035  0.00  0.00    +0.000 A 
ATOM      9  C   UNL     1       6.472   5.414  18.334  0.00  0.00    +0.000 A 
ATOM     10  C   UNL     1       5.554   4.380  18.522  0.00  0.00    +0.000 A 
ATOM     11  C   UNL     1       4.936   3.770  17.424  0.00  0.00    +0.000 A 
ATOM     12  C   UNL     1       5.255   4.211  16.134  0.00  0.00    +0.000 A 
ATOM     13  C   UNL     1       6.166   5.252  15.920  0.00  0.00    +0.000 A 
BRANCH   8  15
ATOM     14  C   UNL     1       7.829   8.011  17.610  0.00  0.00    +0.000 C 
ATOM     15  O   UNL     1       7.697   6.872  16.843  0.00  0.00    +0.000 OA
ENDBRANCH   8  15
BRANCH  13  16
ATOM     16  O   UNL     1       6.377   5.602  14.622  0.00  0.00    +0.000 OA
ATOM     17  C   UNL     1       7.218   5.014  13.703  0.00  0.00    +0.000 C 
ENDBRANCH  13  16
ENDBRANCH   7  11
ENDBRANCH   6   7
ENDBRANCH   1   6
BRANCH   2  18
ATOM     18  C   UNL     1       2.600   4.731  20.621  0.00  0.00    +0.000 C 
BRANCH  18  19
ATOM     19  C   UNL     1       2.397   6.081  19.977  0.00  0.00    +0.000 A 
ATOM     20  C   UNL     1       2.754   6.266  18.631  0.00  0.00    +0.000 A 
ATOM     21  C   UNL     1       2.470   7.467  17.978  0.00  0.00    +0.000 A 
ATOM     22  C   UNL     1       1.811   8.500  18.658  0.00  0.00    +0.000 A 
ATOM     23  C   UNL     1       1.461   9.682  17.987  0.00  0.00    +0.000 A 
ATOM     24  C   UNL     1       0.784  10.698  18.664  0.00  0.00    +0.000 A 
ATOM     25  C   UNL     1       0.469  10.553  20.018  0.00  0.00    +0.000 A 
ATOM     26  C   UNL     1       0.818   9.384  20.700  0.00  0.00    +0.000 A 
ATOM     27  C   UNL     1       1.479   8.342  20.025  0.00  0.00    +0.000 A 
ATOM     28  C   UNL     1       1.782   7.132  20.680  0.00  0.00    +0.000 A 
ENDBRANCH  18  19
ENDBRANCH   2  18
TORSDOF 7
ENDMDL
MODEL 2
REMARK VINA RESULT:      -7.7      3.997      6.994
REMARK  Name = 
REMARK  9 active torsions:
REMARK  status: ('A' for Active; 'I' for Inactive)
REMARK    1  A    between atoms: C_1  and  O_2
REMARK    2  A    between atoms: O_2  and  C_3
REMARK    3  A    between atoms: C_6  and  C_7
REMARK    4  A    between atoms: C_7  and  C_8
REMARK    5  A    between atoms: C_8  and  N_9
REMARK    6  A    between atoms: C_10  and  C_12
REMARK    7  A    between atoms: C_12  and  C_13
REMARK    8  A    between atoms: C_24  and  O_25
REMARK    9  A    between atoms: O_25  and  C_26
REMARK                            x       y       z     vdW  Elec       q    Type
REMARK                         _______ _______ _______ _____ _____    ______ ____
ROOT
ATOM      1  N   UNL     1       7.702   6.756  16.979  0.00  0.00    +0.000 NA
ATOM      2  C   UNL     1       6.855   5.948  16.420  0.00  0.00    +0.000 C 
ATOM      3  N   UNL     1       7.308   4.669  16.007  0.00  0.00    +0.000 N 
ATOM      4  H   UNL     1       8.292   4.398  16.140  0.00  0.00    +0.000 HD
ATOM      5  H   UNL     1       6.668   4.016  15.533  0.00  0.00    +0.000 HD
ENDROOT
BRANCH   1   6
ATOM      6  C   UNL     1       7.397   8.094  17.456  0.00  0.00    +0.000 C 
BRANCH   6   7
ATOM      7  C   UNL     1       8.440   8.580  18.470  0.00  0.00    +0.000 C 
BRANCH   7  11
ATOM      8  C   UNL     1       9.218  12.846  18.256  0.00  0.00    +0.000 A 
ATOM      9  C   UNL     1       8.181  12.259  17.497  0.00  0.00    +0.000 A 
ATOM     10  C   UNL     1       7.937  10.886  17.560  0.00  0.00    +0.000 A 
ATOM     11  C   UNL     1       8.716  10.063  18.383  0.00  0.00    +0.000 A 
ATOM     12  C   UNL     1       9.741  10.639  19.143  0.00  0.00    +0.000 A 
ATOM     13  C   UNL     1      10.011  12.011  19.089  0.00  0.00    +0.000 A 
BRANCH   8  15
ATOM     14  C   UNL     1       8.530  15.171  17.929  0.00  0.00    +0.000 C 
ATOM     15  O   UNL     1       9.456  14.186  18.206  0.00  0.00    +0.000 OA
ENDBRANCH   8  15
BRANCH  13  16
ATOM     16  O   UNL     1      11.045  12.446  19.860  0.00  0.00    +0.000 OA
ATOM     17  C   UNL     1      12.325  11.944  19.935  0.00  0.00    +0.000 C 
ENDBRANCH  13  16
ENDBRANCH   7  11
ENDBRANCH   6   7
ENDBRANCH   1   6
BRANCH   2  18
ATOM     18  C   UNL     1       5.403   6.320  16.154  0.00  0.00    +0.000 C 
BRANCH  18  19
ATOM     19  C   UNL     1       4.444   5.755  17.173  0.00  0.00    +0.000 A 
ATOM     20  C   UNL     1       3.959   6.581  18.201  0.00  0.00    +0.000 A 
ATOM     21  C   UNL     1       2.983   6.118  19.085  0.00  0.00    +0.000 A 
ATOM     22  C   UNL     1       2.465   4.823  18.949  0.00  0.00    +0.000 A 
ATOM     23  C   UNL     1       1.435   4.378  19.791  0.00  0.00    +0.000 A 
ATOM     24  C   UNL     1       0.907   3.094  19.635  0.00  0.00    +0.000 A 
ATOM     25  C   UNL     1       1.415   2.240  18.653  0.00  0.00    +0.000 A 
ATOM     26  C   UNL     1       2.446   2.668  17.811  0.00  0.00    +0.000 A 
ATOM     27  C   UNL     1       2.971   3.966  17.941  0.00  0.00    +0.000 A 
ATOM     28  C   UNL     1       3.966   4.437  17.062  0.00  0.00    +0.000 A 
ENDBRANCH  18  19
ENDBRANCH   2  18
TORSDOF 7
ENDMDL
MODEL 3
REMARK VINA RESULT:      -7.6      0.691      1.501
REMARK  Name = 
REMARK  9 active torsions:
REMARK  status: ('A' for Active; 'I' for Inactive)
REMARK    1  A    between atoms: C_1  and  O_2
REMARK    2  A    between atoms: O_2  and  C_3
REMARK    3  A    between atoms: C_6  and  C_7
REMARK    4  A    between atoms: C_7  and  C_8
REMARK    5  A    between atoms: C_8  and  N_9
REMARK    6  A    between atoms: C_10  and  C_12
REMARK    7  A    between atoms: C_12  and  C_13
REMARK    8  A    between atoms: C_24  and  O_25
REMARK    9  A    between atoms: O_25  and  C_26
REMARK                            x       y       z     vdW  Elec       q    Type
REMARK                         _______ _______ _______ _____ _____    ______ ____
ROOT
ATOM      1  N   UNL     1       2.381   2.542  18.916  0.00  0.00    +0.000 NA
ATOM      2  C   UNL     1       1.825   3.324  19.790  0.00  0.00    +0.000 C 
ATOM      3  N   UNL     1       0.433   3.192  20.031  0.00  0.00    +0.000 N 
ATOM      4  H   UNL     1      -0.121   2.497  19.512  0.00  0.00    +0.000 HD
ATOM      5  H   UNL     1      -0.043   3.818  20.695  0.00  0.00    +0.000 HD
ENDROOT
BRANCH   1   6
ATOM      6  C   UNL     1       3.788   2.550  18.558  0.00  0.00    +0.000 C 
BRANCH   6   7
ATOM      7  C   UNL     1       4.002   3.088  17.137  0.00  0.00    +0.000 C 
BRANCH   7  11
ATOM      8  C   UNL     1       6.968   6.251  16.929  0.00  0.00    +0.000 A 
ATOM      9  C   UNL     1       6.192   6.061  18.094  0.00  0.00    +0.000 A 
ATOM     10  C   UNL     1       5.233   5.048  18.157  0.00  0.00    +0.000 A 
ATOM     11  C   UNL     1       5.024   4.198  17.064  0.00  0.00    +0.000 A 
ATOM     12  C   UNL     1       5.794   4.377  15.908  0.00  0.00    +0.000 A 
ATOM     13  C   UNL     1       6.755   5.391  15.817  0.00  0.00    +0.000 A 
BRANCH   8  15
ATOM     14  C   UNL     1       8.024   8.317  17.706  0.00  0.00    +0.000 C 
ATOM     15  O   UNL     1       7.912   7.231  16.863  0.00  0.00    +0.000 OA
ENDBRANCH   8  15
BRANCH  13  16
ATOM     16  O   UNL     1       7.424   5.474  14.635  0.00  0.00    +0.000 OA
ATOM     17  C   UNL     1       7.223   4.744  13.485  0.00  0.00    +0.000 C 
ENDBRANCH  13  16
ENDBRANCH   7  11
ENDBRANCH   6   7
ENDBRANCH   1   6
BRANCH   2  18
ATOM     18  C   UNL     1       2.589   4.402  20.544  0.00  0.00    +0.000 C 
BRANCH  18  19
ATOM     19  C   UNL     1       2.078   5.797  20.275  0.00  0.00    +0.000 A 
ATOM     20  C   UNL     1       1.285   6.441  21.239  0.00  0.00    +0.000 A 
ATOM     21  C   UNL     1       0.897   7.771  21.068  0.00  0.00    +0.000 A 
ATOM     22  C   UNL     1       1.308   8.485  19.934  0.00  0.00    +0.000 A 
ATOM     23  C   UNL     1       0.979   9.842  19.792  0.00  0.00    +0.000 A 
ATOM     24  C   UNL     1       1.412  10.554  18.670  0.00  0.00    +0.000 A 
ATOM     25  C   UNL     1       2.155   9.914  17.675  0.00  0.00    +0.000 A 
ATOM     26  C   UNL     1       2.484   8.561  17.801  0.00  0.00    +0.000 A 
ATOM     27  C   UNL     1       2.076   7.838  18.937  0.00  0.00    +0.000 A 
ATOM     28  C   UNL     1       2.451   6.492  19.111  0.00  0.00    +0.000 A 
ENDBRANCH  18  19
ENDBRANCH   2  18
TORSDOF 7
ENDMDL
MODEL 4
REMARK VINA RESULT:      -7.5      2.318      6.056
REMARK  Name = 
REMARK  9 active torsions:
REMARK  status: ('A' for Active; 'I' for Inactive)
REMARK    1  A    between atoms: C_1  and  O_2
REMARK    2  A    between atoms: O_2  and  C_3
REMARK    3  A    between atoms: C_6  and  C_7
REMARK    4  A    between atoms: C_7  and  C_8
REMARK    5  A    between atoms: C_8  and  N_9
REMARK    6  A    between atoms: C_10  and  C_12
REMARK    7  A    between atoms: C_12  and  C_13
REMARK    8  A    between atoms: C_24  and  O_25
REMARK    9  A    between atoms: O_25  and  C_26
REMARK                            x       y       z     vdW  Elec       q    Type
REMARK                         _______ _______ _______ _____ _____    ______ ____
ROOT
ATOM      1  N   UNL     1       2.724   2.434  19.618  0.00  0.00    +0.000 NA
ATOM      2  C   UNL     1       3.398   2.054  18.576  0.00  0.00    +0.000 C 
ATOM      3  N   UNL     1       4.213   0.897  18.680  0.00  0.00    +0.000 N 
ATOM      4  H   UNL     1       4.272   0.381  19.569  0.00  0.00    +0.000 HD
ATOM      5  H   UNL     1       4.783   0.586  17.882  0.00  0.00    +0.000 HD
ENDROOT
BRANCH   1   6
ATOM      6  C   UNL     1       1.848   3.591  19.673  0.00  0.00    +0.000 C 
BRANCH   6   7
ATOM      7  C   UNL     1       2.452   4.712  20.529  0.00  0.00    +0.000 C 
BRANCH   7  11
ATOM      8  C   UNL     1       1.853   8.662  18.831  0.00  0.00    +0.000 A 
ATOM      9  C   UNL     1       2.447   7.629  18.072  0.00  0.00    +0.000 A 
ATOM     10  C   UNL     1       2.646   6.361  18.622  0.00  0.00    +0.000 A 
ATOM     11  C   UNL     1       2.257   6.089  19.939  0.00  0.00    +0.000 A 
ATOM     12  C   UNL     1       1.663   7.106  20.695  0.00  0.00    +0.000 A 
ATOM     13  C   UNL     1       1.461   8.388  20.170  0.00  0.00    +0.000 A 
BRANCH   8  15
ATOM     14  C   UNL     1       0.925  10.926  18.872  0.00  0.00    +0.000 C 
ATOM     15  O   UNL     1       1.647   9.899  18.299  0.00  0.00    +0.000 OA
ENDBRANCH   8  15
BRANCH  13  16
ATOM     16  O   UNL     1       0.892   9.294  21.010  0.00  0.00    +0.000 OA
ATOM     17  C   UNL     1      -0.001   9.068  22.034  0.00  0.00    +0.000 C 
ENDBRANCH  13  16
ENDBRANCH   7  11
ENDBRANCH   6   7
ENDBRANCH   1   6
BRANCH   2  18
ATOM     18  C   UNL     1       3.386   2.811  17.257  0.00  0.00    +0.000 C 
BRANCH  18  19
ATOM     19  C   UNL     1       4.469   3.859  17.158  0.00  0.00    +0.000 A 
ATOM     20  C   UNL     1       4.529   4.688  16.025  0.00  0.00    +0.000 A 
ATOM     21  C   UNL     1       5.445   5.739  15.961  0.00  0.00    +0.000 A 
ATOM     22  C   UNL     1       6.309   5.988  17.036  0.00  0.00    +0.000 A 
ATOM     23  C   UNL     1       7.182   7.086  17.005  0.00  0.00    +0.000 A 
ATOM     24  C   UNL     1       8.025   7.343  18.090  0.00  0.00    +0.000 A 
ATOM     25  C   UNL     1       8.016   6.497  19.201  0.00  0.00    +0.000 A 
ATOM     26  C   UNL     1       7.156   5.396  19.242  0.00  0.00    +0.000 A 
ATOM     27  C   UNL     1       6.285   5.139  18.168  0.00  0.00    +0.000 A 
ATOM     28  C   UNL     1       5.368   4.072  18.219  0.00  0.00    +0.000 A 
ENDBRANCH  18  19
ENDBRANCH   2  18
TORSDOF 7
ENDMDL
MODEL 5
REMARK VINA RESULT:      -7.5      3.280      6.604
REMARK  Name = 
REMARK  9 active torsions:
REMARK  status: ('A' for Active; 'I' for Inactive)
REMARK    1  A    between atoms: C_1  and  O_2
REMARK    2  A    between atoms: O_2  and  C_3
REMARK    3  A    between atoms: C_6  and  C_7
REMARK    4  A    between atoms: C_7  and  C_8
REMARK    5  A    between atoms: C_8  and  N_9
REMARK    6  A    between atoms: C_10  and  C_12
REMARK    7  A    between atoms: C_12  and  C_13
REMARK    8  A    between atoms: C_24  and  O_25
REMARK    9  A    between atoms: O_25  and  C_26
REMARK                            x       y       z     vdW  Elec       q    Type
REMARK                         _______ _______ _______ _____ _____    ______ ____
ROOT
ATOM      1  N   UNL     1       5.617   6.772  16.126  0.00  0.00    +0.000 NA
ATOM      2  C   UNL     1       6.225   5.626  16.118  0.00  0.00    +0.000 C 
ATOM      3  N   UNL     1       6.899   5.223  14.936  0.00  0.00    +0.000 N 
ATOM      4  H   UNL     1       6.893   5.827  14.103  0.00  0.00    +0.000 HD
ATOM      5  H   UNL     1       7.364   4.306  14.888  0.00  0.00    +0.000 HD
ENDROOT
BRANCH   1   6
ATOM      6  C   UNL     1       4.885   7.326  17.252  0.00  0.00    +0.000 C 
BRANCH   6   7
ATOM      7  C   UNL     1       3.370   7.245  17.031  0.00  0.00    +0.000 C 
BRANCH   7  11
ATOM      8  C   UNL     1       1.093   9.147  20.200  0.00  0.00    +0.000 A 
ATOM      9  C   UNL     1       1.700   7.887  20.400  0.00  0.00    +0.000 A 
ATOM     10  C   UNL     1       2.426   7.273  19.377  0.00  0.00    +0.000 A 
ATOM     11  C   UNL     1       2.567   7.898  18.132  0.00  0.00    +0.000 A 
ATOM     12  C   UNL     1       1.973   9.149  17.930  0.00  0.00    +0.000 A 
ATOM     13  C   UNL     1       1.233   9.781  18.936  0.00  0.00    +0.000 A 
BRANCH   8  15
ATOM     14  C   UNL     1      -0.338   9.130  22.185  0.00  0.00    +0.000 C 
ATOM     15  O   UNL     1       0.391   9.757  21.196  0.00  0.00    +0.000 OA
ENDBRANCH   8  15
BRANCH  13  16
ATOM     16  O   UNL     1       0.690  10.985  18.609  0.00  0.00    +0.000 OA
ATOM     17  C   UNL     1       1.174  12.245  18.881  0.00  0.00    +0.000 C 
ENDBRANCH  13  16
ENDBRANCH   7  11
ENDBRANCH   6   7
ENDBRANCH   1   6
BRANCH   2  18
ATOM     18  C   UNL     1       6.218   4.674  17.305  0.00  0.00    +0.000 C 
BRANCH  18  19
ATOM     19  C   UNL     1       4.830   4.261  17.733  0.00  0.00    +0.000 A 
ATOM     20  C   UNL     1       3.932   3.759  16.777  0.00  0.00    +0.000 A 
ATOM     21  C   UNL     1       2.686   3.261  17.164  0.00  0.00    +0.000 A 
ATOM     22  C   UNL     1       2.323   3.245  18.517  0.00  0.00    +0.000 A 
ATOM     23  C   UNL     1       1.101   2.682  18.917  0.00  0.00    +0.000 A 
ATOM     24  C   UNL     1       0.755   2.648  20.271  0.00  0.00    +0.000 A 
ATOM     25  C   UNL     1       1.613   3.192  21.230  0.00  0.00    +0.000 A 
ATOM     26  C   UNL     1       2.830   3.762  20.844  0.00  0.00    +0.000 A 
ATOM     27  C   UNL     1       3.202   3.782  19.488  0.00  0.00    +0.000 A 
ATOM     28  C   UNL     1       4.451   4.295  19.087  0.00  0.00    +0.000 A 
ENDBRANCH  18  19
ENDBRANCH   2  18
TORSDOF 7
ENDMDL
MODEL 6
REMARK VINA RESULT:      -7.5      4.529      7.494
REMARK  Name = 
REMARK  9 active torsions:
REMARK  status: ('A' for Active; 'I' for Inactive)
REMARK    1  A    between atoms: C_1  and  O_2
REMARK    2  A    between atoms: O_2  and  C_3
REMARK    3  A    between atoms: C_6  and  C_7
REMARK    4  A    between atoms: C_7  and  C_8
REMARK    5  A    between atoms: C_8  and  N_9
REMARK    6  A    between atoms: C_10  and  C_12
REMARK    7  A    between atoms: C_12  and  C_13
REMARK    8  A    between atoms: C_24  and  O_25
REMARK    9  A    between atoms: O_25  and  C_26
REMARK                            x       y       z     vdW  Elec       q    Type
REMARK                         _______ _______ _______ _____ _____    ______ ____
ROOT
ATOM      1  N   UNL     1       7.868   7.504  16.961  0.00  0.00    +0.000 NA
ATOM      2  C   UNL     1       6.913   6.672  16.680  0.00  0.00    +0.000 C 
ATOM      3  N   UNL     1       7.224   5.508  15.932  0.00  0.00    +0.000 N 
ATOM      4  H   UNL     1       8.187   5.338  15.611  0.00  0.00    +0.000 HD
ATOM      5  H   UNL     1       6.483   4.844  15.667  0.00  0.00    +0.000 HD
ENDROOT
BRANCH   1   6
ATOM      6  C   UNL     1       7.715   8.735  17.716  0.00  0.00    +0.000 C 
BRANCH   6   7
ATOM      7  C   UNL     1       8.783   8.860  18.809  0.00  0.00    +0.000 C 
BRANCH   7  11
ATOM      8  C   UNL     1      10.133  12.942  19.414  0.00  0.00    +0.000 A 
ATOM      9  C   UNL     1      10.056  12.388  18.116  0.00  0.00    +0.000 A 
ATOM     10  C   UNL     1       9.629  11.073  17.923  0.00  0.00    +0.000 A 
ATOM     11  C   UNL     1       9.266  10.277  19.017  0.00  0.00    +0.000 A 
ATOM     12  C   UNL     1       9.334  10.821  20.305  0.00  0.00    +0.000 A 
ATOM     13  C   UNL     1       9.767  12.133  20.524  0.00  0.00    +0.000 A 
BRANCH   8  15
ATOM     14  C   UNL     1      11.844  14.679  19.628  0.00  0.00    +0.000 C 
ATOM     15  O   UNL     1      10.540  14.227  19.609  0.00  0.00    +0.000 OA
ENDBRANCH   8  15
BRANCH  13  16
ATOM     16  O   UNL     1       9.808  12.538  21.823  0.00  0.00    +0.000 OA
ATOM     17  C   UNL     1       8.797  12.519  22.757  0.00  0.00    +0.000 C 
ENDBRANCH  13  16
ENDBRANCH   7  11
ENDBRANCH   6   7
ENDBRANCH   1   6
BRANCH   2  18
ATOM     18  C   UNL     1       5.464   6.904  17.086  0.00  0.00    +0.000 C 
BRANCH  18  19
ATOM     19  C   UNL     1       4.840   5.717  17.781  0.00  0.00    +0.000 A 
ATOM     20  C   UNL     1       5.530   5.088  18.831  0.00  0.00    +0.000 A 
ATOM     21  C   UNL     1       4.927   4.066  19.565  0.00  0.00    +0.000 A 
ATOM     22  C   UNL     1       3.618   3.663  19.271  0.00  0.00    +0.000 A 
ATOM     23  C   UNL     1       2.983   2.685  20.052  0.00  0.00    +0.000 A 
ATOM     24  C   UNL     1       1.669   2.305  19.767  0.00  0.00    +0.000 A 
ATOM     25  C   UNL     1       0.987   2.881  18.693  0.00  0.00    +0.000 A 
ATOM     26  C   UNL     1       1.610   3.852  17.903  0.00  0.00    +0.000 A 
ATOM     27  C   UNL     1       2.924   4.262  18.192  0.00  0.00    +0.000 A 
ATOM     28  C   UNL     1       3.545   5.283  17.447  0.00  0.00    +0.000 A 
ENDBRANCH  18  19
ENDBRANCH   2  18
TORSDOF 7
ENDMDL
MODEL 7
REMARK VINA RESULT:      -7.5      4.459      7.483
REMARK  Name = 
REMARK  9 active torsions:
REMARK  status: ('A' for Active; 'I' for Inactive)
REMARK    1  A    between atoms: C_1  and  O_2
REMARK    2  A    between atoms: O_2  and  C_3
REMARK    3  A    between atoms: C_6  and  C_7
REMARK    4  A    between atoms: C_7  and  C_8
REMARK    5  A    between atoms: C_8  and  N_9
REMARK    6  A    between atoms: C_10  and  C_12
REMARK    7  A    between atoms: C_12  and  C_13
REMARK    8  A    between atoms: C_24  and  O_25
REMARK    9  A    between atoms: O_25  and  C_26
REMARK                            x       y       z     vdW  Elec       q    Type
REMARK                         _______ _______ _______ _____ _____    ______ ____
ROOT
ATOM      1  N   UNL     1       7.599   7.825  16.906  0.00  0.00    +0.000 NA
ATOM      2  C   UNL     1       7.305   6.583  17.139  0.00  0.00    +0.000 C 
ATOM      3  N   UNL     1       7.388   5.653  16.070  0.00  0.00    +0.000 N 
ATOM      4  H   UNL     1       7.666   5.966  15.130  0.00  0.00    +0.000 HD
ATOM      5  H   UNL     1       7.133   4.667  16.216  0.00  0.00    +0.000 HD
ENDROOT
BRANCH   1   6
ATOM      6  C   UNL     1       7.563   8.895  17.888  0.00  0.00    +0.000 C 
BRANCH   6   7
ATOM      7  C   UNL     1       8.898   9.014  18.635  0.00  0.00    +0.000 C 
BRANCH   7  11
ATOM      8  C   UNL     1       9.888  13.108  19.691  0.00  0.00    +0.000 A 
ATOM      9  C   UNL     1       9.874  12.690  18.342  0.00  0.00    +0.000 A 
ATOM     10  C   UNL     1       9.563  11.372  18.004  0.00  0.00    +0.000 A 
ATOM     11  C   UNL     1       9.256  10.437  19.000  0.00  0.00    +0.000 A 
ATOM     12  C   UNL     1       9.262  10.845  20.339  0.00  0.00    +0.000 A 
ATOM     13  C   UNL     1       9.579  12.158  20.703  0.00  0.00    +0.000 A 
BRANCH   8  15
ATOM     14  C   UNL     1       9.517  15.524  19.597  0.00  0.00    +0.000 C 
ATOM     15  O   UNL     1      10.181  14.395  20.028  0.00  0.00    +0.000 OA
ENDBRANCH   8  15
BRANCH  13  16
ATOM     16  O   UNL     1       9.569  12.425  22.037  0.00  0.00    +0.000 OA
ATOM     17  C   UNL     1       8.535  12.912  22.805  0.00  0.00    +0.000 C 
ENDBRANCH  13  16
ENDBRANCH   7  11
ENDBRANCH   6   7
ENDBRANCH   1   6
BRANCH   2  18
ATOM     18  C   UNL     1       6.840   6.081  18.498  0.00  0.00    +0.000 C 
BRANCH  18  19
ATOM     19  C   UNL     1       5.410   5.594  18.499  0.00  0.00    +0.000 A 
ATOM     20  C   UNL     1       4.415   6.369  17.880  0.00  0.00    +0.000 A 
ATOM     21  C   UNL     1       3.109   5.889  17.764  0.00  0.00    +0.000 A 
ATOM     22  C   UNL     1       2.780   4.617  18.253  0.00  0.00    +0.000 A 
ATOM     23  C   UNL     1       1.486   4.102  18.076  0.00  0.00    +0.000 A 
ATOM     24  C   UNL     1       1.170   2.825  18.546  0.00  0.00    +0.000 A 
ATOM     25  C   UNL     1       2.133   2.062  19.211  0.00  0.00    +0.000 A 
ATOM     26  C   UNL     1       3.424   2.566  19.400  0.00  0.00    +0.000 A 
ATOM     27  C   UNL     1       3.763   3.841  18.912  0.00  0.00    +0.000 A 
ATOM     28  C   UNL     1       5.074   4.339  19.037  0.00  0.00    +0.000 A 
ENDBRANCH  18  19
ENDBRANCH   2  18
TORSDOF 7
ENDMDL
MODEL 8
REMARK VINA RESULT:      -7.5      0.905      2.084
REMARK  Name = 
REMARK  9 active torsions:
REMARK  status: ('A' for Active; 'I' for Inactive)
REMARK    1  A    between atoms: C_1  and  O_2
REMARK    2  A    between atoms: O_2  and  C_3
REMARK    3  A    between atoms: C_6  and  C_7
REMARK    4  A    between atoms: C_7  and  C_8
REMARK    5  A    between atoms: C_8  and  N_9
REMARK    6  A    between atoms: C_10  and  C_12
REMARK    7  A    between atoms: C_12  and  C_13
REMARK    8  A    between atoms: C_24  and  O_25
REMARK    9  A    between atoms: O_25  and  C_26
REMARK                            x       y       z     vdW  Elec       q    Type
REMARK                         _______ _______ _______ _____ _____    ______ ____
ROOT
ATOM      1  N   UNL     1       2.386   3.155  18.964  0.00  0.00    +0.000 NA
ATOM      2  C   UNL     1       2.031   3.958  19.919  0.00  0.00    +0.000 C 
ATOM      3  N   UNL     1       0.754   3.785  20.513  0.00  0.00    +0.000 N 
ATOM      4  H   UNL     1       0.124   3.042  20.182  0.00  0.00    +0.000 HD
ATOM      5  H   UNL     1       0.431   4.425  21.252  0.00  0.00    +0.000 HD
ENDROOT
BRANCH   1   6
ATOM      6  C   UNL     1       3.654   3.200  18.257  0.00  0.00    +0.000 C 
BRANCH   6   7
ATOM      7  C   UNL     1       3.456   3.519  16.770  0.00  0.00    +0.000 C 
BRANCH   7  11
ATOM      8  C   UNL     1       7.020   5.076  14.842  0.00  0.00    +0.000 A 
ATOM      9  C   UNL     1       6.095   4.285  14.125  0.00  0.00    +0.000 A 
ATOM     10  C   UNL     1       4.953   3.778  14.748  0.00  0.00    +0.000 A 
ATOM     11  C   UNL     1       4.702   4.048  16.099  0.00  0.00    +0.000 A 
ATOM     12  C   UNL     1       5.611   4.837  16.813  0.00  0.00    +0.000 A 
ATOM     13  C   UNL     1       6.767   5.349  16.214  0.00  0.00    +0.000 A 
BRANCH   8  15
ATOM     14  C   UNL     1       8.347   5.691  12.879  0.00  0.00    +0.000 C 
ATOM     15  O   UNL     1       8.132   5.582  14.238  0.00  0.00    +0.000 OA
ENDBRANCH   8  15
BRANCH  13  16
ATOM     16  O   UNL     1       7.581   6.085  17.019  0.00  0.00    +0.000 OA
ATOM     17  C   UNL     1       7.420   7.386  17.438  0.00  0.00    +0.000 C 
ENDBRANCH  13  16
ENDBRANCH   7  11
ENDBRANCH   6   7
ENDBRANCH   1   6
BRANCH   2  18
ATOM     18  C   UNL     1       2.905   5.104  20.409  0.00  0.00    +0.000 C 
BRANCH  18  19
ATOM     19  C   UNL     1       2.505   6.446  19.844  0.00  0.00    +0.000 A 
ATOM     20  C   UNL     1       2.785   6.743  18.501  0.00  0.00    +0.000 A 
ATOM     21  C   UNL     1       2.323   7.927  17.923  0.00  0.00    +0.000 A 
ATOM     22  C   UNL     1       1.560   8.829  18.676  0.00  0.00    +0.000 A 
ATOM     23  C   UNL     1       1.035   9.986  18.080  0.00  0.00    +0.000 A 
ATOM     24  C   UNL     1       0.255  10.869  18.832  0.00  0.00    +0.000 A 
ATOM     25  C   UNL     1       0.011  10.616  20.184  0.00  0.00    +0.000 A 
ATOM     26  C   UNL     1       0.534   9.470  20.792  0.00  0.00    +0.000 A 
ATOM     27  C   UNL     1       1.301   8.560  20.042  0.00  0.00    +0.000 A 
ATOM     28  C   UNL     1       1.783   7.370  20.621  0.00  0.00    +0.000 A 
ENDBRANCH  18  19
ENDBRANCH   2  18
TORSDOF 7
ENDMDL
MODEL 9
REMARK VINA RESULT:      -7.4      3.379      6.945
REMARK  Name = 
REMARK  9 active torsions:
REMARK  status: ('A' for Active; 'I' for Inactive)
REMARK    1  A    between atoms: C_1  and  O_2
REMARK    2  A    between atoms: O_2  and  C_3
REMARK    3  A    between atoms: C_6  and  C_7
REMARK    4  A    between atoms: C_7  and  C_8
REMARK    5  A    between atoms: C_8  and  N_9
REMARK    6  A    between atoms: C_10  and  C_12
REMARK    7  A    between atoms: C_12  and  C_13
REMARK    8  A    between atoms: C_24  and  O_25
REMARK    9  A    between atoms: O_25  and  C_26
REMARK                            x       y       z     vdW  Elec       q    Type
REMARK                         _______ _______ _______ _____ _____    ______ ____
ROOT
ATOM      1  N   UNL     1       5.476   6.871  16.397  0.00  0.00    +0.000 NA
ATOM      2  C   UNL     1       6.009   5.730  16.081  0.00  0.00    +0.000 C 
ATOM      3  N   UNL     1       7.413   5.668  15.885  0.00  0.00    +0.000 N 
ATOM      4  H   UNL     1       7.989   6.515  15.981  0.00  0.00    +0.000 HD
ATOM      5  H   UNL     1       7.862   4.785  15.604  0.00  0.00    +0.000 HD
ENDROOT
BRANCH   1   6
ATOM      6  C   UNL     1       4.061   7.099  16.631  0.00  0.00    +0.000 C 
BRANCH   6   7
ATOM      7  C   UNL     1       3.713   6.981  18.120  0.00  0.00    +0.000 C 
BRANCH   7  11
ATOM      8  C   UNL     1       0.557   9.685  19.377  0.00  0.00    +0.000 A 
ATOM      9  C   UNL     1       1.129   9.787  18.089  0.00  0.00    +0.000 A 
ATOM     10  C   UNL     1       2.149   8.922  17.689  0.00  0.00    +0.000 A 
ATOM     11  C   UNL     1       2.624   7.933  18.559  0.00  0.00    +0.000 A 
ATOM     12  C   UNL     1       2.058   7.822  19.834  0.00  0.00    +0.000 A 
ATOM     13  C   UNL     1       1.040   8.683  20.262  0.00  0.00    +0.000 A 
BRANCH   8  15
ATOM     14  C   UNL     1      -0.355  11.886  19.935  0.00  0.00    +0.000 C 
ATOM     15  O   UNL     1      -0.445  10.519  19.772  0.00  0.00    +0.000 OA
ENDBRANCH   8  15
BRANCH  13  16
ATOM     16  O   UNL     1       0.587   8.486  21.530  0.00  0.00    +0.000 OA
ATOM     17  C   UNL     1       0.777   9.279  22.639  0.00  0.00    +0.000 C 
ENDBRANCH  13  16
ENDBRANCH   7  11
ENDBRANCH   6   7
ENDBRANCH   1   6
BRANCH   2  18
ATOM     18  C   UNL     1       5.195   4.461  15.876  0.00  0.00    +0.000 C 
BRANCH  18  19
ATOM     19  C   UNL     1       4.548   3.954  17.143  0.00  0.00    +0.000 A 
ATOM     20  C   UNL     1       5.316   3.839  18.313  0.00  0.00    +0.000 A 
ATOM     21  C   UNL     1       4.719   3.484  19.524  0.00  0.00    +0.000 A 
ATOM     22  C   UNL     1       3.338   3.251  19.587  0.00  0.00    +0.000 A 
ATOM     23  C   UNL     1       2.723   2.963  20.815  0.00  0.00    +0.000 A 
ATOM     24  C   UNL     1       1.342   2.755  20.875  0.00  0.00    +0.000 A 
ATOM     25  C   UNL     1       0.571   2.812  19.711  0.00  0.00    +0.000 A 
ATOM     26  C   UNL     1       1.173   3.091  18.480  0.00  0.00    +0.000 A 
ATOM     27  C   UNL     1       2.558   3.327  18.408  0.00  0.00    +0.000 A 
ATOM     28  C   UNL     1       3.171   3.671  17.188  0.00  0.00    +0.000 A 
ENDBRANCH  18  19
ENDBRANCH   2  18
TORSDOF 7
ENDMDL
