MODEL 1
REMARK VINA RESULT:      -8.0      0.000      0.000
REMARK  Name = 
REMARK  6 active torsions:
REMARK  status: ('A' for Active; 'I' for Inactive)
REMARK    1  A    between atoms: C_1  and  O_2
REMARK    2  A    between atoms: O_2  and  C_3
REMARK    3  A    between atoms: C_8  and  N_9
REMARK    4  A    between atoms: C_13  and  C_15
REMARK    5  A    between atoms: C_18  and  C_19
REMARK    6  A    between atoms: C_19  and  N_20
REMARK                            x       y       z     vdW  Elec       q    Type
REMARK                         _______ _______ _______ _____ _____    ______ ____
ROOT
ATOM      1  N   UNL     1       1.170   9.649  19.047  0.00  0.00    +0.000 N 
ATOM      2  C   UNL     1       1.529   9.109  20.369  0.00  0.00    +0.000 C 
ATOM      3  C   UNL     1       1.595   7.555  20.297  0.00  0.00    +0.000 C 
ATOM      4  N   UNL     1       2.370   7.041  19.143  0.00  0.00    +0.000 N 
ATOM      5  C   UNL     1       2.992   5.800  19.254  0.00  0.00    +0.000 C 
ATOM      6  O   UNL     1       3.001   5.188  20.322  0.00  0.00    +0.000 OA
ATOM      7  C   UNL     1       2.022   7.684  17.869  0.00  0.00    +0.000 C 
ATOM      8  C   UNL     1       2.092   9.215  17.982  0.00  0.00    +0.000 C 
ENDROOT
BRANCH   1  14
ATOM      9  C   UNL     1      -0.778  11.021  18.260  0.00  0.00    +0.000 A 
ATOM     10  C   UNL     1      -1.317  12.317  18.105  0.00  0.00    +0.000 A 
ATOM     11  C   UNL     1      -0.634  13.447  18.554  0.00  0.00    +0.000 A 
ATOM     12  C   UNL     1       0.608  13.303  19.146  0.00  0.00    +0.000 A 
ATOM     13  C   UNL     1       1.160  12.030  19.280  0.00  0.00    +0.000 A 
ATOM     14  C   UNL     1       0.494  10.855  18.859  0.00  0.00    +0.000 A 
BRANCH   9  16
ATOM     15  C   UNL     1      -2.570  10.087  16.989  0.00  0.00    +0.000 C 
ATOM     16  O   UNL     1      -1.460   9.894  17.862  0.00  0.00    +0.000 OA
ENDBRANCH   9  16
ENDBRANCH   1  14
BRANCH   5  17
ATOM     17  C   UNL     1       3.700   5.217  18.007  0.00  0.00    +0.000 C 
ATOM     18  C   UNL     1       4.674   6.202  17.349  0.00  0.00    +0.000 C 
ATOM     19  C   UNL     1       5.981   6.388  18.116  0.00  0.00    +0.000 C 
ATOM     20  C   UNL     1       6.694   5.092  18.545  0.00  0.00    +0.000 C 
ATOM     21  C   UNL     1       5.715   4.040  19.085  0.00  0.00    +0.000 C 
ATOM     22  C   UNL     1       4.428   3.890  18.280  0.00  0.00    +0.000 C 
BRANCH  20  23
ATOM     23  C   UNL     1       7.614   4.503  17.455  0.00  0.00    +0.000 C 
BRANCH  23  24
ATOM     24  N   UNL     1       7.065   4.629  16.120  0.00  0.00    +0.000 N 
ATOM     25  C   UNL     1       6.205   3.808  15.470  0.00  0.00    +0.000 A 
ATOM     26  N   UNL     1       6.025   4.269  14.256  0.00  0.00    +0.000 NA
ATOM     27  N   UNL     1       6.782   5.416  14.176  0.00  0.00    +0.000 NA
ATOM     28  N   UNL     1       7.422   5.644  15.317  0.00  0.00    +0.000 NA
ENDBRANCH  23  24
ENDBRANCH  20  23
ENDBRANCH   5  17
TORSDOF 5
ENDMDL
MODEL 2
REMARK VINA RESULT:      -7.6      3.316      4.586
REMARK  Name = 
REMARK  6 active torsions:
REMARK  status: ('A' for Active; 'I' for Inactive)
REMARK    1  A    between atoms: C_1  and  O_2
REMARK    2  A    between atoms: O_2  and  C_3
REMARK    3  A    between atoms: C_8  and  N_9
REMARK    4  A    between atoms: C_13  and  C_15
REMARK    5  A    between atoms: C_18  and  C_19
REMARK    6  A    between atoms: C_19  and  N_20
REMARK                            x       y       z     vdW  Elec       q    Type
REMARK                         _______ _______ _______ _____ _____    ______ ____
ROOT
ATOM      1  N   UNL     1       0.142  10.726  19.706  0.00  0.00    +0.000 N 
ATOM      2  C   UNL     1       0.439  10.591  18.270  0.00  0.00    +0.000 C 
ATOM      3  C   UNL     1       1.776   9.816  18.084  0.00  0.00    +0.000 C 
ATOM      4  N   UNL     1       1.869   8.578  18.894  0.00  0.00    +0.000 N 
ATOM      5  C   UNL     1       2.667   7.534  18.432  0.00  0.00    +0.000 C 
ATOM      6  O   UNL     1       3.195   7.583  17.321  0.00  0.00    +0.000 OA
ATOM      7  C   UNL     1       1.476   8.765  20.297  0.00  0.00    +0.000 C 
ATOM      8  C   UNL     1       0.094   9.427  20.404  0.00  0.00    +0.000 C 
ENDROOT
BRANCH   1  14
ATOM      9  C   UNL     1      -0.124  12.762  21.147  0.00  0.00    +0.000 A 
ATOM     10  C   UNL     1      -1.009  13.744  21.643  0.00  0.00    +0.000 A 
ATOM     11  C   UNL     1      -2.346  13.781  21.251  0.00  0.00    +0.000 A 
ATOM     12  C   UNL     1      -2.827  12.828  20.372  0.00  0.00    +0.000 A 
ATOM     13  C   UNL     1      -1.967  11.839  19.897  0.00  0.00    +0.000 A 
ATOM     14  C   UNL     1      -0.598  11.774  20.251  0.00  0.00    +0.000 A 
BRANCH   9  16
ATOM     15  C   UNL     1       2.094  13.515  20.686  0.00  0.00    +0.000 C 
ATOM     16  O   UNL     1       1.209  12.739  21.490  0.00  0.00    +0.000 OA
ENDBRANCH   9  16
ENDBRANCH   1  14
BRANCH   5  17
ATOM     17  C   UNL     1       2.853   6.293  19.339  0.00  0.00    +0.000 C 
ATOM     18  C   UNL     1       1.670   5.320  19.281  0.00  0.00    +0.000 C 
ATOM     19  C   UNL     1       1.611   4.489  18.001  0.00  0.00    +0.000 C 
ATOM     20  C   UNL     1       2.926   3.802  17.590  0.00  0.00    +0.000 C 
ATOM     21  C   UNL     1       4.144   4.721  17.767  0.00  0.00    +0.000 C 
ATOM     22  C   UNL     1       4.156   5.524  19.064  0.00  0.00    +0.000 C 
BRANCH  20  23
ATOM     23  C   UNL     1       3.146   2.433  18.268  0.00  0.00    +0.000 C 
BRANCH  23  24
ATOM     24  N   UNL     1       2.804   2.435  19.675  0.00  0.00    +0.000 N 
ATOM     25  C   UNL     1       3.616   2.586  20.750  0.00  0.00    +0.000 A 
ATOM     26  N   UNL     1       2.894   2.456  21.838  0.00  0.00    +0.000 NA
ATOM     27  N   UNL     1       1.604   2.243  21.408  0.00  0.00    +0.000 NA
ATOM     28  N   UNL     1       1.541   2.231  20.081  0.00  0.00    +0.000 NA
ENDBRANCH  23  24
ENDBRANCH  20  23
ENDBRANCH   5  17
TORSDOF 5
ENDMDL
MODEL 3
REMARK VINA RESULT:      -7.6      1.433      2.044
REMARK  Name = 
REMARK  6 active torsions:
REMARK  status: ('A' for Active; 'I' for Inactive)
REMARK    1  A    between atoms: C_1  and  O_2
REMARK    2  A    between atoms: O_2  and  C_3
REMARK    3  A    between atoms: C_8  and  N_9
REMARK    4  A    between atoms: C_13  and  C_15
REMARK    5  A    between atoms: C_18  and  C_19
REMARK    6  A    between atoms: C_19  and  N_20
REMARK                            x       y       z     vdW  Elec       q    Type
REMARK                         _______ _______ _______ _____ _____    ______ ____
ROOT
ATOM      1  N   UNL     1       0.898  11.228  19.787  0.00  0.00    +0.000 N 
ATOM      2  C   UNL     1       1.363  10.505  20.982  0.00  0.00    +0.000 C 
ATOM      3  C   UNL     1       1.139   8.977  20.788  0.00  0.00    +0.000 C 
ATOM      4  N   UNL     1       1.615   8.463  19.482  0.00  0.00    +0.000 N 
ATOM      5  C   UNL     1       2.016   7.132  19.393  0.00  0.00    +0.000 C 
ATOM      6  O   UNL     1       2.087   6.422  20.396  0.00  0.00    +0.000 OA
ATOM      7  C   UNL     1       1.186   9.280  18.339  0.00  0.00    +0.000 C 
ATOM      8  C   UNL     1       1.546  10.759  18.548  0.00  0.00    +0.000 C 
ENDROOT
BRANCH   1  14
ATOM      9  C   UNL     1      -0.927  12.946  19.877  0.00  0.00    +0.000 A 
ATOM     10  C   UNL     1      -1.251  14.320  19.851  0.00  0.00    +0.000 A 
ATOM     11  C   UNL     1      -0.260  15.299  19.782  0.00  0.00    +0.000 A 
ATOM     12  C   UNL     1       1.069  14.922  19.718  0.00  0.00    +0.000 A 
ATOM     13  C   UNL     1       1.397  13.567  19.717  0.00  0.00    +0.000 A 
ATOM     14  C   UNL     1       0.427  12.540  19.807  0.00  0.00    +0.000 A 
BRANCH   9  16
ATOM     15  C   UNL     1      -2.575  11.600  18.795  0.00  0.00    +0.000 C 
ATOM     16  O   UNL     1      -1.892  11.971  19.990  0.00  0.00    +0.000 OA
ENDBRANCH   9  16
ENDBRANCH   1  14
BRANCH   5  17
ATOM     17  C   UNL     1       2.398   6.570  18.002  0.00  0.00    +0.000 C 
ATOM     18  C   UNL     1       3.888   6.733  17.674  0.00  0.00    +0.000 C 
ATOM     19  C   UNL     1       4.797   5.758  18.418  0.00  0.00    +0.000 C 
ATOM     20  C   UNL     1       4.369   4.280  18.376  0.00  0.00    +0.000 C 
ATOM     21  C   UNL     1       2.856   4.106  18.572  0.00  0.00    +0.000 C 
ATOM     22  C   UNL     1       1.993   5.101  17.802  0.00  0.00    +0.000 C 
BRANCH  20  23
ATOM     23  C   UNL     1       4.870   3.528  17.125  0.00  0.00    +0.000 C 
BRANCH  23  24
ATOM     24  N   UNL     1       5.814   4.296  16.340  0.00  0.00    +0.000 N 
ATOM     25  C   UNL     1       7.102   4.611  16.623  0.00  0.00    +0.000 A 
ATOM     26  N   UNL     1       7.563   5.378  15.665  0.00  0.00    +0.000 NA
ATOM     27  N   UNL     1       6.530   5.513  14.764  0.00  0.00    +0.000 NA
ATOM     28  N   UNL     1       5.454   4.851  15.172  0.00  0.00    +0.000 NA
ENDBRANCH  23  24
ENDBRANCH  20  23
ENDBRANCH   5  17
TORSDOF 5
ENDMDL
MODEL 4
REMARK VINA RESULT:      -7.6      1.755      2.384
REMARK  Name = 
REMARK  6 active torsions:
REMARK  status: ('A' for Active; 'I' for Inactive)
REMARK    1  A    between atoms: C_1  and  O_2
REMARK    2  A    between atoms: O_2  and  C_3
REMARK    3  A    between atoms: C_8  and  N_9
REMARK    4  A    between atoms: C_13  and  C_15
REMARK    5  A    between atoms: C_18  and  C_19
REMARK    6  A    between atoms: C_19  and  N_20
REMARK                            x       y       z     vdW  Elec       q    Type
REMARK                         _______ _______ _______ _____ _____    ______ ____
ROOT
ATOM      1  N   UNL     1       0.693  11.129  19.912  0.00  0.00    +0.000 N 
ATOM      2  C   UNL     1       1.234  10.428  21.089  0.00  0.00    +0.000 C 
ATOM      3  C   UNL     1       1.112   8.890  20.882  0.00  0.00    +0.000 C 
ATOM      4  N   UNL     1       1.592   8.423  19.560  0.00  0.00    +0.000 N 
ATOM      5  C   UNL     1       2.082   7.124  19.446  0.00  0.00    +0.000 C 
ATOM      6  O   UNL     1       2.225   6.410  20.439  0.00  0.00    +0.000 OA
ATOM      7  C   UNL     1       1.081   9.219  18.436  0.00  0.00    +0.000 C 
ATOM      8  C   UNL     1       1.342  10.717  18.653  0.00  0.00    +0.000 C 
ENDROOT
BRANCH   1  14
ATOM      9  C   UNL     1      -1.016  12.793  20.689  0.00  0.00    +0.000 A 
ATOM     10  C   UNL     1      -1.486  14.121  20.604  0.00  0.00    +0.000 A 
ATOM     11  C   UNL     1      -0.828  15.077  19.831  0.00  0.00    +0.000 A 
ATOM     12  C   UNL     1       0.299  14.718  19.114  0.00  0.00    +0.000 A 
ATOM     13  C   UNL     1       0.755  13.402  19.171  0.00  0.00    +0.000 A 
ATOM     14  C   UNL     1       0.132  12.404  19.958  0.00  0.00    +0.000 A 
BRANCH   9  16
ATOM     15  C   UNL     1      -1.782  12.172  22.863  0.00  0.00    +0.000 C 
ATOM     16  O   UNL     1      -1.629  11.850  21.482  0.00  0.00    +0.000 OA
ENDBRANCH   9  16
ENDBRANCH   1  14
BRANCH   5  17
ATOM     17  C   UNL     1       2.470   6.604  18.041  0.00  0.00    +0.000 C 
ATOM     18  C   UNL     1       3.969   6.730  17.742  0.00  0.00    +0.000 C 
ATOM     19  C   UNL     1       4.834   5.698  18.463  0.00  0.00    +0.000 C 
ATOM     20  C   UNL     1       4.359   4.238  18.356  0.00  0.00    +0.000 C 
ATOM     21  C   UNL     1       2.838   4.106  18.521  0.00  0.00    +0.000 C 
ATOM     22  C   UNL     1       2.021   5.157  17.777  0.00  0.00    +0.000 C 
BRANCH  20  23
ATOM     23  C   UNL     1       4.857   3.518  17.085  0.00  0.00    +0.000 C 
BRANCH  23  24
ATOM     24  N   UNL     1       5.763   4.325  16.293  0.00  0.00    +0.000 N 
ATOM     25  C   UNL     1       5.525   4.988  15.135  0.00  0.00    +0.000 A 
ATOM     26  N   UNL     1       6.646   5.535  14.731  0.00  0.00    +0.000 NA
ATOM     27  N   UNL     1       7.585   5.213  15.685  0.00  0.00    +0.000 NA
ATOM     28  N   UNL     1       7.050   4.471  16.648  0.00  0.00    +0.000 NA
ENDBRANCH  23  24
ENDBRANCH  20  23
ENDBRANCH   5  17
TORSDOF 5
ENDMDL
MODEL 5
REMARK VINA RESULT:      -7.5      1.082      1.857
REMARK  Name = 
REMARK  6 active torsions:
REMARK  status: ('A' for Active; 'I' for Inactive)
REMARK    1  A    between atoms: C_1  and  O_2
REMARK    2  A    between atoms: O_2  and  C_3
REMARK    3  A    between atoms: C_8  and  N_9
REMARK    4  A    between atoms: C_13  and  C_15
REMARK    5  A    between atoms: C_18  and  C_19
REMARK    6  A    between atoms: C_19  and  N_20
REMARK                            x       y       z     vdW  Elec       q    Type
REMARK                         _______ _______ _______ _____ _____    ______ ____
ROOT
ATOM      1  N   UNL     1       0.908   9.605  19.344  0.00  0.00    +0.000 N 
ATOM      2  C   UNL     1       1.366   9.014  20.611  0.00  0.00    +0.000 C 
ATOM      3  C   UNL     1       1.567   7.481  20.430  0.00  0.00    +0.000 C 
ATOM      4  N   UNL     1       2.339   7.117  19.217  0.00  0.00    +0.000 N 
ATOM      5  C   UNL     1       3.073   5.933  19.221  0.00  0.00    +0.000 C 
ATOM      6  O   UNL     1       3.178   5.255  20.243  0.00  0.00    +0.000 OA
ATOM      7  C   UNL     1       1.884   7.808  18.004  0.00  0.00    +0.000 C 
ATOM      8  C   UNL     1       1.822   9.328  18.220  0.00  0.00    +0.000 C 
ENDROOT
BRANCH   1  14
ATOM      9  C   UNL     1       0.517  12.071  19.594  0.00  0.00    +0.000 A 
ATOM     10  C   UNL     1      -0.411  13.130  19.493  0.00  0.00    +0.000 A 
ATOM     11  C   UNL     1      -1.714  12.914  19.046  0.00  0.00    +0.000 A 
ATOM     12  C   UNL     1      -2.118  11.635  18.712  0.00  0.00    +0.000 A 
ATOM     13  C   UNL     1      -1.216  10.578  18.833  0.00  0.00    +0.000 A 
ATOM     14  C   UNL     1       0.121  10.753  19.262  0.00  0.00    +0.000 A 
BRANCH   9  16
ATOM     15  C   UNL     1       2.202  13.619  20.275  0.00  0.00    +0.000 C 
ATOM     16  O   UNL     1       1.819  12.275  19.991  0.00  0.00    +0.000 OA
ENDBRANCH   9  16
ENDBRANCH   1  14
BRANCH   5  17
ATOM     17  C   UNL     1       3.779   5.501  17.913  0.00  0.00    +0.000 C 
ATOM     18  C   UNL     1       4.893   6.462  17.482  0.00  0.00    +0.000 C 
ATOM     19  C   UNL     1       6.168   6.348  18.315  0.00  0.00    +0.000 C 
ATOM     20  C   UNL     1       6.704   4.921  18.523  0.00  0.00    +0.000 C 
ATOM     21  C   UNL     1       5.584   3.915  18.826  0.00  0.00    +0.000 C 
ATOM     22  C   UNL     1       4.336   4.069  17.962  0.00  0.00    +0.000 C 
BRANCH  20  23
ATOM     23  C   UNL     1       7.612   4.429  17.375  0.00  0.00    +0.000 C 
BRANCH  23  24
ATOM     24  N   UNL     1       7.021   4.613  16.066  0.00  0.00    +0.000 N 
ATOM     25  C   UNL     1       6.119   3.834  15.420  0.00  0.00    +0.000 A 
ATOM     26  N   UNL     1       5.910   4.341  14.228  0.00  0.00    +0.000 NA
ATOM     27  N   UNL     1       6.691   5.472  14.160  0.00  0.00    +0.000 NA
ATOM     28  N   UNL     1       7.375   5.646  15.285  0.00  0.00    +0.000 NA
ENDBRANCH  23  24
ENDBRANCH  20  23
ENDBRANCH   5  17
TORSDOF 5
ENDMDL
MODEL 6
REMARK VINA RESULT:      -7.5      2.043      3.032
REMARK  Name = 
REMARK  6 active torsions:
REMARK  status: ('A' for Active; 'I' for Inactive)
REMARK    1  A    between atoms: C_1  and  O_2
REMARK    2  A    between atoms: O_2  and  C_3
REMARK    3  A    between atoms: C_8  and  N_9
REMARK    4  A    between atoms: C_13  and  C_15
REMARK    5  A    between atoms: C_18  and  C_19
REMARK    6  A    between atoms: C_19  and  N_20
REMARK                            x       y       z     vdW  Elec       q    Type
REMARK                         _______ _______ _______ _____ _____    ______ ____
ROOT
ATOM      1  N   UNL     1       0.595  11.002  20.537  0.00  0.00    +0.000 N 
ATOM      2  C   UNL     1       1.219  10.213  21.612  0.00  0.00    +0.000 C 
ATOM      3  C   UNL     1       1.102   8.696  21.281  0.00  0.00    +0.000 C 
ATOM      4  N   UNL     1       1.500   8.352  19.896  0.00  0.00    +0.000 N 
ATOM      5  C   UNL     1       1.996   7.076  19.639  0.00  0.00    +0.000 C 
ATOM      6  O   UNL     1       2.212   6.283  20.556  0.00  0.00    +0.000 OA
ATOM      7  C   UNL     1       0.908   9.232  18.880  0.00  0.00    +0.000 C 
ATOM      8  C   UNL     1       1.165  10.711  19.209  0.00  0.00    +0.000 C 
ENDROOT
BRANCH   1  14
ATOM      9  C   UNL     1       0.688  13.426  21.176  0.00  0.00    +0.000 A 
ATOM     10  C   UNL     1      -0.039  14.623  21.357  0.00  0.00    +0.000 A 
ATOM     11  C   UNL     1      -1.403  14.693  21.080  0.00  0.00    +0.000 A 
ATOM     12  C   UNL     1      -2.069  13.565  20.637  0.00  0.00    +0.000 A 
ATOM     13  C   UNL     1      -1.365  12.372  20.480  0.00  0.00    +0.000 A 
ATOM     14  C   UNL     1       0.024  12.259  20.729  0.00  0.00    +0.000 A 
BRANCH   9  16
ATOM     15  C   UNL     1       2.755  14.588  21.454  0.00  0.00    +0.000 C 
ATOM     16  O   UNL     1       2.044  13.353  21.403  0.00  0.00    +0.000 OA
ENDBRANCH   9  16
ENDBRANCH   1  14
BRANCH   5  17
ATOM     17  C   UNL     1       2.298   6.685  18.172  0.00  0.00    +0.000 C 
ATOM     18  C   UNL     1       3.778   6.836  17.798  0.00  0.00    +0.000 C 
ATOM     19  C   UNL     1       4.677   5.743  18.371  0.00  0.00    +0.000 C 
ATOM     20  C   UNL     1       4.188   4.299  18.161  0.00  0.00    +0.000 C 
ATOM     21  C   UNL     1       2.679   4.153  18.403  0.00  0.00    +0.000 C 
ATOM     22  C   UNL     1       1.826   5.268  17.806  0.00  0.00    +0.000 C 
BRANCH  20  23
ATOM     23  C   UNL     1       4.606   3.696  16.803  0.00  0.00    +0.000 C 
BRANCH  23  24
ATOM     24  N   UNL     1       5.812   4.291  16.265  0.00  0.00    +0.000 N 
ATOM     25  C   UNL     1       5.999   4.913  15.075  0.00  0.00    +0.000 A 
ATOM     26  N   UNL     1       7.265   5.240  14.971  0.00  0.00    +0.000 NA
ATOM     27  N   UNL     1       7.857   4.824  16.143  0.00  0.00    +0.000 NA
ATOM     28  N   UNL     1       6.971   4.242  16.942  0.00  0.00    +0.000 NA
ENDBRANCH  23  24
ENDBRANCH  20  23
ENDBRANCH   5  17
TORSDOF 5
ENDMDL
MODEL 7
REMARK VINA RESULT:      -7.5      3.327      9.947
REMARK  Name = 
REMARK  6 active torsions:
REMARK  status: ('A' for Active; 'I' for Inactive)
REMARK    1  A    between atoms: C_1  and  O_2
REMARK    2  A    between atoms: O_2  and  C_3
REMARK    3  A    between atoms: C_8  and  N_9
REMARK    4  A    between atoms: C_13  and  C_15
REMARK    5  A    between atoms: C_18  and  C_19
REMARK    6  A    between atoms: C_19  and  N_20
REMARK                            x       y       z     vdW  Elec       q    Type
REMARK                         _______ _______ _______ _____ _____    ______ ____
ROOT
ATOM      1  N   UNL     1       2.495   6.755  18.718  0.00  0.00    +0.000 N 
ATOM      2  C   UNL     1       3.037   7.794  17.827  0.00  0.00    +0.000 C 
ATOM      3  C   UNL     1       2.066   9.010  17.791  0.00  0.00    +0.000 C 
ATOM      4  N   UNL     1       1.619   9.460  19.131  0.00  0.00    +0.000 N 
ATOM      5  C   UNL     1       1.265  10.795  19.305  0.00  0.00    +0.000 C 
ATOM      6  O   UNL     1       1.427  11.617  18.402  0.00  0.00    +0.000 OA
ATOM      7  C   UNL     1       1.171   8.362  19.998  0.00  0.00    +0.000 C 
ATOM      8  C   UNL     1       2.229   7.252  20.081  0.00  0.00    +0.000 C 
ENDROOT
BRANCH   1  14
ATOM      9  C   UNL     1       3.949   4.721  18.927  0.00  0.00    +0.000 A 
ATOM     10  C   UNL     1       4.076   3.336  18.681  0.00  0.00    +0.000 A 
ATOM     11  C   UNL     1       3.035   2.601  18.114  0.00  0.00    +0.000 A 
ATOM     12  C   UNL     1       1.859   3.239  17.765  0.00  0.00    +0.000 A 
ATOM     13  C   UNL     1       1.735   4.610  17.980  0.00  0.00    +0.000 A 
ATOM     14  C   UNL     1       2.755   5.392  18.571  0.00  0.00    +0.000 A 
BRANCH   9  16
ATOM     15  C   UNL     1       6.240   5.391  18.923  0.00  0.00    +0.000 C 
ATOM     16  O   UNL     1       4.949   5.451  19.526  0.00  0.00    +0.000 OA
ENDBRANCH   9  16
ENDBRANCH   1  14
BRANCH   5  17
ATOM     17  C   UNL     1       0.687  11.231  20.673  0.00  0.00    +0.000 C 
ATOM     18  C   UNL     1       0.847  12.732  20.946  0.00  0.00    +0.000 C 
ATOM     19  C   UNL     1      -0.118  13.613  20.155  0.00  0.00    +0.000 C 
ATOM     20  C   UNL     1      -1.597  13.187  20.196  0.00  0.00    +0.000 C 
ATOM     21  C   UNL     1      -1.770  11.668  20.056  0.00  0.00    +0.000 C 
ATOM     22  C   UNL     1      -0.785  10.834  20.870  0.00  0.00    +0.000 C 
BRANCH  20  23
ATOM     23  C   UNL     1      -2.364  13.735  21.418  0.00  0.00    +0.000 C 
BRANCH  23  24
ATOM     24  N   UNL     1      -3.751  13.317  21.451  0.00  0.00    +0.000 N 
ATOM     25  C   UNL     1      -4.769  13.669  20.629  0.00  0.00    +0.000 A 
ATOM     26  N   UNL     1      -5.870  13.106  21.064  0.00  0.00    +0.000 NA
ATOM     27  N   UNL     1      -5.503  12.372  22.170  0.00  0.00    +0.000 NA
ATOM     28  N   UNL     1      -4.204  12.495  22.412  0.00  0.00    +0.000 NA
ENDBRANCH  23  24
ENDBRANCH  20  23
ENDBRANCH   5  17
TORSDOF 5
ENDMDL
MODEL 8
REMARK VINA RESULT:      -7.4      3.077      4.168
REMARK  Name = 
REMARK  6 active torsions:
REMARK  status: ('A' for Active; 'I' for Inactive)
REMARK    1  A    between atoms: C_1  and  O_2
REMARK    2  A    between atoms: O_2  and  C_3
REMARK    3  A    between atoms: C_8  and  N_9
REMARK    4  A    between atoms: C_13  and  C_15
REMARK    5  A    between atoms: C_18  and  C_19
REMARK    6  A    between atoms: C_19  and  N_20
REMARK                            x       y       z     vdW  Elec       q    Type
REMARK                         _______ _______ _______ _____ _____    ______ ____
ROOT
ATOM      1  N   UNL     1      -0.017  10.526  19.987  0.00  0.00    +0.000 N 
ATOM      2  C   UNL     1       0.265  10.503  18.543  0.00  0.00    +0.000 C 
ATOM      3  C   UNL     1       1.644   9.826  18.290  0.00  0.00    +0.000 C 
ATOM      4  N   UNL     1       1.826   8.547  19.017  0.00  0.00    +0.000 N 
ATOM      5  C   UNL     1       2.679   7.586  18.478  0.00  0.00    +0.000 C 
ATOM      6  O   UNL     1       3.184   7.739  17.366  0.00  0.00    +0.000 OA
ATOM      7  C   UNL     1       1.445   8.618  20.434  0.00  0.00    +0.000 C 
ATOM      8  C   UNL     1       0.027   9.185  20.600  0.00  0.00    +0.000 C 
ENDROOT
BRANCH   1  14
ATOM      9  C   UNL     1      -1.841  12.248  20.004  0.00  0.00    +0.000 A 
ATOM     10  C   UNL     1      -2.535  13.218  20.759  0.00  0.00    +0.000 A 
ATOM     11  C   UNL     1      -2.246  13.434  22.106  0.00  0.00    +0.000 A 
ATOM     12  C   UNL     1      -1.246  12.698  22.716  0.00  0.00    +0.000 A 
ATOM     13  C   UNL     1      -0.538  11.756  21.971  0.00  0.00    +0.000 A 
ATOM     14  C   UNL     1      -0.811  11.489  20.609  0.00  0.00    +0.000 A 
BRANCH   9  16
ATOM     15  C   UNL     1      -3.466  11.538  18.406  0.00  0.00    +0.000 C 
ATOM     16  O   UNL     1      -2.145  11.994  18.686  0.00  0.00    +0.000 OA
ENDBRANCH   9  16
ENDBRANCH   1  14
BRANCH   5  17
ATOM     17  C   UNL     1       2.955   6.304  19.299  0.00  0.00    +0.000 C 
ATOM     18  C   UNL     1       1.803   5.293  19.248  0.00  0.00    +0.000 C 
ATOM     19  C   UNL     1       1.702   4.534  17.926  0.00  0.00    +0.000 C 
ATOM     20  C   UNL     1       3.014   3.920  17.407  0.00  0.00    +0.000 C 
ATOM     21  C   UNL     1       4.209   4.870  17.572  0.00  0.00    +0.000 C 
ATOM     22  C   UNL     1       4.266   5.599  18.911  0.00  0.00    +0.000 C 
BRANCH  20  23
ATOM     23  C   UNL     1       3.316   2.524  17.991  0.00  0.00    +0.000 C 
BRANCH  23  24
ATOM     24  N   UNL     1       2.948   2.401  19.387  0.00  0.00    +0.000 N 
ATOM     25  C   UNL     1       1.730   2.163  19.930  0.00  0.00    +0.000 A 
ATOM     26  N   UNL     1       1.843   2.197  21.237  0.00  0.00    +0.000 NA
ATOM     27  N   UNL     1       3.174   2.440  21.491  0.00  0.00    +0.000 NA
ATOM     28  N   UNL     1       3.859   2.564  20.360  0.00  0.00    +0.000 NA
ENDBRANCH  23  24
ENDBRANCH  20  23
ENDBRANCH   5  17
TORSDOF 5
ENDMDL
MODEL 9
REMARK VINA RESULT:      -7.4      3.295      4.641
REMARK  Name = 
REMARK  6 active torsions:
REMARK  status: ('A' for Active; 'I' for Inactive)
REMARK    1  A    between atoms: C_1  and  O_2
REMARK    2  A    between atoms: O_2  and  C_3
REMARK    3  A    between atoms: C_8  and  N_9
REMARK    4  A    between atoms: C_13  and  C_15
REMARK    5  A    between atoms: C_18  and  C_19
REMARK    6  A    between atoms: C_19  and  N_20
REMARK                            x       y       z     vdW  Elec       q    Type
REMARK                         _______ _______ _______ _____ _____    ______ ____
ROOT
ATOM      1  N   UNL     1       0.150  10.142  19.602  0.00  0.00    +0.000 N 
ATOM      2  C   UNL     1       0.464  10.118  18.164  0.00  0.00    +0.000 C 
ATOM      3  C   UNL     1       1.896   9.545  17.952  0.00  0.00    +0.000 C 
ATOM      4  N   UNL     1       2.158   8.294  18.704  0.00  0.00    +0.000 N 
ATOM      5  C   UNL     1       3.093   7.393  18.199  0.00  0.00    +0.000 C 
ATOM      6  O   UNL     1       3.610   7.567  17.095  0.00  0.00    +0.000 OA
ATOM      7  C   UNL     1       1.742   8.358  20.111  0.00  0.00    +0.000 C 
ATOM      8  C   UNL     1       0.281   8.817  20.238  0.00  0.00    +0.000 C 
ENDROOT
BRANCH   1  14
ATOM      9  C   UNL     1      -0.768  11.419  21.557  0.00  0.00    +0.000 A 
ATOM     10  C   UNL     1      -1.746  12.331  22.010  0.00  0.00    +0.000 A 
ATOM     11  C   UNL     1      -2.667  12.904  21.134  0.00  0.00    +0.000 A 
ATOM     12  C   UNL     1      -2.641  12.561  19.795  0.00  0.00    +0.000 A 
ATOM     13  C   UNL     1      -1.696  11.641  19.343  0.00  0.00    +0.000 A 
ATOM     14  C   UNL     1      -0.728  11.051  20.191  0.00  0.00    +0.000 A 
BRANCH   9  16
ATOM     15  C   UNL     1      -0.284   9.926  23.355  0.00  0.00    +0.000 C 
ATOM     16  O   UNL     1       0.176  10.880  22.401  0.00  0.00    +0.000 OA
ENDBRANCH   9  16
ENDBRANCH   1  14
BRANCH   5  17
ATOM     17  C   UNL     1       3.447   6.148  19.047  0.00  0.00    +0.000 C 
ATOM     18  C   UNL     1       2.217   5.445  19.633  0.00  0.00    +0.000 C 
ATOM     19  C   UNL     1       1.420   4.635  18.612  0.00  0.00    +0.000 C 
ATOM     20  C   UNL     1       2.244   3.684  17.726  0.00  0.00    +0.000 C 
ATOM     21  C   UNL     1       3.549   4.327  17.236  0.00  0.00    +0.000 C 
ATOM     22  C   UNL     1       4.308   5.120  18.295  0.00  0.00    +0.000 C 
BRANCH  20  23
ATOM     23  C   UNL     1       2.498   2.305  18.369  0.00  0.00    +0.000 C 
BRANCH  23  24
ATOM     24  N   UNL     1       2.479   2.342  19.817  0.00  0.00    +0.000 N 
ATOM     25  C   UNL     1       3.520   2.398  20.683  0.00  0.00    +0.000 A 
ATOM     26  N   UNL     1       3.048   2.348  21.906  0.00  0.00    +0.000 NA
ATOM     27  N   UNL     1       1.679   2.282  21.776  0.00  0.00    +0.000 NA
ATOM     28  N   UNL     1       1.323   2.280  20.497  0.00  0.00    +0.000 NA
ENDBRANCH  23  24
ENDBRANCH  20  23
ENDBRANCH   5  17
TORSDOF 5
ENDMDL
