MODEL 1
REMARK VINA RESULT:      -7.3      0.000      0.000
REMARK  Name = 
REMARK  6 active torsions:
REMARK  status: ('A' for Active; 'I' for Inactive)
REMARK    1  A    between atoms: O_1  and  C_2
REMARK    2  A    between atoms: C_2  and  CA_3
REMARK    3  A    between atoms: CA_3  and  N_4
REMARK    4  A    between atoms: CA_3  and  C_11
REMARK    5  A    between atoms: C_11  and  O_12
REMARK    6  A    between atoms: C_11  and  C_13
REMARK                            x       y       z     vdW  Elec       q    Type
REMARK                         _______ _______ _______ _____ _____    ______ ____
ROOT
ATOM      1  CA  UNL     1       6.467   4.988  16.959  0.00  0.00    +0.000 C 
ENDROOT
BRANCH   1   2
ATOM      2  N   UNL     1       7.125   5.442  15.737  0.00  0.00    +0.000 N 
ATOM      3  C   UNL     1       7.048   4.933  14.475  0.00  0.00    +0.000 A 
ATOM      4  C   UNL     1       6.223   3.898  14.097  0.00  0.00    +0.000 A 
ATOM      5  C   UNL     1       6.257   3.537  12.767  0.00  0.00    +0.000 A 
ATOM      6  N   UNL     1       7.029   4.137  11.849  0.00  0.00    +0.000 NA
ATOM      7  C   UNL     1       7.789   5.132  12.315  0.00  0.00    +0.000 A 
ATOM      8  N   UNL     1       7.842   5.554  13.588  0.00  0.00    +0.000 NA
ATOM      9  H   UNL     1       7.871   6.124  15.817  0.00  0.00    +0.000 HD
ENDBRANCH   1   2
BRANCH   1  10
ATOM     10  C   UNL     1       7.465   4.932  18.135  0.00  0.00    +0.000 C 
BRANCH  10  11
ATOM     11  O   UNL     1       8.516   3.998  17.873  0.00  0.00    +0.000 OA
ATOM     12  H   UNL     1       9.354   4.487  17.960  0.00  0.00    +0.000 HD
ENDBRANCH  10  11
ENDBRANCH   1  10
BRANCH   1  13
ATOM     13  C   UNL     1       5.205   5.873  17.275  0.00  0.00    +0.000 C 
BRANCH  13  14
ATOM     14  C   UNL     1       3.936   5.077  17.552  0.00  0.00    +0.000 A 
ATOM     15  C   UNL     1       3.890   3.711  17.227  0.00  0.00    +0.000 A 
ATOM     16  C   UNL     1       2.711   2.981  17.377  0.00  0.00    +0.000 A 
ATOM     17  C   UNL     1       1.565   3.602  17.867  0.00  0.00    +0.000 A 
ATOM     18  C   UNL     1       1.603   4.949  18.224  0.00  0.00    +0.000 A 
ATOM     19  C   UNL     1       2.782   5.682  18.067  0.00  0.00    +0.000 A 
ENDBRANCH  13  14
BRANCH  13  20
ATOM     20  O   UNL     1       4.945   6.849  16.261  0.00  0.00    +0.000 OA
ATOM     21  H   UNL     1       4.509   7.606  16.706  0.00  0.00    +0.000 HD
ENDBRANCH  13  20
ENDBRANCH   1  13
TORSDOF 6
ENDMDL
MODEL 2
REMARK VINA RESULT:      -7.1      0.646      1.307
REMARK  Name = 
REMARK  6 active torsions:
REMARK  status: ('A' for Active; 'I' for Inactive)
REMARK    1  A    between atoms: O_1  and  C_2
REMARK    2  A    between atoms: C_2  and  CA_3
REMARK    3  A    between atoms: CA_3  and  N_4
REMARK    4  A    between atoms: CA_3  and  C_11
REMARK    5  A    between atoms: C_11  and  O_12
REMARK    6  A    between atoms: C_11  and  C_13
REMARK                            x       y       z     vdW  Elec       q    Type
REMARK                         _______ _______ _______ _____ _____    ______ ____
ROOT
ATOM      1  CA  UNL     1       6.478   5.194  17.101  0.00  0.00    +0.000 C 
ENDROOT
BRANCH   1   2
ATOM      2  N   UNL     1       7.155   5.550  15.857  0.00  0.00    +0.000 N 
ATOM      3  C   UNL     1       7.042   4.986  14.621  0.00  0.00    +0.000 A 
ATOM      4  C   UNL     1       6.157   3.985  14.294  0.00  0.00    +0.000 A 
ATOM      5  C   UNL     1       6.163   3.560  12.983  0.00  0.00    +0.000 A 
ATOM      6  N   UNL     1       6.964   4.069  12.036  0.00  0.00    +0.000 NA
ATOM      7  C   UNL     1       7.783   5.040  12.452  0.00  0.00    +0.000 A 
ATOM      8  N   UNL     1       7.867   5.518  13.703  0.00  0.00    +0.000 NA
ATOM      9  H   UNL     1       7.940   6.190  15.902  0.00  0.00    +0.000 HD
ENDBRANCH   1   2
BRANCH   1  10
ATOM     10  C   UNL     1       7.413   5.388  18.313  0.00  0.00    +0.000 C 
BRANCH  10  11
ATOM     11  O   UNL     1       6.768   4.997  19.528  0.00  0.00    +0.000 OA
ATOM     12  H   UNL     1       6.757   5.782  20.105  0.00  0.00    +0.000 HD
ENDBRANCH  10  11
ENDBRANCH   1  10
BRANCH   1  13
ATOM     13  C   UNL     1       5.124   5.982  17.245  0.00  0.00    +0.000 C 
BRANCH  13  14
ATOM     14  C   UNL     1       3.902   5.097  17.448  0.00  0.00    +0.000 A 
ATOM     15  C   UNL     1       2.750   5.632  18.046  0.00  0.00    +0.000 A 
ATOM     16  C   UNL     1       1.652   4.821  18.334  0.00  0.00    +0.000 A 
ATOM     17  C   UNL     1       1.684   3.466  18.016  0.00  0.00    +0.000 A 
ATOM     18  C   UNL     1       2.808   2.926  17.393  0.00  0.00    +0.000 A 
ATOM     19  C   UNL     1       3.911   3.737  17.110  0.00  0.00    +0.000 A 
ENDBRANCH  13  14
BRANCH  13  20
ATOM     20  O   UNL     1       4.887   6.881  16.155  0.00  0.00    +0.000 OA
ATOM     21  H   UNL     1       4.066   7.370  16.370  0.00  0.00    +0.000 HD
ENDBRANCH  13  20
ENDBRANCH   1  13
TORSDOF 6
ENDMDL
MODEL 3
REMARK VINA RESULT:      -7.0      0.745      1.247
REMARK  Name = 
REMARK  6 active torsions:
REMARK  status: ('A' for Active; 'I' for Inactive)
REMARK    1  A    between atoms: O_1  and  C_2
REMARK    2  A    between atoms: C_2  and  CA_3
REMARK    3  A    between atoms: CA_3  and  N_4
REMARK    4  A    between atoms: CA_3  and  C_11
REMARK    5  A    between atoms: C_11  and  O_12
REMARK    6  A    between atoms: C_11  and  C_13
REMARK                            x       y       z     vdW  Elec       q    Type
REMARK                         _______ _______ _______ _____ _____    ______ ____
ROOT
ATOM      1  CA  UNL     1       6.267   5.057  17.017  0.00  0.00    +0.000 C 
ENDROOT
BRANCH   1   2
ATOM      2  N   UNL     1       6.999   5.474  15.824  0.00  0.00    +0.000 N 
ATOM      3  C   UNL     1       6.965   4.954  14.565  0.00  0.00    +0.000 A 
ATOM      4  C   UNL     1       6.123   3.945  14.156  0.00  0.00    +0.000 A 
ATOM      5  C   UNL     1       6.209   3.568  12.833  0.00  0.00    +0.000 A 
ATOM      6  N   UNL     1       7.045   4.131  11.949  0.00  0.00    +0.000 NA
ATOM      7  C   UNL     1       7.816   5.104  12.441  0.00  0.00    +0.000 A 
ATOM      8  N   UNL     1       7.823   5.538  13.711  0.00  0.00    +0.000 NA
ATOM      9  H   UNL     1       7.765   6.130  15.933  0.00  0.00    +0.000 HD
ENDBRANCH   1   2
BRANCH   1  10
ATOM     10  C   UNL     1       7.230   4.817  18.199  0.00  0.00    +0.000 C 
BRANCH  10  11
ATOM     11  O   UNL     1       8.355   4.032  17.794  0.00  0.00    +0.000 OA
ATOM     12  H   UNL     1       8.325   3.979  16.822  0.00  0.00    +0.000 HD
ENDBRANCH  10  11
ENDBRANCH   1  10
BRANCH   1  13
ATOM     13  C   UNL     1       5.127   6.085  17.361  0.00  0.00    +0.000 C 
BRANCH  13  14
ATOM     14  C   UNL     1       3.901   5.464  18.016  0.00  0.00    +0.000 A 
ATOM     15  C   UNL     1       3.531   5.863  19.311  0.00  0.00    +0.000 A 
ATOM     16  C   UNL     1       2.473   5.242  19.974  0.00  0.00    +0.000 A 
ATOM     17  C   UNL     1       1.759   4.223  19.347  0.00  0.00    +0.000 A 
ATOM     18  C   UNL     1       2.094   3.838  18.050  0.00  0.00    +0.000 A 
ATOM     19  C   UNL     1       3.159   4.456  17.388  0.00  0.00    +0.000 A 
ENDBRANCH  13  14
BRANCH  13  20
ATOM     20  O   UNL     1       4.722   6.862  16.228  0.00  0.00    +0.000 OA
ATOM     21  H   UNL     1       5.070   7.767  16.371  0.00  0.00    +0.000 HD
ENDBRANCH  13  20
ENDBRANCH   1  13
TORSDOF 6
ENDMDL
MODEL 4
REMARK VINA RESULT:      -6.9      2.443      3.788
REMARK  Name = 
REMARK  6 active torsions:
REMARK  status: ('A' for Active; 'I' for Inactive)
REMARK    1  A    between atoms: O_1  and  C_2
REMARK    2  A    between atoms: C_2  and  CA_3
REMARK    3  A    between atoms: CA_3  and  N_4
REMARK    4  A    between atoms: CA_3  and  C_11
REMARK    5  A    between atoms: C_11  and  O_12
REMARK    6  A    between atoms: C_11  and  C_13
REMARK                            x       y       z     vdW  Elec       q    Type
REMARK                         _______ _______ _______ _____ _____    ______ ____
ROOT
ATOM      1  CA  UNL     1       3.686   2.713  17.782  0.00  0.00    +0.000 C 
ENDROOT
BRANCH   1   2
ATOM      2  N   UNL     1       4.746   3.694  18.003  0.00  0.00    +0.000 N 
ATOM      3  C   UNL     1       5.578   4.284  17.100  0.00  0.00    +0.000 A 
ATOM      4  C   UNL     1       5.501   4.114  15.736  0.00  0.00    +0.000 A 
ATOM      5  C   UNL     1       6.409   4.818  14.974  0.00  0.00    +0.000 A 
ATOM      6  N   UNL     1       7.332   5.645  15.487  0.00  0.00    +0.000 NA
ATOM      7  C   UNL     1       7.321   5.746  16.819  0.00  0.00    +0.000 A 
ATOM      8  N   UNL     1       6.493   5.097  17.652  0.00  0.00    +0.000 NA
ATOM      9  H   UNL     1       5.047   3.870  18.955  0.00  0.00    +0.000 HD
ENDBRANCH   1   2
BRANCH   1  10
ATOM     10  C   UNL     1       3.724   1.608  18.859  0.00  0.00    +0.000 C 
BRANCH  10  11
ATOM     11  O   UNL     1       4.845   1.778  19.730  0.00  0.00    +0.000 OA
ATOM     12  H   UNL     1       4.605   1.364  20.579  0.00  0.00    +0.000 HD
ENDBRANCH  10  11
ENDBRANCH   1  10
BRANCH   1  13
ATOM     13  C   UNL     1       2.284   3.419  17.684  0.00  0.00    +0.000 C 
BRANCH  13  14
ATOM     14  C   UNL     1       2.171   4.702  18.495  0.00  0.00    +0.000 A 
ATOM     15  C   UNL     1       2.492   5.931  17.895  0.00  0.00    +0.000 A 
ATOM     16  C   UNL     1       2.493   7.111  18.640  0.00  0.00    +0.000 A 
ATOM     17  C   UNL     1       2.160   7.081  19.991  0.00  0.00    +0.000 A 
ATOM     18  C   UNL     1       1.809   5.875  20.594  0.00  0.00    +0.000 A 
ATOM     19  C   UNL     1       1.814   4.691  19.850  0.00  0.00    +0.000 A 
ENDBRANCH  13  14
BRANCH  13  20
ATOM     20  O   UNL     1       1.199   2.545  18.018  0.00  0.00    +0.000 OA
ATOM     21  H   UNL     1       0.452   2.792  17.435  0.00  0.00    +0.000 HD
ENDBRANCH  13  20
ENDBRANCH   1  13
TORSDOF 6
ENDMDL
MODEL 5
REMARK VINA RESULT:      -6.9      2.437      3.740
REMARK  Name = 
REMARK  6 active torsions:
REMARK  status: ('A' for Active; 'I' for Inactive)
REMARK    1  A    between atoms: O_1  and  C_2
REMARK    2  A    between atoms: C_2  and  CA_3
REMARK    3  A    between atoms: CA_3  and  N_4
REMARK    4  A    between atoms: CA_3  and  C_11
REMARK    5  A    between atoms: C_11  and  O_12
REMARK    6  A    between atoms: C_11  and  C_13
REMARK                            x       y       z     vdW  Elec       q    Type
REMARK                         _______ _______ _______ _____ _____    ______ ____
ROOT
ATOM      1  CA  UNL     1       3.652   2.718  17.692  0.00  0.00    +0.000 C 
ENDROOT
BRANCH   1   2
ATOM      2  N   UNL     1       4.763   3.646  17.893  0.00  0.00    +0.000 N 
ATOM      3  C   UNL     1       5.583   4.224  16.971  0.00  0.00    +0.000 A 
ATOM      4  C   UNL     1       5.444   4.094  15.608  0.00  0.00    +0.000 A 
ATOM      5  C   UNL     1       6.351   4.777  14.827  0.00  0.00    +0.000 A 
ATOM      6  N   UNL     1       7.330   5.548  15.322  0.00  0.00    +0.000 NA
ATOM      7  C   UNL     1       7.377   5.614  16.655  0.00  0.00    +0.000 A 
ATOM      8  N   UNL     1       6.555   4.981  17.506  0.00  0.00    +0.000 NA
ATOM      9  H   UNL     1       5.109   3.784  18.836  0.00  0.00    +0.000 HD
ENDBRANCH   1   2
BRANCH   1  10
ATOM     10  C   UNL     1       3.695   1.574  18.726  0.00  0.00    +0.000 C 
BRANCH  10  11
ATOM     11  O   UNL     1       4.801   1.730  19.619  0.00  0.00    +0.000 OA
ATOM     12  H   UNL     1       5.018   2.680  19.634  0.00  0.00    +0.000 HD
ENDBRANCH  10  11
ENDBRANCH   1  10
BRANCH   1  13
ATOM     13  C   UNL     1       2.278   3.485  17.690  0.00  0.00    +0.000 C 
BRANCH  13  14
ATOM     14  C   UNL     1       2.265   4.749  18.538  0.00  0.00    +0.000 A 
ATOM     15  C   UNL     1       1.897   4.672  19.891  0.00  0.00    +0.000 A 
ATOM     16  C   UNL     1       1.780   5.825  20.667  0.00  0.00    +0.000 A 
ATOM     17  C   UNL     1       2.044   7.072  20.105  0.00  0.00    +0.000 A 
ATOM     18  C   UNL     1       2.442   7.163  18.772  0.00  0.00    +0.000 A 
ATOM     19  C   UNL     1       2.552   6.007  17.993  0.00  0.00    +0.000 A 
ENDBRANCH  13  14
BRANCH  13  20
ATOM     20  O   UNL     1       1.177   2.648  18.061  0.00  0.00    +0.000 OA
ATOM     21  H   UNL     1       1.560   1.852  18.485  0.00  0.00    +0.000 HD
ENDBRANCH  13  20
ENDBRANCH   1  13
TORSDOF 6
ENDMDL
MODEL 6
REMARK VINA RESULT:      -6.8      2.414      5.612
REMARK  Name = 
REMARK  6 active torsions:
REMARK  status: ('A' for Active; 'I' for Inactive)
REMARK    1  A    between atoms: O_1  and  C_2
REMARK    2  A    between atoms: C_2  and  CA_3
REMARK    3  A    between atoms: CA_3  and  N_4
REMARK    4  A    between atoms: CA_3  and  C_11
REMARK    5  A    between atoms: C_11  and  O_12
REMARK    6  A    between atoms: C_11  and  C_13
REMARK                            x       y       z     vdW  Elec       q    Type
REMARK                         _______ _______ _______ _____ _____    ______ ____
ROOT
ATOM      1  CA  UNL     1       5.896   5.626  16.875  0.00  0.00    +0.000 C 
ENDROOT
BRANCH   1   2
ATOM      2  N   UNL     1       5.648   4.748  18.017  0.00  0.00    +0.000 N 
ATOM      3  C   UNL     1       4.630   3.866  18.222  0.00  0.00    +0.000 A 
ATOM      4  C   UNL     1       3.653   3.569  17.299  0.00  0.00    +0.000 A 
ATOM      5  C   UNL     1       2.719   2.626  17.672  0.00  0.00    +0.000 A 
ATOM      6  N   UNL     1       2.725   1.995  18.855  0.00  0.00    +0.000 NA
ATOM      7  C   UNL     1       3.717   2.349  19.678  0.00  0.00    +0.000 A 
ATOM      8  N   UNL     1       4.666   3.262  19.421  0.00  0.00    +0.000 NA
ATOM      9  H   UNL     1       6.188   4.894  18.862  0.00  0.00    +0.000 HD
ENDBRANCH   1   2
BRANCH   1  10
ATOM     10  C   UNL     1       5.916   7.106  17.312  0.00  0.00    +0.000 C 
BRANCH  10  11
ATOM     11  O   UNL     1       7.153   7.729  16.959  0.00  0.00    +0.000 OA
ATOM     12  H   UNL     1       7.798   7.012  16.818  0.00  0.00    +0.000 HD
ENDBRANCH  10  11
ENDBRANCH   1  10
BRANCH   1  13
ATOM     13  C   UNL     1       7.205   5.198  16.116  0.00  0.00    +0.000 C 
BRANCH  13  14
ATOM     14  C   UNL     1       6.988   4.816  14.658  0.00  0.00    +0.000 A 
ATOM     15  C   UNL     1       5.992   3.882  14.328  0.00  0.00    +0.000 A 
ATOM     16  C   UNL     1       5.836   3.440  13.014  0.00  0.00    +0.000 A 
ATOM     17  C   UNL     1       6.662   3.935  12.009  0.00  0.00    +0.000 A 
ATOM     18  C   UNL     1       7.634   4.886  12.315  0.00  0.00    +0.000 A 
ATOM     19  C   UNL     1       7.796   5.325  13.633  0.00  0.00    +0.000 A 
ENDBRANCH  13  14
BRANCH  13  20
ATOM     20  O   UNL     1       7.915   4.149  16.784  0.00  0.00    +0.000 OA
ATOM     21  H   UNL     1       8.816   4.490  16.963  0.00  0.00    +0.000 HD
ENDBRANCH  13  20
ENDBRANCH   1  13
TORSDOF 6
ENDMDL
MODEL 7
REMARK VINA RESULT:      -6.6      2.367      5.653
REMARK  Name = 
REMARK  6 active torsions:
REMARK  status: ('A' for Active; 'I' for Inactive)
REMARK    1  A    between atoms: O_1  and  C_2
REMARK    2  A    between atoms: C_2  and  CA_3
REMARK    3  A    between atoms: CA_3  and  N_4
REMARK    4  A    between atoms: CA_3  and  C_11
REMARK    5  A    between atoms: C_11  and  O_12
REMARK    6  A    between atoms: C_11  and  C_13
REMARK                            x       y       z     vdW  Elec       q    Type
REMARK                         _______ _______ _______ _____ _____    ______ ____
ROOT
ATOM      1  CA  UNL     1       5.665   5.521  16.675  0.00  0.00    +0.000 C 
ENDROOT
BRANCH   1   2
ATOM      2  N   UNL     1       5.478   4.627  17.815  0.00  0.00    +0.000 N 
ATOM      3  C   UNL     1       4.452   3.769  18.079  0.00  0.00    +0.000 A 
ATOM      4  C   UNL     1       3.401   3.518  17.227  0.00  0.00    +0.000 A 
ATOM      5  C   UNL     1       2.471   2.594  17.650  0.00  0.00    +0.000 A 
ATOM      6  N   UNL     1       2.547   1.939  18.818  0.00  0.00    +0.000 NA
ATOM      7  C   UNL     1       3.607   2.247  19.570  0.00  0.00    +0.000 A 
ATOM      8  N   UNL     1       4.560   3.139  19.261  0.00  0.00    +0.000 NA
ATOM      9  H   UNL     1       6.083   4.741  18.620  0.00  0.00    +0.000 HD
ENDBRANCH   1   2
BRANCH   1  10
ATOM     10  C   UNL     1       5.512   6.997  17.101  0.00  0.00    +0.000 C 
BRANCH  10  11
ATOM     11  O   UNL     1       6.762   7.686  17.026  0.00  0.00    +0.000 OA
ATOM     12  H   UNL     1       6.928   8.064  17.909  0.00  0.00    +0.000 HD
ENDBRANCH  10  11
ENDBRANCH   1  10
BRANCH   1  13
ATOM     13  C   UNL     1       7.036   5.234  15.960  0.00  0.00    +0.000 C 
BRANCH  13  14
ATOM     14  C   UNL     1       6.902   4.702  14.540  0.00  0.00    +0.000 A 
ATOM     15  C   UNL     1       7.754   5.189  13.534  0.00  0.00    +0.000 A 
ATOM     16  C   UNL     1       7.590   4.794  12.206  0.00  0.00    +0.000 A 
ATOM     17  C   UNL     1       6.582   3.897  11.866  0.00  0.00    +0.000 A 
ATOM     18  C   UNL     1       5.748   3.381  12.856  0.00  0.00    +0.000 A 
ATOM     19  C   UNL     1       5.908   3.781  14.186  0.00  0.00    +0.000 A 
ENDBRANCH  13  14
BRANCH  13  20
ATOM     20  O   UNL     1       7.885   4.364  16.718  0.00  0.00    +0.000 OA
ATOM     21  H   UNL     1       8.490   4.940  17.229  0.00  0.00    +0.000 HD
ENDBRANCH  13  20
ENDBRANCH   1  13
TORSDOF 6
ENDMDL
MODEL 8
REMARK VINA RESULT:      -6.6      3.026      4.707
REMARK  Name = 
REMARK  6 active torsions:
REMARK  status: ('A' for Active; 'I' for Inactive)
REMARK    1  A    between atoms: O_1  and  C_2
REMARK    2  A    between atoms: C_2  and  CA_3
REMARK    3  A    between atoms: CA_3  and  N_4
REMARK    4  A    between atoms: CA_3  and  C_11
REMARK    5  A    between atoms: C_11  and  O_12
REMARK    6  A    between atoms: C_11  and  C_13
REMARK                            x       y       z     vdW  Elec       q    Type
REMARK                         _______ _______ _______ _____ _____    ______ ____
ROOT
ATOM      1  CA  UNL     1       3.038   3.936  19.032  0.00  0.00    +0.000 C 
ENDROOT
BRANCH   1   2
ATOM      2  N   UNL     1       4.469   4.183  19.190  0.00  0.00    +0.000 N 
ATOM      3  C   UNL     1       5.432   4.315  18.234  0.00  0.00    +0.000 A 
ATOM      4  C   UNL     1       5.194   4.327  16.879  0.00  0.00    +0.000 A 
ATOM      5  C   UNL     1       6.290   4.503  16.062  0.00  0.00    +0.000 A 
ATOM      6  N   UNL     1       7.541   4.667  16.516  0.00  0.00    +0.000 NA
ATOM      7  C   UNL     1       7.666   4.647  17.846  0.00  0.00    +0.000 A 
ATOM      8  N   UNL     1       6.672   4.469  18.728  0.00  0.00    +0.000 NA
ATOM      9  H   UNL     1       4.875   4.092  20.115  0.00  0.00    +0.000 HD
ENDBRANCH   1   2
BRANCH   1  10
ATOM     10  C   UNL     1       2.713   2.438  19.216  0.00  0.00    +0.000 C 
BRANCH  10  11
ATOM     11  O   UNL     1       2.579   1.783  17.953  0.00  0.00    +0.000 OA
ATOM     12  H   UNL     1       2.714   0.831  18.115  0.00  0.00    +0.000 HD
ENDBRANCH  10  11
ENDBRANCH   1  10
BRANCH   1  13
ATOM     13  C   UNL     1       2.203   4.861  19.993  0.00  0.00    +0.000 C 
BRANCH  13  14
ATOM     14  C   UNL     1       2.122   6.315  19.547  0.00  0.00    +0.000 A 
ATOM     15  C   UNL     1       1.667   7.292  20.448  0.00  0.00    +0.000 A 
ATOM     16  C   UNL     1       1.489   8.613  20.039  0.00  0.00    +0.000 A 
ATOM     17  C   UNL     1       1.776   8.981  18.727  0.00  0.00    +0.000 A 
ATOM     18  C   UNL     1       2.257   8.030  17.828  0.00  0.00    +0.000 A 
ATOM     19  C   UNL     1       2.430   6.704  18.236  0.00  0.00    +0.000 A 
ENDBRANCH  13  14
BRANCH  13  20
ATOM     20  O   UNL     1       2.655   4.802  21.350  0.00  0.00    +0.000 OA
ATOM     21  H   UNL     1       3.173   5.619  21.508  0.00  0.00    +0.000 HD
ENDBRANCH  13  20
ENDBRANCH   1  13
TORSDOF 6
ENDMDL
MODEL 9
REMARK VINA RESULT:      -6.6      2.039      2.368
REMARK  Name = 
REMARK  6 active torsions:
REMARK  status: ('A' for Active; 'I' for Inactive)
REMARK    1  A    between atoms: O_1  and  C_2
REMARK    2  A    between atoms: C_2  and  CA_3
REMARK    3  A    between atoms: CA_3  and  N_4
REMARK    4  A    between atoms: CA_3  and  C_11
REMARK    5  A    between atoms: C_11  and  O_12
REMARK    6  A    between atoms: C_11  and  C_13
REMARK                            x       y       z     vdW  Elec       q    Type
REMARK                         _______ _______ _______ _____ _____    ______ ____
ROOT
ATOM      1  CA  UNL     1       7.055   4.821  18.157  0.00  0.00    +0.000 C 
ENDROOT
BRANCH   1   2
ATOM      2  N   UNL     1       7.483   5.295  16.843  0.00  0.00    +0.000 N 
ATOM      3  C   UNL     1       7.139   4.838  15.606  0.00  0.00    +0.000 A 
ATOM      4  C   UNL     1       6.209   3.854  15.366  0.00  0.00    +0.000 A 
ATOM      5  C   UNL     1       5.967   3.543  14.045  0.00  0.00    +0.000 A 
ATOM      6  N   UNL     1       6.573   4.146  13.012  0.00  0.00    +0.000 NA
ATOM      7  C   UNL     1       7.455   5.092  13.350  0.00  0.00    +0.000 A 
ATOM      8  N   UNL     1       7.774   5.461  14.600  0.00  0.00    +0.000 NA
ATOM      9  H   UNL     1       8.263   5.942  16.796  0.00  0.00    +0.000 HD
ENDBRANCH   1   2
BRANCH   1  10
ATOM     10  C   UNL     1       7.313   5.889  19.240  0.00  0.00    +0.000 C 
BRANCH  10  11
ATOM     11  O   UNL     1       7.968   5.321  20.377  0.00  0.00    +0.000 OA
ATOM     12  H   UNL     1       7.275   5.134  21.036  0.00  0.00    +0.000 HD
ENDBRANCH  10  11
ENDBRANCH   1  10
BRANCH   1  13
ATOM     13  C   UNL     1       5.556   4.346  18.117  0.00  0.00    +0.000 C 
BRANCH  13  14
ATOM     14  C   UNL     1       4.541   5.457  18.349  0.00  0.00    +0.000 A 
ATOM     15  C   UNL     1       3.721   5.419  19.489  0.00  0.00    +0.000 A 
ATOM     16  C   UNL     1       2.716   6.368  19.677  0.00  0.00    +0.000 A 
ATOM     17  C   UNL     1       2.525   7.377  18.737  0.00  0.00    +0.000 A 
ATOM     18  C   UNL     1       3.351   7.447  17.616  0.00  0.00    +0.000 A 
ATOM     19  C   UNL     1       4.354   6.492  17.423  0.00  0.00    +0.000 A 
ENDBRANCH  13  14
BRANCH  13  20
ATOM     20  O   UNL     1       5.293   3.263  19.016  0.00  0.00    +0.000 OA
ATOM     21  H   UNL     1       4.853   3.652  19.801  0.00  0.00    +0.000 HD
ENDBRANCH  13  20
ENDBRANCH   1  13
TORSDOF 6
ENDMDL
