MODEL 1
REMARK VINA RESULT:      -9.2      0.000      0.000
REMARK  Name = 
REMARK  6 active torsions:
REMARK  status: ('A' for Active; 'I' for Inactive)
REMARK    1  A    between atoms: C_1  and  O_2
REMARK    2  A    between atoms: O_2  and  C_3
REMARK    3  A    between atoms: C_7  and  N_8
REMARK    4  A    between atoms: C_14  and  C_15
REMARK    5  A    between atoms: N_24  and  C_25
REMARK    6  A    between atoms: C_25  and  C_26
REMARK                            x       y       z     vdW  Elec       q    Type
REMARK                         _______ _______ _______ _____ _____    ______ ____
ROOT
ATOM      1  N   UNL     1      -1.305  11.785  23.147  0.00  0.00    +0.000 N 
ATOM      2  C   UNL     1      -0.554  10.827  22.463  0.00  0.00    +0.000 A 
ATOM      3  N   UNL     1       0.243  10.041  23.201  0.00  0.00    +0.000 NA
ATOM      4  C   UNL     1       1.011   9.152  22.528  0.00  0.00    +0.000 A 
ATOM      5  C   UNL     1       1.044   9.033  21.156  0.00  0.00    +0.000 A 
ATOM      6  N   UNL     1       1.861   8.082  20.517  0.00  0.00    +0.000 NA
ATOM      7  C   UNL     1       1.879   8.075  19.211  0.00  0.00    +0.000 A 
ATOM      8  C   UNL     1       1.110   9.123  18.391  0.00  0.00    +0.000 A 
ATOM      9  O   UNL     1       1.339   9.259  17.196  0.00  0.00    +0.000 OA
ATOM     10  N   UNL     1       0.181   9.879  19.082  0.00  0.00    +0.000 N 
ATOM     11  C   UNL     1       0.182   9.893  20.493  0.00  0.00    +0.000 A 
ATOM     12  N   UNL     1      -0.620  10.765  21.127  0.00  0.00    +0.000 NA
ATOM     13  H   UNL     1      -1.205  11.613  24.141  0.00  0.00    +0.000 HD
ENDROOT
BRANCH   7  14
ATOM     14  C   UNL     1       2.648   7.009  18.493  0.00  0.00    +0.000 A 
ATOM     15  C   UNL     1       2.244   5.666  18.515  0.00  0.00    +0.000 A 
ATOM     16  C   UNL     1       2.989   4.682  17.860  0.00  0.00    +0.000 A 
ATOM     17  C   UNL     1       4.162   5.031  17.200  0.00  0.00    +0.000 A 
ATOM     18 CL   UNL     1       5.092   3.813  16.422  0.00  0.00    +0.000 Cl
ATOM     19  C   UNL     1       4.588   6.358  17.181  0.00  0.00    +0.000 A 
ATOM     20  C   UNL     1       3.834   7.347  17.826  0.00  0.00    +0.000 A 
ENDBRANCH   7  14
BRANCH   1  25
ATOM     21  C   UNL     1      -4.869  12.773  23.447  0.00  0.00    +0.000 A 
ATOM     22  C   UNL     1      -5.158  13.138  22.131  0.00  0.00    +0.000 A 
ATOM     23  C   UNL     1      -4.180  13.063  21.144  0.00  0.00    +0.000 A 
ATOM     24  C   UNL     1      -2.896  12.627  21.472  0.00  0.00    +0.000 A 
ATOM     25  C   UNL     1      -2.578  12.270  22.789  0.00  0.00    +0.000 A 
ATOM     26  C   UNL     1      -3.583  12.325  23.766  0.00  0.00    +0.000 A 
BRANCH  21  28
ATOM     27  C   UNL     1      -7.203  12.524  23.824  0.00  0.00    +0.000 C 
ATOM     28  O   UNL     1      -5.920  12.892  24.314  0.00  0.00    +0.000 OA
ENDBRANCH  21  28
ENDBRANCH   1  25
BRANCH  10  29
ATOM     29  C   UNL     1      -0.723  10.760  18.349  0.00  0.00    +0.000 C 
BRANCH  29  30
ATOM     30  C   UNL     1      -2.078  10.146  17.961  0.00  0.00    +0.000 C 
ATOM     31  C   UNL     1      -3.257  11.116  17.931  0.00  0.00    +0.000 C 
ATOM     32  C   UNL     1      -3.381  11.474  16.472  0.00  0.00    +0.000 C 
ATOM     33  C   UNL     1      -3.011  10.167  15.816  0.00  0.00    +0.000 C 
ATOM     34  O   UNL     1      -1.959   9.616  16.617  0.00  0.00    +0.000 OA
ENDBRANCH  29  30
ENDBRANCH  10  29
TORSDOF 5
ENDMDL
MODEL 2
REMARK VINA RESULT:      -9.1      0.437      1.012
REMARK  Name = 
REMARK  6 active torsions:
REMARK  status: ('A' for Active; 'I' for Inactive)
REMARK    1  A    between atoms: C_1  and  O_2
REMARK    2  A    between atoms: O_2  and  C_3
REMARK    3  A    between atoms: C_7  and  N_8
REMARK    4  A    between atoms: C_14  and  C_15
REMARK    5  A    between atoms: N_24  and  C_25
REMARK    6  A    between atoms: C_25  and  C_26
REMARK                            x       y       z     vdW  Elec       q    Type
REMARK                         _______ _______ _______ _____ _____    ______ ____
ROOT
ATOM      1  N   UNL     1      -1.448  11.844  23.138  0.00  0.00    +0.000 N 
ATOM      2  C   UNL     1      -0.677  10.891  22.469  0.00  0.00    +0.000 A 
ATOM      3  N   UNL     1       0.087  10.090  23.227  0.00  0.00    +0.000 NA
ATOM      4  C   UNL     1       0.875   9.205  22.571  0.00  0.00    +0.000 A 
ATOM      5  C   UNL     1       0.959   9.104  21.200  0.00  0.00    +0.000 A 
ATOM      6  N   UNL     1       1.794   8.156  20.580  0.00  0.00    +0.000 NA
ATOM      7  C   UNL     1       1.862   8.167  19.276  0.00  0.00    +0.000 A 
ATOM      8  C   UNL     1       1.130   9.230  18.441  0.00  0.00    +0.000 A 
ATOM      9  O   UNL     1       1.406   9.381  17.257  0.00  0.00    +0.000 OA
ATOM     10  N   UNL     1       0.181   9.983  19.106  0.00  0.00    +0.000 N 
ATOM     11  C   UNL     1       0.128   9.978  20.517  0.00  0.00    +0.000 A 
ATOM     12  N   UNL     1      -0.693  10.847  21.132  0.00  0.00    +0.000 NA
ATOM     13  H   UNL     1      -1.387  11.658  24.133  0.00  0.00    +0.000 HD
ENDROOT
BRANCH   7  14
ATOM     14  C   UNL     1       2.651   7.106  18.573  0.00  0.00    +0.000 A 
ATOM     15  C   UNL     1       3.781   7.417  17.800  0.00  0.00    +0.000 A 
ATOM     16  C   UNL     1       4.488   6.416  17.131  0.00  0.00    +0.000 A 
ATOM     17  C   UNL     1       4.055   5.097  17.206  0.00  0.00    +0.000 A 
ATOM     18 CL   UNL     1       4.910   3.872  16.354  0.00  0.00    +0.000 Cl
ATOM     19  C   UNL     1       2.925   4.771  17.955  0.00  0.00    +0.000 A 
ATOM     20  C   UNL     1       2.224   5.773  18.637  0.00  0.00    +0.000 A 
ENDBRANCH   7  14
BRANCH   1  25
ATOM     21  C   UNL     1      -5.000  12.897  23.329  0.00  0.00    +0.000 A 
ATOM     22  C   UNL     1      -5.251  13.238  21.999  0.00  0.00    +0.000 A 
ATOM     23  C   UNL     1      -4.251  13.125  21.038  0.00  0.00    +0.000 A 
ATOM     24  C   UNL     1      -2.983  12.676  21.407  0.00  0.00    +0.000 A 
ATOM     25  C   UNL     1      -2.703  12.342  22.738  0.00  0.00    +0.000 A 
ATOM     26  C   UNL     1      -3.730  12.436  23.689  0.00  0.00    +0.000 A 
BRANCH  21  28
ATOM     27  C   UNL     1      -7.360  12.831  23.612  0.00  0.00    +0.000 C 
ATOM     28  O   UNL     1      -6.070  13.052  24.167  0.00  0.00    +0.000 OA
ENDBRANCH  21  28
ENDBRANCH   1  25
BRANCH  10  29
ATOM     29  C   UNL     1      -0.690  10.879  18.352  0.00  0.00    +0.000 C 
BRANCH  29  30
ATOM     30  C   UNL     1      -1.705  10.193  17.424  0.00  0.00    +0.000 C 
ATOM     31  C   UNL     1      -2.969   9.668  18.101  0.00  0.00    +0.000 C 
ATOM     32  C   UNL     1      -3.980  10.757  17.849  0.00  0.00    +0.000 C 
ATOM     33  C   UNL     1      -3.578  11.219  16.471  0.00  0.00    +0.000 C 
ATOM     34  O   UNL     1      -2.148  11.169  16.448  0.00  0.00    +0.000 OA
ENDBRANCH  29  30
ENDBRANCH  10  29
TORSDOF 5
ENDMDL
MODEL 3
REMARK VINA RESULT:      -8.4      1.193      1.596
REMARK  Name = 
REMARK  6 active torsions:
REMARK  status: ('A' for Active; 'I' for Inactive)
REMARK    1  A    between atoms: C_1  and  O_2
REMARK    2  A    between atoms: O_2  and  C_3
REMARK    3  A    between atoms: C_7  and  N_8
REMARK    4  A    between atoms: C_14  and  C_15
REMARK    5  A    between atoms: N_24  and  C_25
REMARK    6  A    between atoms: C_25  and  C_26
REMARK                            x       y       z     vdW  Elec       q    Type
REMARK                         _______ _______ _______ _____ _____    ______ ____
ROOT
ATOM      1  N   UNL     1      -1.214  12.067  23.192  0.00  0.00    +0.000 N 
ATOM      2  C   UNL     1      -0.517  11.056  22.530  0.00  0.00    +0.000 A 
ATOM      3  N   UNL     1       0.169  10.192  23.294  0.00  0.00    +0.000 NA
ATOM      4  C   UNL     1       0.890   9.247  22.646  0.00  0.00    +0.000 A 
ATOM      5  C   UNL     1       0.981   9.142  21.275  0.00  0.00    +0.000 A 
ATOM      6  N   UNL     1       1.743   8.130  20.663  0.00  0.00    +0.000 NA
ATOM      7  C   UNL     1       1.827   8.136  19.359  0.00  0.00    +0.000 A 
ATOM      8  C   UNL     1       1.196   9.258  18.519  0.00  0.00    +0.000 A 
ATOM      9  O   UNL     1       1.497   9.387  17.339  0.00  0.00    +0.000 OA
ATOM     10  N   UNL     1       0.303  10.086  19.175  0.00  0.00    +0.000 N 
ATOM     11  C   UNL     1       0.233  10.082  20.585  0.00  0.00    +0.000 A 
ATOM     12  N   UNL     1      -0.520  11.015  21.192  0.00  0.00    +0.000 NA
ATOM     13  H   UNL     1      -1.181  11.876  24.187  0.00  0.00    +0.000 HD
ENDROOT
BRANCH   7  14
ATOM     14  C   UNL     1       2.535   7.015  18.663  0.00  0.00    +0.000 A 
ATOM     15  C   UNL     1       2.176   5.675  18.869  0.00  0.00    +0.000 A 
ATOM     16  C   UNL     1       2.865   4.642  18.230  0.00  0.00    +0.000 A 
ATOM     17  C   UNL     1       3.939   4.940  17.399  0.00  0.00    +0.000 A 
ATOM     18 CL   UNL     1       4.805   3.664  16.639  0.00  0.00    +0.000 Cl
ATOM     19  C   UNL     1       4.321   6.265  17.195  0.00  0.00    +0.000 A 
ATOM     20  C   UNL     1       3.622   7.301  17.825  0.00  0.00    +0.000 A 
ENDBRANCH   7  14
BRANCH   1  25
ATOM     21  C   UNL     1      -3.537  14.405  21.486  0.00  0.00    +0.000 A 
ATOM     22  C   UNL     1      -4.767  13.970  21.982  0.00  0.00    +0.000 A 
ATOM     23  C   UNL     1      -4.835  12.906  22.875  0.00  0.00    +0.000 A 
ATOM     24  C   UNL     1      -3.664  12.260  23.274  0.00  0.00    +0.000 A 
ATOM     25  C   UNL     1      -2.420  12.668  22.778  0.00  0.00    +0.000 A 
ATOM     26  C   UNL     1      -2.367  13.760  21.900  0.00  0.00    +0.000 A 
BRANCH  21  28
ATOM     27  C   UNL     1      -4.599  16.448  20.894  0.00  0.00    +0.000 C 
ATOM     28  O   UNL     1      -3.614  15.461  20.620  0.00  0.00    +0.000 OA
ENDBRANCH  21  28
ENDBRANCH   1  25
BRANCH  10  29
ATOM     29  C   UNL     1      -0.482  11.051  18.412  0.00  0.00    +0.000 C 
BRANCH  29  30
ATOM     30  C   UNL     1      -1.930  10.637  18.108  0.00  0.00    +0.000 C 
ATOM     31  C   UNL     1      -2.784  11.691  17.406  0.00  0.00    +0.000 C 
ATOM     32  C   UNL     1      -2.718  11.286  15.955  0.00  0.00    +0.000 C 
ATOM     33  C   UNL     1      -2.695   9.782  16.070  0.00  0.00    +0.000 C 
ATOM     34  O   UNL     1      -1.889   9.494  17.217  0.00  0.00    +0.000 OA
ENDBRANCH  29  30
ENDBRANCH  10  29
TORSDOF 5
ENDMDL
MODEL 4
REMARK VINA RESULT:      -8.2      1.291      2.154
REMARK  Name = 
REMARK  6 active torsions:
REMARK  status: ('A' for Active; 'I' for Inactive)
REMARK    1  A    between atoms: C_1  and  O_2
REMARK    2  A    between atoms: O_2  and  C_3
REMARK    3  A    between atoms: C_7  and  N_8
REMARK    4  A    between atoms: C_14  and  C_15
REMARK    5  A    between atoms: N_24  and  C_25
REMARK    6  A    between atoms: C_25  and  C_26
REMARK                            x       y       z     vdW  Elec       q    Type
REMARK                         _______ _______ _______ _____ _____    ______ ____
ROOT
ATOM      1  N   UNL     1      -1.504  11.742  23.338  0.00  0.00    +0.000 N 
ATOM      2  C   UNL     1      -0.744  10.798  22.644  0.00  0.00    +0.000 A 
ATOM      3  N   UNL     1      -0.064   9.907  23.382  0.00  0.00    +0.000 NA
ATOM      4  C   UNL     1       0.716   9.029  22.707  0.00  0.00    +0.000 A 
ATOM      5  C   UNL     1       0.871   9.018  21.339  0.00  0.00    +0.000 A 
ATOM      6  N   UNL     1       1.692   8.072  20.698  0.00  0.00    +0.000 NA
ATOM      7  C   UNL     1       1.834   8.168  19.403  0.00  0.00    +0.000 A 
ATOM      8  C   UNL     1       1.202   9.323  18.608  0.00  0.00    +0.000 A 
ATOM      9  O   UNL     1       1.551   9.539  17.454  0.00  0.00    +0.000 OA
ATOM     10  N   UNL     1       0.255  10.077  19.275  0.00  0.00    +0.000 N 
ATOM     11  C   UNL     1       0.123   9.978  20.677  0.00  0.00    +0.000 A 
ATOM     12  N   UNL     1      -0.687  10.846  21.308  0.00  0.00    +0.000 NA
ATOM     13  H   UNL     1      -1.508  11.485  24.318  0.00  0.00    +0.000 HD
ENDROOT
BRANCH   7  14
ATOM     14  C   UNL     1       2.609   7.117  18.668  0.00  0.00    +0.000 A 
ATOM     15  C   UNL     1       3.683   7.446  17.827  0.00  0.00    +0.000 A 
ATOM     16  C   UNL     1       4.377   6.454  17.130  0.00  0.00    +0.000 A 
ATOM     17  C   UNL     1       3.983   5.125  17.248  0.00  0.00    +0.000 A 
ATOM     18 CL   UNL     1       4.820   3.911  16.363  0.00  0.00    +0.000 Cl
ATOM     19  C   UNL     1       2.908   4.782  18.065  0.00  0.00    +0.000 A 
ATOM     20  C   UNL     1       2.221   5.775  18.775  0.00  0.00    +0.000 A 
ENDBRANCH   7  14
BRANCH   1  25
ATOM     21  C   UNL     1      -4.994  12.997  23.429  0.00  0.00    +0.000 A 
ATOM     22  C   UNL     1      -5.166  13.409  22.106  0.00  0.00    +0.000 A 
ATOM     23  C   UNL     1      -4.132  13.277  21.183  0.00  0.00    +0.000 A 
ATOM     24  C   UNL     1      -2.910  12.737  21.584  0.00  0.00    +0.000 A 
ATOM     25  C   UNL     1      -2.709  12.331  22.908  0.00  0.00    +0.000 A 
ATOM     26  C   UNL     1      -3.770  12.445  23.819  0.00  0.00    +0.000 A 
BRANCH  21  28
ATOM     27  C   UNL     1      -7.330  12.685  23.742  0.00  0.00    +0.000 C 
ATOM     28  O   UNL     1      -6.089  13.179  24.228  0.00  0.00    +0.000 OA
ENDBRANCH  21  28
ENDBRANCH   1  25
BRANCH  10  29
ATOM     29  C   UNL     1      -0.528  11.067  18.541  0.00  0.00    +0.000 C 
BRANCH  29  30
ATOM     30  C   UNL     1       0.188  12.395  18.249  0.00  0.00    +0.000 C 
ATOM     31  C   UNL     1      -0.561  13.656  18.676  0.00  0.00    +0.000 C 
ATOM     32  C   UNL     1       0.061  13.999  20.006  0.00  0.00    +0.000 C 
ATOM     33  C   UNL     1       1.495  13.593  19.775  0.00  0.00    +0.000 C 
ATOM     34  O   UNL     1       1.437  12.400  18.986  0.00  0.00    +0.000 OA
ENDBRANCH  29  30
ENDBRANCH  10  29
TORSDOF 5
ENDMDL
MODEL 5
REMARK VINA RESULT:      -8.2      1.208      1.600
REMARK  Name = 
REMARK  6 active torsions:
REMARK  status: ('A' for Active; 'I' for Inactive)
REMARK    1  A    between atoms: C_1  and  O_2
REMARK    2  A    between atoms: O_2  and  C_3
REMARK    3  A    between atoms: C_7  and  N_8
REMARK    4  A    between atoms: C_14  and  C_15
REMARK    5  A    between atoms: N_24  and  C_25
REMARK    6  A    between atoms: C_25  and  C_26
REMARK                            x       y       z     vdW  Elec       q    Type
REMARK                         _______ _______ _______ _____ _____    ______ ____
ROOT
ATOM      1  N   UNL     1      -2.288  12.730  22.771  0.00  0.00    +0.000 N 
ATOM      2  C   UNL     1      -1.469  11.691  22.327  0.00  0.00    +0.000 A 
ATOM      3  N   UNL     1      -0.837  10.973  23.267  0.00  0.00    +0.000 NA
ATOM      4  C   UNL     1       0.001  10.003  22.831  0.00  0.00    +0.000 A 
ATOM      5  C   UNL     1       0.259   9.737  21.504  0.00  0.00    +0.000 A 
ATOM      6  N   UNL     1       1.137   8.708  21.116  0.00  0.00    +0.000 NA
ATOM      7  C   UNL     1       1.375   8.560  19.840  0.00  0.00    +0.000 A 
ATOM      8  C   UNL     1       0.793   9.529  18.797  0.00  0.00    +0.000 A 
ATOM      9  O   UNL     1       1.226   9.531  17.651  0.00  0.00    +0.000 OA
ATOM     10  N   UNL     1      -0.210  10.372  19.237  0.00  0.00    +0.000 N 
ATOM     11  C   UNL     1      -0.446  10.536  20.619  0.00  0.00    +0.000 A 
ATOM     12  N   UNL     1      -1.311  11.487  21.013  0.00  0.00    +0.000 NA
ATOM     13  H   UNL     1      -2.364  12.663  23.780  0.00  0.00    +0.000 HD
ENDROOT
BRANCH   7  14
ATOM     14  C   UNL     1       2.214   7.410  19.377  0.00  0.00    +0.000 A 
ATOM     15  C   UNL     1       2.988   7.484  18.208  0.00  0.00    +0.000 A 
ATOM     16  C   UNL     1       3.744   6.391  17.779  0.00  0.00    +0.000 A 
ATOM     17  C   UNL     1       3.710   5.203  18.500  0.00  0.00    +0.000 A 
ATOM     18 CL   UNL     1       4.617   3.849  17.951  0.00  0.00    +0.000 Cl
ATOM     19  C   UNL     1       2.934   5.105  19.654  0.00  0.00    +0.000 A 
ATOM     20  C   UNL     1       2.187   6.205  20.093  0.00  0.00    +0.000 A 
ENDBRANCH   7  14
BRANCH   1  25
ATOM     21  C   UNL     1      -5.845  12.905  21.730  0.00  0.00    +0.000 A 
ATOM     22  C   UNL     1      -5.823  14.014  20.882  0.00  0.00    +0.000 A 
ATOM     23  C   UNL     1      -4.638  14.707  20.654  0.00  0.00    +0.000 A 
ATOM     24  C   UNL     1      -3.463  14.297  21.285  0.00  0.00    +0.000 A 
ATOM     25  C   UNL     1      -3.464  13.198  22.151  0.00  0.00    +0.000 A 
ATOM     26  C   UNL     1      -4.661  12.493  22.349  0.00  0.00    +0.000 A 
BRANCH  21  28
ATOM     27  C   UNL     1      -7.820  12.641  23.026  0.00  0.00    +0.000 C 
ATOM     28  O   UNL     1      -7.072  12.315  21.863  0.00  0.00    +0.000 OA
ENDBRANCH  21  28
ENDBRANCH   1  25
BRANCH  10  29
ATOM     29  C   UNL     1      -0.945  11.185  18.273  0.00  0.00    +0.000 C 
BRANCH  29  30
ATOM     30  C   UNL     1      -1.869  10.412  17.320  0.00  0.00    +0.000 C 
ATOM     31  C   UNL     1      -3.068   9.727  17.973  0.00  0.00    +0.000 C 
ATOM     32  C   UNL     1      -4.197  10.699  17.742  0.00  0.00    +0.000 C 
ATOM     33  C   UNL     1      -3.844  11.241  16.379  0.00  0.00    +0.000 C 
ATOM     34  O   UNL     1      -2.417  11.357  16.366  0.00  0.00    +0.000 OA
ENDBRANCH  29  30
ENDBRANCH  10  29
TORSDOF 5
ENDMDL
MODEL 6
REMARK VINA RESULT:      -8.1      1.388      2.089
REMARK  Name = 
REMARK  6 active torsions:
REMARK  status: ('A' for Active; 'I' for Inactive)
REMARK    1  A    between atoms: C_1  and  O_2
REMARK    2  A    between atoms: O_2  and  C_3
REMARK    3  A    between atoms: C_7  and  N_8
REMARK    4  A    between atoms: C_14  and  C_15
REMARK    5  A    between atoms: N_24  and  C_25
REMARK    6  A    between atoms: C_25  and  C_26
REMARK                            x       y       z     vdW  Elec       q    Type
REMARK                         _______ _______ _______ _____ _____    ______ ____
ROOT
ATOM      1  N   UNL     1      -1.508  12.302  23.058  0.00  0.00    +0.000 N 
ATOM      2  C   UNL     1      -0.785  11.266  22.464  0.00  0.00    +0.000 A 
ATOM      3  N   UNL     1      -0.156  10.415  23.288  0.00  0.00    +0.000 NA
ATOM      4  C   UNL     1       0.591   9.447  22.707  0.00  0.00    +0.000 A 
ATOM      5  C   UNL     1       0.763   9.307  21.348  0.00  0.00    +0.000 A 
ATOM      6  N   UNL     1       1.548   8.272  20.807  0.00  0.00    +0.000 NA
ATOM      7  C   UNL     1       1.710   8.246  19.511  0.00  0.00    +0.000 A 
ATOM      8  C   UNL     1       1.143   9.353  18.607  0.00  0.00    +0.000 A 
ATOM      9  O   UNL     1       1.516   9.450  17.444  0.00  0.00    +0.000 OA
ATOM     10  N   UNL     1       0.223  10.205  19.188  0.00  0.00    +0.000 N 
ATOM     11  C   UNL     1       0.069  10.238  20.591  0.00  0.00    +0.000 A 
ATOM     12  N   UNL     1      -0.708  11.193  21.129  0.00  0.00    +0.000 NA
ATOM     13  H   UNL     1      -1.537  12.134  24.058  0.00  0.00    +0.000 HD
ENDROOT
BRANCH   7  14
ATOM     14  C   UNL     1       2.445   7.100  18.885  0.00  0.00    +0.000 A 
ATOM     15  C   UNL     1       3.453   7.304  17.930  0.00  0.00    +0.000 A 
ATOM     16  C   UNL     1       4.109   6.222  17.339  0.00  0.00    +0.000 A 
ATOM     17  C   UNL     1       3.741   4.924  17.677  0.00  0.00    +0.000 A 
ATOM     18 CL   UNL     1       4.529   3.595  16.923  0.00  0.00    +0.000 Cl
ATOM     19  C   UNL     1       2.730   4.702  18.611  0.00  0.00    +0.000 A 
ATOM     20  C   UNL     1       2.082   5.787  19.214  0.00  0.00    +0.000 A 
ENDBRANCH   7  14
BRANCH   1  25
ATOM     21  C   UNL     1      -3.711  14.758  21.361  0.00  0.00    +0.000 A 
ATOM     22  C   UNL     1      -4.970  14.208  21.612  0.00  0.00    +0.000 A 
ATOM     23  C   UNL     1      -5.095  13.028  22.338  0.00  0.00    +0.000 A 
ATOM     24  C   UNL     1      -3.954  12.381  22.812  0.00  0.00    +0.000 A 
ATOM     25  C   UNL     1      -2.680  12.904  22.559  0.00  0.00    +0.000 A 
ATOM     26  C   UNL     1      -2.572  14.110  21.849  0.00  0.00    +0.000 A 
BRANCH  21  28
ATOM     27  C   UNL     1      -2.499  16.611  20.498  0.00  0.00    +0.000 C 
ATOM     28  O   UNL     1      -3.732  15.920  20.640  0.00  0.00    +0.000 OA
ENDBRANCH  21  28
ENDBRANCH   1  25
BRANCH  10  29
ATOM     29  C   UNL     1      -0.503  11.160  18.357  0.00  0.00    +0.000 C 
BRANCH  29  30
ATOM     30  C   UNL     1      -1.514  10.550  17.373  0.00  0.00    +0.000 C 
ATOM     31  C   UNL     1      -2.603   9.682  17.999  0.00  0.00    +0.000 C 
ATOM     32  C   UNL     1      -3.780  10.617  18.105  0.00  0.00    +0.000 C 
ATOM     33  C   UNL     1      -3.612  11.446  16.856  0.00  0.00    +0.000 C 
ATOM     34  O   UNL     1      -2.201  11.639  16.707  0.00  0.00    +0.000 OA
ENDBRANCH  29  30
ENDBRANCH  10  29
TORSDOF 5
ENDMDL
MODEL 7
REMARK VINA RESULT:      -8.1      1.669      2.366
REMARK  Name = 
REMARK  6 active torsions:
REMARK  status: ('A' for Active; 'I' for Inactive)
REMARK    1  A    between atoms: C_1  and  O_2
REMARK    2  A    between atoms: O_2  and  C_3
REMARK    3  A    between atoms: C_7  and  N_8
REMARK    4  A    between atoms: C_14  and  C_15
REMARK    5  A    between atoms: N_24  and  C_25
REMARK    6  A    between atoms: C_25  and  C_26
REMARK                            x       y       z     vdW  Elec       q    Type
REMARK                         _______ _______ _______ _____ _____    ______ ____
ROOT
ATOM      1  N   UNL     1      -1.263  12.192  23.200  0.00  0.00    +0.000 N 
ATOM      2  C   UNL     1      -0.583  11.167  22.541  0.00  0.00    +0.000 A 
ATOM      3  N   UNL     1      -0.041  10.209  23.308  0.00  0.00    +0.000 NA
ATOM      4  C   UNL     1       0.666   9.247  22.669  0.00  0.00    +0.000 A 
ATOM      5  C   UNL     1       0.882   9.213  21.309  0.00  0.00    +0.000 A 
ATOM      6  N   UNL     1       1.621   8.179  20.706  0.00  0.00    +0.000 NA
ATOM      7  C   UNL     1       1.832   8.254  19.419  0.00  0.00    +0.000 A 
ATOM      8  C   UNL     1       1.371   9.469  18.597  0.00  0.00    +0.000 A 
ATOM      9  O   UNL     1       1.794   9.641  17.461  0.00  0.00    +0.000 OA
ATOM     10  N   UNL     1       0.484  10.327  19.220  0.00  0.00    +0.000 N 
ATOM     11  C   UNL     1       0.277  10.249  20.615  0.00  0.00    +0.000 A 
ATOM     12  N   UNL     1      -0.459  11.203  21.209  0.00  0.00    +0.000 NA
ATOM     13  H   UNL     1      -1.341  11.942  24.179  0.00  0.00    +0.000 HD
ENDROOT
BRANCH   7  14
ATOM     14  C   UNL     1       2.518   7.121  18.719  0.00  0.00    +0.000 A 
ATOM     15  C   UNL     1       2.146   5.786  18.937  0.00  0.00    +0.000 A 
ATOM     16  C   UNL     1       2.815   4.741  18.296  0.00  0.00    +0.000 A 
ATOM     17  C   UNL     1       3.882   5.023  17.450  0.00  0.00    +0.000 A 
ATOM     18 CL   UNL     1       4.723   3.732  16.686  0.00  0.00    +0.000 Cl
ATOM     19  C   UNL     1       4.277   6.342  17.234  0.00  0.00    +0.000 A 
ATOM     20  C   UNL     1       3.597   7.390  17.867  0.00  0.00    +0.000 A 
ENDBRANCH   7  14
BRANCH   1  25
ATOM     21  C   UNL     1      -4.732  12.922  22.105  0.00  0.00    +0.000 A 
ATOM     22  C   UNL     1      -4.607  14.246  21.681  0.00  0.00    +0.000 A 
ATOM     23  C   UNL     1      -3.382  14.901  21.757  0.00  0.00    +0.000 A 
ATOM     24  C   UNL     1      -2.270  14.234  22.270  0.00  0.00    +0.000 A 
ATOM     25  C   UNL     1      -2.375  12.911  22.717  0.00  0.00    +0.000 A 
ATOM     26  C   UNL     1      -3.610  12.256  22.607  0.00  0.00    +0.000 A 
BRANCH  21  28
ATOM     27  C   UNL     1      -6.676  12.675  20.758  0.00  0.00    +0.000 C 
ATOM     28  O   UNL     1      -5.989  12.399  21.972  0.00  0.00    +0.000 OA
ENDBRANCH  21  28
ENDBRANCH   1  25
BRANCH  10  29
ATOM     29  C   UNL     1      -0.149  11.395  18.453  0.00  0.00    +0.000 C 
BRANCH  29  30
ATOM     30  C   UNL     1       0.700  12.660  18.251  0.00  0.00    +0.000 C 
ATOM     31  C   UNL     1       0.004  13.981  18.575  0.00  0.00    +0.000 C 
ATOM     32  C   UNL     1       0.474  14.292  19.973  0.00  0.00    +0.000 C 
ATOM     33  C   UNL     1       1.890  13.774  19.930  0.00  0.00    +0.000 C 
ATOM     34  O   UNL     1       1.840  12.578  19.143  0.00  0.00    +0.000 OA
ENDBRANCH  29  30
ENDBRANCH  10  29
TORSDOF 5
ENDMDL
MODEL 8
REMARK VINA RESULT:      -7.8      2.002      3.014
REMARK  Name = 
REMARK  6 active torsions:
REMARK  status: ('A' for Active; 'I' for Inactive)
REMARK    1  A    between atoms: C_1  and  O_2
REMARK    2  A    between atoms: O_2  and  C_3
REMARK    3  A    between atoms: C_7  and  N_8
REMARK    4  A    between atoms: C_14  and  C_15
REMARK    5  A    between atoms: N_24  and  C_25
REMARK    6  A    between atoms: C_25  and  C_26
REMARK                            x       y       z     vdW  Elec       q    Type
REMARK                         _______ _______ _______ _____ _____    ______ ____
ROOT
ATOM      1  N   UNL     1      -1.390  12.147  23.245  0.00  0.00    +0.000 N 
ATOM      2  C   UNL     1      -0.688  11.137  22.584  0.00  0.00    +0.000 A 
ATOM      3  N   UNL     1      -0.182  10.154  23.344  0.00  0.00    +0.000 NA
ATOM      4  C   UNL     1       0.547   9.208  22.707  0.00  0.00    +0.000 A 
ATOM      5  C   UNL     1       0.818   9.212  21.356  0.00  0.00    +0.000 A 
ATOM      6  N   UNL     1       1.576   8.192  20.753  0.00  0.00    +0.000 NA
ATOM      7  C   UNL     1       1.840   8.303  19.478  0.00  0.00    +0.000 A 
ATOM      8  C   UNL     1       1.418   9.544  18.675  0.00  0.00    +0.000 A 
ATOM      9  O   UNL     1       1.888   9.746  17.563  0.00  0.00    +0.000 OA
ATOM     10  N   UNL     1       0.510  10.389  19.287  0.00  0.00    +0.000 N 
ATOM     11  C   UNL     1       0.246  10.271  20.668  0.00  0.00    +0.000 A 
ATOM     12  N   UNL     1      -0.510  11.212  21.260  0.00  0.00    +0.000 NA
ATOM     13  H   UNL     1      -1.509  11.869  24.212  0.00  0.00    +0.000 HD
ENDROOT
BRANCH   7  14
ATOM     14  C   UNL     1       2.548   7.187  18.775  0.00  0.00    +0.000 A 
ATOM     15  C   UNL     1       3.581   7.431  17.857  0.00  0.00    +0.000 A 
ATOM     16  C   UNL     1       4.213   6.378  17.191  0.00  0.00    +0.000 A 
ATOM     17  C   UNL     1       3.796   5.071  17.417  0.00  0.00    +0.000 A 
ATOM     18 CL   UNL     1       4.554   3.780  16.572  0.00  0.00    +0.000 Cl
ATOM     19  C   UNL     1       2.760   4.810  18.313  0.00  0.00    +0.000 A 
ATOM     20  C   UNL     1       2.137   5.865  18.991  0.00  0.00    +0.000 A 
ENDBRANCH   7  14
BRANCH   1  25
ATOM     21  C   UNL     1      -3.277  14.887  21.602  0.00  0.00    +0.000 A 
ATOM     22  C   UNL     1      -4.592  14.454  21.783  0.00  0.00    +0.000 A 
ATOM     23  C   UNL     1      -4.859  13.258  22.444  0.00  0.00    +0.000 A 
ATOM     24  C   UNL     1      -3.804  12.480  22.921  0.00  0.00    +0.000 A 
ATOM     25  C   UNL     1      -2.477  12.886  22.738  0.00  0.00    +0.000 A 
ATOM     26  C   UNL     1      -2.226  14.107  22.095  0.00  0.00    +0.000 A 
BRANCH  21  28
ATOM     27  C   UNL     1      -1.881  16.703  20.967  0.00  0.00    +0.000 C 
ATOM     28  O   UNL     1      -3.158  16.078  20.941  0.00  0.00    +0.000 OA
ENDBRANCH  21  28
ENDBRANCH   1  25
BRANCH  10  29
ATOM     29  C   UNL     1      -0.086  11.482  18.525  0.00  0.00    +0.000 C 
BRANCH  29  30
ATOM     30  C   UNL     1       0.803  12.721  18.337  0.00  0.00    +0.000 C 
ATOM     31  C   UNL     1       0.211  14.040  18.831  0.00  0.00    +0.000 C 
ATOM     32  C   UNL     1       0.833  14.215  20.193  0.00  0.00    +0.000 C 
ATOM     33  C   UNL     1       2.208  13.640  19.966  0.00  0.00    +0.000 C 
ATOM     34  O   UNL     1       2.020  12.517  19.099  0.00  0.00    +0.000 OA
ENDBRANCH  29  30
ENDBRANCH  10  29
TORSDOF 5
ENDMDL
MODEL 9
REMARK VINA RESULT:      -7.8      1.294      1.513
REMARK  Name = 
REMARK  6 active torsions:
REMARK  status: ('A' for Active; 'I' for Inactive)
REMARK    1  A    between atoms: C_1  and  O_2
REMARK    2  A    between atoms: O_2  and  C_3
REMARK    3  A    between atoms: C_7  and  N_8
REMARK    4  A    between atoms: C_14  and  C_15
REMARK    5  A    between atoms: N_24  and  C_25
REMARK    6  A    between atoms: C_25  and  C_26
REMARK                            x       y       z     vdW  Elec       q    Type
REMARK                         _______ _______ _______ _____ _____    ______ ____
ROOT
ATOM      1  N   UNL     1      -1.543  12.211  23.239  0.00  0.00    +0.000 N 
ATOM      2  C   UNL     1      -0.826  11.203  22.592  0.00  0.00    +0.000 A 
ATOM      3  N   UNL     1      -0.258  10.269  23.369  0.00  0.00    +0.000 NA
ATOM      4  C   UNL     1       0.483   9.326  22.742  0.00  0.00    +0.000 A 
ATOM      5  C   UNL     1       0.709   9.289  21.383  0.00  0.00    +0.000 A 
ATOM      6  N   UNL     1       1.486   8.275  20.792  0.00  0.00    +0.000 NA
ATOM      7  C   UNL     1       1.702   8.348  19.506  0.00  0.00    +0.000 A 
ATOM      8  C   UNL     1       1.208   9.542  18.673  0.00  0.00    +0.000 A 
ATOM      9  O   UNL     1       1.632   9.719  17.538  0.00  0.00    +0.000 OA
ATOM     10  N   UNL     1       0.289  10.375  19.284  0.00  0.00    +0.000 N 
ATOM     11  C   UNL     1       0.076  10.300  20.678  0.00  0.00    +0.000 A 
ATOM     12  N   UNL     1      -0.695  11.234  21.260  0.00  0.00    +0.000 NA
ATOM     13  H   UNL     1      -1.619  11.965  24.219  0.00  0.00    +0.000 HD
ENDROOT
BRANCH   7  14
ATOM     14  C   UNL     1       2.429   7.232  18.819  0.00  0.00    +0.000 A 
ATOM     15  C   UNL     1       2.208   5.889  19.158  0.00  0.00    +0.000 A 
ATOM     16  C   UNL     1       2.914   4.864  18.525  0.00  0.00    +0.000 A 
ATOM     17  C   UNL     1       3.870   5.177  17.564  0.00  0.00    +0.000 A 
ATOM     18 CL   UNL     1       4.760   3.915  16.809  0.00  0.00    +0.000 Cl
ATOM     19  C   UNL     1       4.115   6.507  17.226  0.00  0.00    +0.000 A 
ATOM     20  C   UNL     1       3.397   7.534  17.852  0.00  0.00    +0.000 A 
ENDBRANCH   7  14
BRANCH   1  25
ATOM     21  C   UNL     1      -4.550  12.939  21.190  0.00  0.00    +0.000 A 
ATOM     22  C   UNL     1      -4.882  14.216  21.644  0.00  0.00    +0.000 A 
ATOM     23  C   UNL     1      -4.119  14.838  22.628  0.00  0.00    +0.000 A 
ATOM     24  C   UNL     1      -3.017  14.178  23.172  0.00  0.00    +0.000 A 
ATOM     25  C   UNL     1      -2.674  12.890  22.743  0.00  0.00    +0.000 A 
ATOM     26  C   UNL     1      -3.436  12.288  21.731  0.00  0.00    +0.000 A 
BRANCH  21  28
ATOM     27  C   UNL     1      -6.480  11.660  20.654  0.00  0.00    +0.000 C 
ATOM     28  O   UNL     1      -5.380  12.447  20.220  0.00  0.00    +0.000 OA
ENDBRANCH  21  28
ENDBRANCH   1  25
BRANCH  10  29
ATOM     29  C   UNL     1      -0.372  11.416  18.504  0.00  0.00    +0.000 C 
BRANCH  29  30
ATOM     30  C   UNL     1      -1.279  10.920  17.368  0.00  0.00    +0.000 C 
ATOM     31  C   UNL     1      -2.051   9.633  17.653  0.00  0.00    +0.000 C 
ATOM     32  C   UNL     1      -3.413  10.127  18.073  0.00  0.00    +0.000 C 
ATOM     33  C   UNL     1      -3.574  11.336  17.186  0.00  0.00    +0.000 C 
ATOM     34  O   UNL     1      -2.278  11.940  17.116  0.00  0.00    +0.000 OA
ENDBRANCH  29  30
ENDBRANCH  10  29
TORSDOF 5
ENDMDL
