MODEL 1
REMARK VINA RESULT:      -8.4      0.000      0.000
REMARK  Name = 
REMARK  8 active torsions:
REMARK  status: ('A' for Active; 'I' for Inactive)
REMARK    1  A    between atoms: C_1  and  C_2
REMARK    2  A    between atoms: C_2  and  O_3
REMARK    3  A    between atoms: O_3  and  C_4
REMARK    4  A    between atoms: C_7  and  N_8
REMARK    5  A    between atoms: C_9  and  C_11
REMARK    6  A    between atoms: C_11  and  S_12
REMARK    7  A    between atoms: S_12  and  C_13
REMARK    8  A    between atoms: N_20  and  C_21
REMARK                            x       y       z     vdW  Elec       q    Type
REMARK                         _______ _______ _______ _____ _____    ______ ____
ROOT
ATOM      1  C   UNL     1       6.176   5.067  17.649  0.00  0.00    +0.000 A 
ATOM      2  N   UNL     1       6.589   4.577  18.798  0.00  0.00    +0.000 NA
ATOM      3  N   UNL     1       7.552   5.392  19.390  0.00  0.00    +0.000 NA
ATOM      4  C   UNL     1       7.779   6.481  18.684  0.00  0.00    +0.000 A 
ATOM      5  N   UNL     1       8.628   7.498  19.085  0.00  0.00    +0.000 N 
ATOM      6  C   UNL     1       8.576   8.778  18.568  0.00  0.00    +0.000 C 
ATOM      7  O   UNL     1       7.780   9.140  17.709  0.00  0.00    +0.000 OA
ATOM      8  N   UNL     1       9.517   9.627  19.143  0.00  0.00    +0.000 N 
ATOM      9  S   UNL     1       6.968   6.503  17.180  0.00  0.00    +0.000 S 
ATOM     10  H   UNL     1       9.056   7.352  19.986  0.00  0.00    +0.000 HD
ATOM     11  H   UNL     1      10.319   9.198  19.584  0.00  0.00    +0.000 HD
ENDROOT
BRANCH   8  12
ATOM     12  C   UNL     1       9.603  11.021  18.879  0.00  0.00    +0.000 A 
ATOM     13  C   UNL     1       8.951  11.987  19.657  0.00  0.00    +0.000 A 
ATOM     14  C   UNL     1       9.016  13.345  19.333  0.00  0.00    +0.000 A 
ATOM     15  C   UNL     1       9.759  13.760  18.235  0.00  0.00    +0.000 A 
ATOM     16  C   UNL     1      10.446  12.817  17.472  0.00  0.00    +0.000 A 
ATOM     17  C   UNL     1      10.375  11.454  17.796  0.00  0.00    +0.000 A 
ENDBRANCH   8  12
BRANCH   1  18
ATOM     18  S   UNL     1       4.918   4.368  16.662  0.00  0.00    +0.000 S 
BRANCH  18  19
ATOM     19  C   UNL     1       3.737   3.785  17.901  0.00  0.00    +0.000 C 
BRANCH  19  21
ATOM     20  N   UNL     1       3.241   6.126  18.434  0.00  0.00    +0.000 N 
ATOM     21  C   UNL     1       2.700   4.879  18.131  0.00  0.00    +0.000 C 
ATOM     22  O   UNL     1       1.504   4.615  18.025  0.00  0.00    +0.000 OA
ATOM     23  H   UNL     1       4.249   6.198  18.475  0.00  0.00    +0.000 HD
BRANCH  20  27
ATOM     24  C   UNL     1       1.061   9.680  19.222  0.00  0.00    +0.000 A 
ATOM     25  C   UNL     1       1.605   9.465  17.960  0.00  0.00    +0.000 A 
ATOM     26  C   UNL     1       2.320   8.299  17.679  0.00  0.00    +0.000 A 
ATOM     27  C   UNL     1       2.523   7.328  18.659  0.00  0.00    +0.000 A 
ATOM     28  C   UNL     1       1.995   7.561  19.939  0.00  0.00    +0.000 A 
ATOM     29  C   UNL     1       1.272   8.734  20.221  0.00  0.00    +0.000 A 
BRANCH  24  30
ATOM     30  O   UNL     1       0.369  10.846  19.356  0.00  0.00    +0.000 OA
BRANCH  30  32
ATOM     31  C   UNL     1      -1.616  11.545  18.253  0.00  0.00    +0.000 C 
ATOM     32  C   UNL     1      -1.052  10.742  19.414  0.00  0.00    +0.000 C 
ENDBRANCH  30  32
ENDBRANCH  24  30
ENDBRANCH  20  27
ENDBRANCH  19  21
ENDBRANCH  18  19
ENDBRANCH   1  18
TORSDOF 7
ENDMDL
MODEL 2
REMARK VINA RESULT:      -8.2      0.776      1.214
REMARK  Name = 
REMARK  8 active torsions:
REMARK  status: ('A' for Active; 'I' for Inactive)
REMARK    1  A    between atoms: C_1  and  C_2
REMARK    2  A    between atoms: C_2  and  O_3
REMARK    3  A    between atoms: O_3  and  C_4
REMARK    4  A    between atoms: C_7  and  N_8
REMARK    5  A    between atoms: C_9  and  C_11
REMARK    6  A    between atoms: C_11  and  S_12
REMARK    7  A    between atoms: S_12  and  C_13
REMARK    8  A    between atoms: N_20  and  C_21
REMARK                            x       y       z     vdW  Elec       q    Type
REMARK                         _______ _______ _______ _____ _____    ______ ____
ROOT
ATOM      1  C   UNL     1       6.140   5.140  17.429  0.00  0.00    +0.000 A 
ATOM      2  N   UNL     1       6.602   4.556  18.514  0.00  0.00    +0.000 NA
ATOM      3  N   UNL     1       7.576   5.331  19.141  0.00  0.00    +0.000 NA
ATOM      4  C   UNL     1       7.763   6.482  18.527  0.00  0.00    +0.000 A 
ATOM      5  N   UNL     1       8.613   7.473  18.986  0.00  0.00    +0.000 N 
ATOM      6  C   UNL     1       8.526   8.793  18.588  0.00  0.00    +0.000 C 
ATOM      7  O   UNL     1       7.694   9.216  17.794  0.00  0.00    +0.000 OA
ATOM      8  N   UNL     1       9.477   9.602  19.201  0.00  0.00    +0.000 N 
ATOM      9  S   UNL     1       6.896   6.625  17.062  0.00  0.00    +0.000 S 
ATOM     10  H   UNL     1       9.077   7.254  19.854  0.00  0.00    +0.000 HD
ATOM     11  H   UNL     1      10.301   9.149  19.574  0.00  0.00    +0.000 HD
ENDROOT
BRANCH   8  12
ATOM     12  C   UNL     1       9.535  11.015  19.060  0.00  0.00    +0.000 A 
ATOM     13  C   UNL     1       9.932  11.649  17.876  0.00  0.00    +0.000 A 
ATOM     14  C   UNL     1      10.027  13.041  17.795  0.00  0.00    +0.000 A 
ATOM     15  C   UNL     1       9.700  13.823  18.895  0.00  0.00    +0.000 A 
ATOM     16  C   UNL     1       9.265  13.212  20.070  0.00  0.00    +0.000 A 
ATOM     17  C   UNL     1       9.175  11.815  20.151  0.00  0.00    +0.000 A 
ENDBRANCH   8  12
BRANCH   1  18
ATOM     18  S   UNL     1       4.855   4.511  16.429  0.00  0.00    +0.000 S 
BRANCH  18  19
ATOM     19  C   UNL     1       3.681   3.893  17.659  0.00  0.00    +0.000 C 
BRANCH  19  21
ATOM     20  N   UNL     1       3.178   6.191  18.347  0.00  0.00    +0.000 N 
ATOM     21  C   UNL     1       2.643   4.978  17.922  0.00  0.00    +0.000 C 
ATOM     22  O   UNL     1       1.452   4.737  17.740  0.00  0.00    +0.000 OA
ATOM     23  H   UNL     1       4.184   6.248  18.441  0.00  0.00    +0.000 HD
BRANCH  20  27
ATOM     24  C   UNL     1       0.999   9.703  19.307  0.00  0.00    +0.000 A 
ATOM     25  C   UNL     1       1.533   9.545  18.032  0.00  0.00    +0.000 A 
ATOM     26  C   UNL     1       2.248   8.393  17.694  0.00  0.00    +0.000 A 
ATOM     27  C   UNL     1       2.461   7.381  18.630  0.00  0.00    +0.000 A 
ATOM     28  C   UNL     1       1.943   7.557  19.923  0.00  0.00    +0.000 A 
ATOM     29  C   UNL     1       1.219   8.714  20.262  0.00  0.00    +0.000 A 
BRANCH  24  30
ATOM     30  O   UNL     1       0.306  10.861  19.497  0.00  0.00    +0.000 OA
BRANCH  30  32
ATOM     31  C   UNL     1       0.939  12.821  20.680  0.00  0.00    +0.000 C 
ATOM     32  C   UNL     1       0.352  11.425  20.806  0.00  0.00    +0.000 C 
ENDBRANCH  30  32
ENDBRANCH  24  30
ENDBRANCH  20  27
ENDBRANCH  19  21
ENDBRANCH  18  19
ENDBRANCH   1  18
TORSDOF 7
ENDMDL
MODEL 3
REMARK VINA RESULT:      -7.9      0.702      1.446
REMARK  Name = 
REMARK  8 active torsions:
REMARK  status: ('A' for Active; 'I' for Inactive)
REMARK    1  A    between atoms: C_1  and  C_2
REMARK    2  A    between atoms: C_2  and  O_3
REMARK    3  A    between atoms: O_3  and  C_4
REMARK    4  A    between atoms: C_7  and  N_8
REMARK    5  A    between atoms: C_9  and  C_11
REMARK    6  A    between atoms: C_11  and  S_12
REMARK    7  A    between atoms: S_12  and  C_13
REMARK    8  A    between atoms: N_20  and  C_21
REMARK                            x       y       z     vdW  Elec       q    Type
REMARK                         _______ _______ _______ _____ _____    ______ ____
ROOT
ATOM      1  C   UNL     1       6.231   5.006  17.616  0.00  0.00    +0.000 A 
ATOM      2  N   UNL     1       6.686   4.496  18.740  0.00  0.00    +0.000 NA
ATOM      3  N   UNL     1       7.634   5.325  19.336  0.00  0.00    +0.000 NA
ATOM      4  C   UNL     1       7.808   6.442  18.659  0.00  0.00    +0.000 A 
ATOM      5  N   UNL     1       8.632   7.475  19.073  0.00  0.00    +0.000 N 
ATOM      6  C   UNL     1       8.525   8.768  18.597  0.00  0.00    +0.000 C 
ATOM      7  O   UNL     1       7.699   9.127  17.767  0.00  0.00    +0.000 OA
ATOM      8  N   UNL     1       9.451   9.630  19.177  0.00  0.00    +0.000 N 
ATOM      9  S   UNL     1       6.963   6.482  17.175  0.00  0.00    +0.000 S 
ATOM     10  H   UNL     1       9.085   7.316  19.959  0.00  0.00    +0.000 HD
ATOM     11  H   UNL     1      10.277   9.216  19.587  0.00  0.00    +0.000 HD
ENDROOT
BRANCH   8  12
ATOM     12  C   UNL     1       9.484  11.034  18.954  0.00  0.00    +0.000 A 
ATOM     13  C   UNL     1       9.956  11.608  17.768  0.00  0.00    +0.000 A 
ATOM     14  C   UNL     1      10.022  12.995  17.609  0.00  0.00    +0.000 A 
ATOM     15  C   UNL     1       9.590  13.831  18.630  0.00  0.00    +0.000 A 
ATOM     16  C   UNL     1       9.080  13.277  19.804  0.00  0.00    +0.000 A 
ATOM     17  C   UNL     1       9.019  11.885  19.963  0.00  0.00    +0.000 A 
ENDBRANCH   8  12
BRANCH   1  18
ATOM     18  S   UNL     1       4.974   4.294  16.636  0.00  0.00    +0.000 S 
BRANCH  18  19
ATOM     19  C   UNL     1       3.795   3.719  17.881  0.00  0.00    +0.000 C 
BRANCH  19  21
ATOM     20  N   UNL     1       2.806   5.956  18.031  0.00  0.00    +0.000 N 
ATOM     21  C   UNL     1       3.385   4.907  18.741  0.00  0.00    +0.000 C 
ATOM     22  O   UNL     1       3.565   4.870  19.957  0.00  0.00    +0.000 OA
ATOM     23  H   UNL     1       2.709   5.842  17.030  0.00  0.00    +0.000 HD
BRANCH  20  27
ATOM     24  C   UNL     1       1.317   9.634  19.534  0.00  0.00    +0.000 A 
ATOM     25  C   UNL     1       1.415   8.530  20.374  0.00  0.00    +0.000 A 
ATOM     26  C   UNL     1       1.908   7.312  19.901  0.00  0.00    +0.000 A 
ATOM     27  C   UNL     1       2.299   7.166  18.569  0.00  0.00    +0.000 A 
ATOM     28  C   UNL     1       2.174   8.275  17.718  0.00  0.00    +0.000 A 
ATOM     29  C   UNL     1       1.681   9.502  18.197  0.00  0.00    +0.000 A 
BRANCH  24  30
ATOM     30  O   UNL     1       0.842  10.765  20.128  0.00  0.00    +0.000 OA
BRANCH  30  32
ATOM     31  C   UNL     1      -1.376  11.339  19.498  0.00  0.00    +0.000 C 
ATOM     32  C   UNL     1       0.097  11.656  19.300  0.00  0.00    +0.000 C 
ENDBRANCH  30  32
ENDBRANCH  24  30
ENDBRANCH  20  27
ENDBRANCH  19  21
ENDBRANCH  18  19
ENDBRANCH   1  18
TORSDOF 7
ENDMDL
MODEL 4
REMARK VINA RESULT:      -7.6      5.296      8.318
REMARK  Name = 
REMARK  8 active torsions:
REMARK  status: ('A' for Active; 'I' for Inactive)
REMARK    1  A    between atoms: C_1  and  C_2
REMARK    2  A    between atoms: C_2  and  O_3
REMARK    3  A    between atoms: O_3  and  C_4
REMARK    4  A    between atoms: C_7  and  N_8
REMARK    5  A    between atoms: C_9  and  C_11
REMARK    6  A    between atoms: C_11  and  S_12
REMARK    7  A    between atoms: S_12  and  C_13
REMARK    8  A    between atoms: N_20  and  C_21
REMARK                            x       y       z     vdW  Elec       q    Type
REMARK                         _______ _______ _______ _____ _____    ______ ____
ROOT
ATOM      1  C   UNL     1      -0.608  10.904  21.908  0.00  0.00    +0.000 A 
ATOM      2  N   UNL     1       0.001  10.751  23.064  0.00  0.00    +0.000 NA
ATOM      3  N   UNL     1       0.826   9.627  23.067  0.00  0.00    +0.000 NA
ATOM      4  C   UNL     1       0.838   9.021  21.898  0.00  0.00    +0.000 A 
ATOM      5  N   UNL     1       1.636   7.928  21.603  0.00  0.00    +0.000 N 
ATOM      6  C   UNL     1       1.944   7.539  20.314  0.00  0.00    +0.000 C 
ATOM      7  O   UNL     1       1.545   8.117  19.309  0.00  0.00    +0.000 OA
ATOM      8  N   UNL     1       2.777   6.425  20.275  0.00  0.00    +0.000 N 
ATOM      9  S   UNL     1      -0.276   9.671  20.778  0.00  0.00    +0.000 S 
ATOM     10  H   UNL     1       2.235   7.635  22.359  0.00  0.00    +0.000 HD
ATOM     11  H   UNL     1       2.796   5.832  21.093  0.00  0.00    +0.000 HD
ENDROOT
BRANCH   8  12
ATOM     12  C   UNL     1       3.339   5.889  19.084  0.00  0.00    +0.000 A 
ATOM     13  C   UNL     1       4.486   6.416  18.477  0.00  0.00    +0.000 A 
ATOM     14  C   UNL     1       4.977   5.894  17.278  0.00  0.00    +0.000 A 
ATOM     15  C   UNL     1       4.339   4.816  16.678  0.00  0.00    +0.000 A 
ATOM     16  C   UNL     1       3.218   4.254  17.288  0.00  0.00    +0.000 A 
ATOM     17  C   UNL     1       2.724   4.782  18.489  0.00  0.00    +0.000 A 
ENDBRANCH   8  12
BRANCH   1  18
ATOM     18  S   UNL     1      -1.654  12.241  21.503  0.00  0.00    +0.000 S 
BRANCH  18  19
ATOM     19  C   UNL     1      -0.641  13.180  20.335  0.00  0.00    +0.000 C 
BRANCH  19  21
ATOM     20  N   UNL     1      -2.059  11.832  18.859  0.00  0.00    +0.000 N 
ATOM     21  C   UNL     1      -1.031  12.770  18.920  0.00  0.00    +0.000 C 
ATOM     22  O   UNL     1      -0.456  13.277  17.959  0.00  0.00    +0.000 OA
ATOM     23  H   UNL     1      -2.449  11.511  19.736  0.00  0.00    +0.000 HD
BRANCH  20  27
ATOM     24  C   UNL     1      -3.718  10.172  15.324  0.00  0.00    +0.000 A 
ATOM     25  C   UNL     1      -4.428  11.129  16.040  0.00  0.00    +0.000 A 
ATOM     26  C   UNL     1      -3.897  11.693  17.203  0.00  0.00    +0.000 A 
ATOM     27  C   UNL     1      -2.649  11.298  17.686  0.00  0.00    +0.000 A 
ATOM     28  C   UNL     1      -1.947  10.312  16.974  0.00  0.00    +0.000 A 
ATOM     29  C   UNL     1      -2.481   9.748  15.801  0.00  0.00    +0.000 A 
BRANCH  24  30
ATOM     30  O   UNL     1      -4.340   9.722  14.198  0.00  0.00    +0.000 OA
BRANCH  30  32
ATOM     31  C   UNL     1      -4.664   9.672  11.845  0.00  0.00    +0.000 C 
ATOM     32  C   UNL     1      -3.672   9.961  12.961  0.00  0.00    +0.000 C 
ENDBRANCH  30  32
ENDBRANCH  24  30
ENDBRANCH  20  27
ENDBRANCH  19  21
ENDBRANCH  18  19
ENDBRANCH   1  18
TORSDOF 7
ENDMDL
MODEL 5
REMARK VINA RESULT:      -7.4      1.241      1.756
REMARK  Name = 
REMARK  8 active torsions:
REMARK  status: ('A' for Active; 'I' for Inactive)
REMARK    1  A    between atoms: C_1  and  C_2
REMARK    2  A    between atoms: C_2  and  O_3
REMARK    3  A    between atoms: O_3  and  C_4
REMARK    4  A    between atoms: C_7  and  N_8
REMARK    5  A    between atoms: C_9  and  C_11
REMARK    6  A    between atoms: C_11  and  S_12
REMARK    7  A    between atoms: S_12  and  C_13
REMARK    8  A    between atoms: N_20  and  C_21
REMARK                            x       y       z     vdW  Elec       q    Type
REMARK                         _______ _______ _______ _____ _____    ______ ____
ROOT
ATOM      1  C   UNL     1       6.373   4.581  17.861  0.00  0.00    +0.000 A 
ATOM      2  N   UNL     1       6.475   4.396  19.159  0.00  0.00    +0.000 NA
ATOM      3  N   UNL     1       7.271   5.370  19.758  0.00  0.00    +0.000 NA
ATOM      4  C   UNL     1       7.686   6.270  18.890  0.00  0.00    +0.000 A 
ATOM      5  N   UNL     1       8.424   7.391  19.232  0.00  0.00    +0.000 N 
ATOM      6  C   UNL     1       8.525   8.508  18.426  0.00  0.00    +0.000 C 
ATOM      7  O   UNL     1       7.977   8.620  17.335  0.00  0.00    +0.000 OA
ATOM      8  N   UNL     1       9.305   9.510  18.995  0.00  0.00    +0.000 N 
ATOM      9  S   UNL     1       7.281   5.899  17.272  0.00  0.00    +0.000 S 
ATOM     10  H   UNL     1       8.609   7.481  20.219  0.00  0.00    +0.000 HD
ATOM     11  H   UNL     1       9.963   9.235  19.711  0.00  0.00    +0.000 HD
ENDROOT
BRANCH   8  12
ATOM     12  C   UNL     1       9.477  10.805  18.433  0.00  0.00    +0.000 A 
ATOM     13  C   UNL     1       8.408  11.671  18.170  0.00  0.00    +0.000 A 
ATOM     14  C   UNL     1       8.614  12.915  17.567  0.00  0.00    +0.000 A 
ATOM     15  C   UNL     1       9.901  13.322  17.241  0.00  0.00    +0.000 A 
ATOM     16  C   UNL     1      10.981  12.490  17.531  0.00  0.00    +0.000 A 
ATOM     17  C   UNL     1      10.772  11.240  18.131  0.00  0.00    +0.000 A 
ENDBRANCH   8  12
BRANCH   1  18
ATOM     18  S   UNL     1       5.392   3.611  16.790  0.00  0.00    +0.000 S 
BRANCH  18  19
ATOM     19  C   UNL     1       4.226   4.827  16.132  0.00  0.00    +0.000 C 
BRANCH  19  21
ATOM     20  N   UNL     1       3.326   6.735  17.381  0.00  0.00    +0.000 N 
ATOM     21  C   UNL     1       3.372   5.347  17.282  0.00  0.00    +0.000 C 
ATOM     22  O   UNL     1       2.786   4.550  18.013  0.00  0.00    +0.000 OA
ATOM     23  H   UNL     1       3.850   7.267  16.698  0.00  0.00    +0.000 HD
BRANCH  20  27
ATOM     24  C   UNL     1       1.105   9.097  20.117  0.00  0.00    +0.000 A 
ATOM     25  C   UNL     1       1.686   7.907  20.541  0.00  0.00    +0.000 A 
ATOM     26  C   UNL     1       2.427   7.118  19.657  0.00  0.00    +0.000 A 
ATOM     27  C   UNL     1       2.588   7.494  18.323  0.00  0.00    +0.000 A 
ATOM     28  C   UNL     1       1.977   8.682  17.894  0.00  0.00    +0.000 A 
ATOM     29  C   UNL     1       1.235   9.478  18.785  0.00  0.00    +0.000 A 
BRANCH  24  30
ATOM     30  O   UNL     1       0.430   9.781  21.084  0.00  0.00    +0.000 OA
BRANCH  30  32
ATOM     31  C   UNL     1      -0.262   9.639  23.352  0.00  0.00    +0.000 C 
ATOM     32  C   UNL     1      -0.369   9.004  21.975  0.00  0.00    +0.000 C 
ENDBRANCH  30  32
ENDBRANCH  24  30
ENDBRANCH  20  27
ENDBRANCH  19  21
ENDBRANCH  18  19
ENDBRANCH   1  18
TORSDOF 7
ENDMDL
MODEL 6
REMARK VINA RESULT:      -7.4      5.510      8.821
REMARK  Name = 
REMARK  8 active torsions:
REMARK  status: ('A' for Active; 'I' for Inactive)
REMARK    1  A    between atoms: C_1  and  C_2
REMARK    2  A    between atoms: C_2  and  O_3
REMARK    3  A    between atoms: O_3  and  C_4
REMARK    4  A    between atoms: C_7  and  N_8
REMARK    5  A    between atoms: C_9  and  C_11
REMARK    6  A    between atoms: C_11  and  S_12
REMARK    7  A    between atoms: S_12  and  C_13
REMARK    8  A    between atoms: N_20  and  C_21
REMARK                            x       y       z     vdW  Elec       q    Type
REMARK                         _______ _______ _______ _____ _____    ______ ____
ROOT
ATOM      1  C   UNL     1      -0.220  10.830  21.747  0.00  0.00    +0.000 A 
ATOM      2  N   UNL     1      -0.586  11.389  22.880  0.00  0.00    +0.000 NA
ATOM      3  N   UNL     1      -0.405  12.771  22.855  0.00  0.00    +0.000 NA
ATOM      4  C   UNL     1       0.038  13.190  21.687  0.00  0.00    +0.000 A 
ATOM      5  N   UNL     1       0.225  14.523  21.366  0.00  0.00    +0.000 N 
ATOM      6  C   UNL     1       0.306  14.986  20.066  0.00  0.00    +0.000 C 
ATOM      7  O   UNL     1       0.222  14.270  19.076  0.00  0.00    +0.000 OA
ATOM      8  N   UNL     1       0.476  16.366  19.999  0.00  0.00    +0.000 N 
ATOM      9  S   UNL     1       0.423  11.924  20.607  0.00  0.00    +0.000 S 
ATOM     10  H   UNL     1      -0.026  15.167  22.100  0.00  0.00    +0.000 HD
ATOM     11  H   UNL     1       0.850  16.827  20.817  0.00  0.00    +0.000 HD
ENDROOT
BRANCH   8  12
ATOM     12  C   UNL     1       0.472  17.114  18.790  0.00  0.00    +0.000 A 
ATOM     13  C   UNL     1      -0.678  17.721  18.271  0.00  0.00    +0.000 A 
ATOM     14  C   UNL     1      -0.652  18.402  17.051  0.00  0.00    +0.000 A 
ATOM     15  C   UNL     1       0.538  18.508  16.342  0.00  0.00    +0.000 A 
ATOM     16  C   UNL     1       1.701  17.943  16.862  0.00  0.00    +0.000 A 
ATOM     17  C   UNL     1       1.672  17.255  18.084  0.00  0.00    +0.000 A 
ENDBRANCH   8  12
BRANCH   1  18
ATOM     18  S   UNL     1      -0.379   9.131  21.377  0.00  0.00    +0.000 S 
BRANCH  18  19
ATOM     19  C   UNL     1       1.317   8.536  21.576  0.00  0.00    +0.000 C 
BRANCH  19  21
ATOM     20  N   UNL     1       2.443   6.763  20.312  0.00  0.00    +0.000 N 
ATOM     21  C   UNL     1       1.799   7.995  20.235  0.00  0.00    +0.000 C 
ATOM     22  O   UNL     1       1.589   8.639  19.209  0.00  0.00    +0.000 OA
ATOM     23  H   UNL     1       2.534   6.342  21.228  0.00  0.00    +0.000 HD
BRANCH  20  27
ATOM     24  C   UNL     1       3.913   4.411  17.101  0.00  0.00    +0.000 A 
ATOM     25  C   UNL     1       4.526   5.620  17.413  0.00  0.00    +0.000 A 
ATOM     26  C   UNL     1       4.062   6.406  18.470  0.00  0.00    +0.000 A 
ATOM     27  C   UNL     1       2.961   6.009  19.229  0.00  0.00    +0.000 A 
ATOM     28  C   UNL     1       2.328   4.801  18.894  0.00  0.00    +0.000 A 
ATOM     29  C   UNL     1       2.799   4.008  17.831  0.00  0.00    +0.000 A 
BRANCH  24  30
ATOM     30  O   UNL     1       4.479   3.734  16.063  0.00  0.00    +0.000 OA
BRANCH  30  32
ATOM     31  C   UNL     1       6.095   4.133  14.368  0.00  0.00    +0.000 C 
ATOM     32  C   UNL     1       5.877   3.930  15.858  0.00  0.00    +0.000 C 
ENDBRANCH  30  32
ENDBRANCH  24  30
ENDBRANCH  20  27
ENDBRANCH  19  21
ENDBRANCH  18  19
ENDBRANCH   1  18
TORSDOF 7
ENDMDL
MODEL 7
REMARK VINA RESULT:      -7.2      6.378      9.233
REMARK  Name = 
REMARK  8 active torsions:
REMARK  status: ('A' for Active; 'I' for Inactive)
REMARK    1  A    between atoms: C_1  and  C_2
REMARK    2  A    between atoms: C_2  and  O_3
REMARK    3  A    between atoms: O_3  and  C_4
REMARK    4  A    between atoms: C_7  and  N_8
REMARK    5  A    between atoms: C_9  and  C_11
REMARK    6  A    between atoms: C_11  and  S_12
REMARK    7  A    between atoms: S_12  and  C_13
REMARK    8  A    between atoms: N_20  and  C_21
REMARK                            x       y       z     vdW  Elec       q    Type
REMARK                         _______ _______ _______ _____ _____    ______ ____
ROOT
ATOM      1  C   UNL     1      -0.548  11.273  22.172  0.00  0.00    +0.000 A 
ATOM      2  N   UNL     1       0.588  11.845  21.838  0.00  0.00    +0.000 NA
ATOM      3  N   UNL     1       1.574  10.902  21.550  0.00  0.00    +0.000 NA
ATOM      4  C   UNL     1       1.117   9.670  21.629  0.00  0.00    +0.000 A 
ATOM      5  N   UNL     1       1.863   8.547  21.313  0.00  0.00    +0.000 N 
ATOM      6  C   UNL     1       1.301   7.320  21.019  0.00  0.00    +0.000 C 
ATOM      7  O   UNL     1       0.095   7.102  21.010  0.00  0.00    +0.000 OA
ATOM      8  N   UNL     1       2.255   6.353  20.714  0.00  0.00    +0.000 N 
ATOM      9  S   UNL     1      -0.482   9.569  22.221  0.00  0.00    +0.000 S 
ATOM     10  H   UNL     1       2.798   8.746  20.991  0.00  0.00    +0.000 HD
ATOM     11  H   UNL     1       3.196   6.509  21.048  0.00  0.00    +0.000 HD
ENDROOT
BRANCH   8  12
ATOM     12  C   UNL     1       1.946   5.041  20.264  0.00  0.00    +0.000 A 
ATOM     13  C   UNL     1       1.796   4.713  18.910  0.00  0.00    +0.000 A 
ATOM     14  C   UNL     1       1.440   3.422  18.511  0.00  0.00    +0.000 A 
ATOM     15  C   UNL     1       1.252   2.429  19.464  0.00  0.00    +0.000 A 
ATOM     16  C   UNL     1       1.435   2.727  20.814  0.00  0.00    +0.000 A 
ATOM     17  C   UNL     1       1.788   4.024  21.213  0.00  0.00    +0.000 A 
ENDBRANCH   8  12
BRANCH   1  18
ATOM     18  S   UNL     1      -2.030  12.128  22.519  0.00  0.00    +0.000 S 
BRANCH  18  19
ATOM     19  C   UNL     1      -1.942  13.528  21.376  0.00  0.00    +0.000 C 
BRANCH  19  21
ATOM     20  N   UNL     1      -2.901  12.061  19.663  0.00  0.00    +0.000 N 
ATOM     21  C   UNL     1      -1.901  12.985  19.953  0.00  0.00    +0.000 C 
ATOM     22  O   UNL     1      -1.038  13.386  19.174  0.00  0.00    +0.000 OA
ATOM     23  H   UNL     1      -3.553  11.835  20.402  0.00  0.00    +0.000 HD
BRANCH  20  27
ATOM     24  C   UNL     1      -3.696  10.203  15.932  0.00  0.00    +0.000 A 
ATOM     25  C   UNL     1      -2.548   9.869  16.642  0.00  0.00    +0.000 A 
ATOM     26  C   UNL     1      -2.271  10.465  17.875  0.00  0.00    +0.000 A 
ATOM     27  C   UNL     1      -3.129  11.422  18.418  0.00  0.00    +0.000 A 
ATOM     28  C   UNL     1      -4.273  11.775  17.685  0.00  0.00    +0.000 A 
ATOM     29  C   UNL     1      -4.553  11.172  16.446  0.00  0.00    +0.000 A 
BRANCH  24  30
ATOM     30  O   UNL     1      -3.857   9.533  14.756  0.00  0.00    +0.000 OA
BRANCH  30  32
ATOM     31  C   UNL     1      -4.188   9.867  12.428  0.00  0.00    +0.000 C 
ATOM     32  C   UNL     1      -3.255  10.115  13.602  0.00  0.00    +0.000 C 
ENDBRANCH  30  32
ENDBRANCH  24  30
ENDBRANCH  20  27
ENDBRANCH  19  21
ENDBRANCH  18  19
ENDBRANCH   1  18
TORSDOF 7
ENDMDL
MODEL 8
REMARK VINA RESULT:      -7.1      1.769      2.049
REMARK  Name = 
REMARK  8 active torsions:
REMARK  status: ('A' for Active; 'I' for Inactive)
REMARK    1  A    between atoms: C_1  and  C_2
REMARK    2  A    between atoms: C_2  and  O_3
REMARK    3  A    between atoms: O_3  and  C_4
REMARK    4  A    between atoms: C_7  and  N_8
REMARK    5  A    between atoms: C_9  and  C_11
REMARK    6  A    between atoms: C_11  and  S_12
REMARK    7  A    between atoms: S_12  and  C_13
REMARK    8  A    between atoms: N_20  and  C_21
REMARK                            x       y       z     vdW  Elec       q    Type
REMARK                         _______ _______ _______ _____ _____    ______ ____
ROOT
ATOM      1  C   UNL     1       5.572   4.987  17.359  0.00  0.00    +0.000 A 
ATOM      2  N   UNL     1       5.205   5.449  16.184  0.00  0.00    +0.000 NA
ATOM      3  N   UNL     1       5.604   6.772  16.003  0.00  0.00    +0.000 NA
ATOM      4  C   UNL     1       6.297   7.224  17.029  0.00  0.00    +0.000 A 
ATOM      5  N   UNL     1       6.882   8.477  17.073  0.00  0.00    +0.000 N 
ATOM      6  C   UNL     1       7.906   8.807  17.941  0.00  0.00    +0.000 C 
ATOM      7  O   UNL     1       8.395   8.029  18.752  0.00  0.00    +0.000 OA
ATOM      8  N   UNL     1       8.340  10.120  17.783  0.00  0.00    +0.000 N 
ATOM      9  S   UNL     1       6.362   6.135  18.343  0.00  0.00    +0.000 S 
ATOM     10  H   UNL     1       6.754   9.027  16.237  0.00  0.00    +0.000 HD
ATOM     11  H   UNL     1       7.701  10.770  17.346  0.00  0.00    +0.000 HD
ENDROOT
BRANCH   8  12
ATOM     12  C   UNL     1       9.455  10.680  18.464  0.00  0.00    +0.000 A 
ATOM     13  C   UNL     1       9.493  10.852  19.854  0.00  0.00    +0.000 A 
ATOM     14  C   UNL     1      10.587  11.456  20.480  0.00  0.00    +0.000 A 
ATOM     15  C   UNL     1      11.674  11.875  19.724  0.00  0.00    +0.000 A 
ATOM     16  C   UNL     1      11.671  11.676  18.344  0.00  0.00    +0.000 A 
ATOM     17  C   UNL     1      10.570  11.075  17.717  0.00  0.00    +0.000 A 
ENDBRANCH   8  12
BRANCH   1  18
ATOM     18  S   UNL     1       5.322   3.349  17.908  0.00  0.00    +0.000 S 
BRANCH  18  19
ATOM     19  C   UNL     1       4.235   3.584  19.334  0.00  0.00    +0.000 C 
BRANCH  19  21
ATOM     20  N   UNL     1       3.310   5.808  19.784  0.00  0.00    +0.000 N 
ATOM     21  C   UNL     1       3.219   4.666  18.992  0.00  0.00    +0.000 C 
ATOM     22  O   UNL     1       2.425   4.486  18.071  0.00  0.00    +0.000 OA
ATOM     23  H   UNL     1       4.025   5.822  20.499  0.00  0.00    +0.000 HD
BRANCH  20  27
ATOM     24  C   UNL     1       1.016   9.349  19.337  0.00  0.00    +0.000 A 
ATOM     25  C   UNL     1       0.921   8.605  20.507  0.00  0.00    +0.000 A 
ATOM     26  C   UNL     1       1.672   7.440  20.677  0.00  0.00    +0.000 A 
ATOM     27  C   UNL     1       2.524   6.983  19.670  0.00  0.00    +0.000 A 
ATOM     28  C   UNL     1       2.596   7.723  18.480  0.00  0.00    +0.000 A 
ATOM     29  C   UNL     1       1.842   8.898  18.312  0.00  0.00    +0.000 A 
BRANCH  24  30
ATOM     30  O   UNL     1       0.247  10.474  19.310  0.00  0.00    +0.000 OA
BRANCH  30  32
ATOM     31  C   UNL     1       0.842  12.690  19.929  0.00  0.00    +0.000 C 
ATOM     32  C   UNL     1       0.865  11.659  18.812  0.00  0.00    +0.000 C 
ENDBRANCH  30  32
ENDBRANCH  24  30
ENDBRANCH  20  27
ENDBRANCH  19  21
ENDBRANCH  18  19
ENDBRANCH   1  18
TORSDOF 7
ENDMDL
MODEL 9
REMARK VINA RESULT:      -7.1      4.902      6.863
REMARK  Name = 
REMARK  8 active torsions:
REMARK  status: ('A' for Active; 'I' for Inactive)
REMARK    1  A    between atoms: C_1  and  C_2
REMARK    2  A    between atoms: C_2  and  O_3
REMARK    3  A    between atoms: O_3  and  C_4
REMARK    4  A    between atoms: C_7  and  N_8
REMARK    5  A    between atoms: C_9  and  C_11
REMARK    6  A    between atoms: C_11  and  S_12
REMARK    7  A    between atoms: S_12  and  C_13
REMARK    8  A    between atoms: N_20  and  C_21
REMARK                            x       y       z     vdW  Elec       q    Type
REMARK                         _______ _______ _______ _____ _____    ______ ____
ROOT
ATOM      1  C   UNL     1       2.338   6.624  19.836  0.00  0.00    +0.000 A 
ATOM      2  N   UNL     1       2.472   5.483  20.477  0.00  0.00    +0.000 NA
ATOM      3  N   UNL     1       3.030   4.498  19.664  0.00  0.00    +0.000 NA
ATOM      4  C   UNL     1       3.337   4.959  18.469  0.00  0.00    +0.000 A 
ATOM      5  N   UNL     1       3.979   4.213  17.496  0.00  0.00    +0.000 N 
ATOM      6  C   UNL     1       4.641   4.776  16.421  0.00  0.00    +0.000 C 
ATOM      7  O   UNL     1       4.725   5.982  16.222  0.00  0.00    +0.000 OA
ATOM      8  N   UNL     1       5.222   3.822  15.590  0.00  0.00    +0.000 N 
ATOM      9  S   UNL     1       2.816   6.563  18.199  0.00  0.00    +0.000 S 
ATOM     10  H   UNL     1       4.217   3.275  17.779  0.00  0.00    +0.000 HD
ATOM     11  H   UNL     1       4.850   2.883  15.632  0.00  0.00    +0.000 HD
ENDROOT
BRANCH   8  12
ATOM     12  C   UNL     1       6.057   4.131  14.482  0.00  0.00    +0.000 A 
ATOM     13  C   UNL     1       7.111   5.050  14.553  0.00  0.00    +0.000 A 
ATOM     14  C   UNL     1       7.875   5.366  13.426  0.00  0.00    +0.000 A 
ATOM     15  C   UNL     1       7.610   4.745  12.213  0.00  0.00    +0.000 A 
ATOM     16  C   UNL     1       6.590   3.798  12.133  0.00  0.00    +0.000 A 
ATOM     17  C   UNL     1       5.821   3.486  13.263  0.00  0.00    +0.000 A 
ENDBRANCH   8  12
BRANCH   1  18
ATOM     18  S   UNL     1       1.754   8.106  20.550  0.00  0.00    +0.000 S 
BRANCH  18  19
ATOM     19  C   UNL     1       1.495   9.154  19.100  0.00  0.00    +0.000 C 
BRANCH  19  21
ATOM     20  N   UNL     1      -0.456  10.016  17.890  0.00  0.00    +0.000 N 
ATOM     21  C   UNL     1       0.066   9.684  19.138  0.00  0.00    +0.000 C 
ATOM     22  O   UNL     1      -0.522   9.770  20.214  0.00  0.00    +0.000 OA
ATOM     23  H   UNL     1       0.142   9.879  17.085  0.00  0.00    +0.000 HD
BRANCH  20  27
ATOM     24  C   UNL     1      -4.357  11.401  16.960  0.00  0.00    +0.000 A 
ATOM     25  C   UNL     1      -3.757  11.771  18.159  0.00  0.00    +0.000 A 
ATOM     26  C   UNL     1      -2.471  11.331  18.481  0.00  0.00    +0.000 A 
ATOM     27  C   UNL     1      -1.762  10.495  17.618  0.00  0.00    +0.000 A 
ATOM     28  C   UNL     1      -2.382  10.102  16.421  0.00  0.00    +0.000 A 
ATOM     29  C   UNL     1      -3.675  10.549  16.096  0.00  0.00    +0.000 A 
BRANCH  24  30
ATOM     30  O   UNL     1      -5.602  11.917  16.761  0.00  0.00    +0.000 OA
BRANCH  30  32
ATOM     31  C   UNL     1      -6.729  13.989  17.053  0.00  0.00    +0.000 C 
ATOM     32  C   UNL     1      -6.094  12.804  17.764  0.00  0.00    +0.000 C 
ENDBRANCH  30  32
ENDBRANCH  24  30
ENDBRANCH  20  27
ENDBRANCH  19  21
ENDBRANCH  18  19
ENDBRANCH   1  18
TORSDOF 7
ENDMDL
