MODEL 1
REMARK VINA RESULT:      -8.7      0.000      0.000
REMARK  Name = 
REMARK  8 active torsions:
REMARK  status: ('A' for Active; 'I' for Inactive)
REMARK    1  A    between atoms: C_1  and  C_2
REMARK    2  A    between atoms: C_2  and  C_3
REMARK    3  A    between atoms: C_3  and  C_4
REMARK    4  A    between atoms: C_4  and  C_5
REMARK    5  A    between atoms: C_7  and  C_8
REMARK    6  A    between atoms: C_17  and  C_18
REMARK    7  A    between atoms: C_21  and  C_22
REMARK    8  A    between atoms: C_22  and  C_23
REMARK                            x       y       z     vdW  Elec       q    Type
REMARK                         _______ _______ _______ _____ _____    ______ ____
ROOT
ATOM      1  C   UNL     1       2.667   3.957  17.875  0.00  0.00    +0.000 A 
ATOM      2  C   UNL     1       3.833   4.127  17.128  0.00  0.00    +0.000 A 
ATOM      3  C   UNL     1       4.323   5.418  16.941  0.00  0.00    +0.000 A 
ATOM      4  N   UNL     1       3.757   6.528  17.483  0.00  0.00    +0.000 NA
ATOM      5  C   UNL     1       2.644   6.351  18.241  0.00  0.00    +0.000 A 
ATOM      6  C   UNL     1       2.085   5.089  18.451  0.00  0.00    +0.000 A 
ENDROOT
BRANCH   3   7
ATOM      7  C   UNL     1       5.536   5.642  16.092  0.00  0.00    +0.000 C 
ATOM      8  O   UNL     1       6.301   6.565  16.371  0.00  0.00    +0.000 OA
ATOM      9  N   UNL     1       5.658   4.785  15.028  0.00  0.00    +0.000 N 
ATOM     10  C   UNL     1       6.668   4.854  14.107  0.00  0.00    +0.000 A 
ATOM     11  N   UNL     1       7.824   5.572  14.259  0.00  0.00    +0.000 NA
ATOM     12  N   UNL     1       8.518   5.427  13.138  0.00  0.00    +0.000 NA
ATOM     13  N   UNL     1       7.739   4.661  12.368  0.00  0.00    +0.000 N 
ATOM     14  N   UNL     1       6.604   4.215  12.929  0.00  0.00    +0.000 NA
ATOM     15  H   UNL     1       4.911   4.131  14.833  0.00  0.00    +0.000 HD
ATOM     16  H   UNL     1       7.989   4.454  11.404  0.00  0.00    +0.000 HD
ENDBRANCH   3   7
BRANCH   5  17
ATOM     17  C   UNL     1       2.094   7.561  18.873  0.00  0.00    +0.000 A 
ATOM     18  C   UNL     1       1.813   8.732  18.146  0.00  0.00    +0.000 A 
ATOM     19  C   UNL     1       1.237   9.846  18.764  0.00  0.00    +0.000 A 
ATOM     20  C   UNL     1       0.941   9.830  20.131  0.00  0.00    +0.000 A 
ATOM     21  C   UNL     1       1.228   8.678  20.869  0.00  0.00    +0.000 A 
ATOM     22  C   UNL     1       1.799   7.566  20.247  0.00  0.00    +0.000 A 
BRANCH  20  23
ATOM     23  C   UNL     1       0.349  11.047  20.793  0.00  0.00    +0.000 C 
ATOM     24  C   UNL     1      -1.042  11.399  20.289  0.00  0.00    +0.000 C 
ENDBRANCH  20  23
ENDBRANCH   5  17
BRANCH   1  25
ATOM     25  C   UNL     1       2.019   2.602  18.034  0.00  0.00    +0.000 C 
BRANCH  25  26
ATOM     26  C   UNL     1       1.150   2.569  19.297  0.00  0.00    +0.000 C 
BRANCH  26  28
ATOM     27  C   UNL     1       1.680   3.192  21.657  0.00  0.00    +0.000 C 
ATOM     28  C   UNL     1       1.937   2.187  20.544  0.00  0.00    +0.000 C 
ENDBRANCH  26  28
ENDBRANCH  25  26
ENDBRANCH   1  25
TORSDOF 6
ENDMDL
MODEL 2
REMARK VINA RESULT:      -8.6      0.999      1.281
REMARK  Name = 
REMARK  8 active torsions:
REMARK  status: ('A' for Active; 'I' for Inactive)
REMARK    1  A    between atoms: C_1  and  C_2
REMARK    2  A    between atoms: C_2  and  C_3
REMARK    3  A    between atoms: C_3  and  C_4
REMARK    4  A    between atoms: C_4  and  C_5
REMARK    5  A    between atoms: C_7  and  C_8
REMARK    6  A    between atoms: C_17  and  C_18
REMARK    7  A    between atoms: C_21  and  C_22
REMARK    8  A    between atoms: C_22  and  C_23
REMARK                            x       y       z     vdW  Elec       q    Type
REMARK                         _______ _______ _______ _____ _____    ______ ____
ROOT
ATOM      1  C   UNL     1       3.953   4.185  19.096  0.00  0.00    +0.000 A 
ATOM      2  C   UNL     1       4.916   4.351  18.101  0.00  0.00    +0.000 A 
ATOM      3  C   UNL     1       4.936   5.547  17.385  0.00  0.00    +0.000 A 
ATOM      4  N   UNL     1       4.099   6.589  17.629  0.00  0.00    +0.000 NA
ATOM      5  C   UNL     1       3.189   6.435  18.625  0.00  0.00    +0.000 A 
ATOM      6  C   UNL     1       3.097   5.256  19.367  0.00  0.00    +0.000 A 
ENDROOT
BRANCH   3   7
ATOM      7  C   UNL     1       5.916   5.733  16.267  0.00  0.00    +0.000 C 
ATOM      8  O   UNL     1       6.635   6.732  16.261  0.00  0.00    +0.000 OA
ATOM      9  N   UNL     1       5.886   4.751  15.309  0.00  0.00    +0.000 N 
ATOM     10  C   UNL     1       6.668   4.762  14.185  0.00  0.00    +0.000 A 
ATOM     11  N   UNL     1       7.758   5.567  13.992  0.00  0.00    +0.000 NA
ATOM     12  N   UNL     1       8.209   5.318  12.770  0.00  0.00    +0.000 NA
ATOM     13  N   UNL     1       7.358   4.408  12.286  0.00  0.00    +0.000 N 
ATOM     14  N   UNL     1       6.414   3.968  13.134  0.00  0.00    +0.000 NA
ATOM     15  H   UNL     1       5.178   4.031  15.363  0.00  0.00    +0.000 HD
ATOM     16  H   UNL     1       7.415   4.091  11.322  0.00  0.00    +0.000 HD
ENDBRANCH   3   7
BRANCH   5  17
ATOM     17  C   UNL     1       2.343   7.604  18.913  0.00  0.00    +0.000 A 
ATOM     18  C   UNL     1       1.991   8.544  17.928  0.00  0.00    +0.000 A 
ATOM     19  C   UNL     1       1.139   9.613  18.219  0.00  0.00    +0.000 A 
ATOM     20  C   UNL     1       0.627   9.785  19.509  0.00  0.00    +0.000 A 
ATOM     21  C   UNL     1       0.979   8.868  20.503  0.00  0.00    +0.000 A 
ATOM     22  C   UNL     1       1.828   7.799  20.206  0.00  0.00    +0.000 A 
BRANCH  20  23
ATOM     23  C   UNL     1      -0.266  10.959  19.820  0.00  0.00    +0.000 C 
ATOM     24  C   UNL     1      -1.204  11.330  18.681  0.00  0.00    +0.000 C 
ENDBRANCH  20  23
ENDBRANCH   5  17
BRANCH   1  25
ATOM     25  C   UNL     1       3.801   2.881  19.842  0.00  0.00    +0.000 C 
BRANCH  25  26
ATOM     26  C   UNL     1       3.238   1.797  18.916  0.00  0.00    +0.000 C 
BRANCH  26  28
ATOM     27  C   UNL     1       0.790   2.283  18.796  0.00  0.00    +0.000 C 
ATOM     28  C   UNL     1       2.106   2.306  18.031  0.00  0.00    +0.000 C 
ENDBRANCH  26  28
ENDBRANCH  25  26
ENDBRANCH   1  25
TORSDOF 6
ENDMDL
MODEL 3
REMARK VINA RESULT:      -8.6      0.583      1.105
REMARK  Name = 
REMARK  8 active torsions:
REMARK  status: ('A' for Active; 'I' for Inactive)
REMARK    1  A    between atoms: C_1  and  C_2
REMARK    2  A    between atoms: C_2  and  C_3
REMARK    3  A    between atoms: C_3  and  C_4
REMARK    4  A    between atoms: C_4  and  C_5
REMARK    5  A    between atoms: C_7  and  C_8
REMARK    6  A    between atoms: C_17  and  C_18
REMARK    7  A    between atoms: C_21  and  C_22
REMARK    8  A    between atoms: C_22  and  C_23
REMARK                            x       y       z     vdW  Elec       q    Type
REMARK                         _______ _______ _______ _____ _____    ______ ____
ROOT
ATOM      1  C   UNL     1       2.703   4.274  18.324  0.00  0.00    +0.000 A 
ATOM      2  C   UNL     1       3.835   4.393  17.518  0.00  0.00    +0.000 A 
ATOM      3  C   UNL     1       4.262   5.667  17.150  0.00  0.00    +0.000 A 
ATOM      4  N   UNL     1       3.667   6.815  17.568  0.00  0.00    +0.000 NA
ATOM      5  C   UNL     1       2.588   6.693  18.384  0.00  0.00    +0.000 A 
ATOM      6  C   UNL     1       2.091   5.447  18.774  0.00  0.00    +0.000 A 
ENDROOT
BRANCH   3   7
ATOM      7  C   UNL     1       5.436   5.827  16.233  0.00  0.00    +0.000 C 
ATOM      8  O   UNL     1       6.181   6.796  16.378  0.00  0.00    +0.000 OA
ATOM      9  N   UNL     1       5.545   4.859  15.267  0.00  0.00    +0.000 N 
ATOM     10  C   UNL     1       6.519   4.852  14.305  0.00  0.00    +0.000 A 
ATOM     11  N   UNL     1       7.656   5.614  14.330  0.00  0.00    +0.000 NA
ATOM     12  N   UNL     1       8.313   5.362  13.206  0.00  0.00    +0.000 NA
ATOM     13  N   UNL     1       7.531   4.494  12.556  0.00  0.00    +0.000 N 
ATOM     14  N   UNL     1       6.432   4.083  13.209  0.00  0.00    +0.000 NA
ATOM     15  H   UNL     1       4.812   4.167  15.176  0.00  0.00    +0.000 HD
ATOM     16  H   UNL     1       7.751   4.187  11.613  0.00  0.00    +0.000 HD
ENDBRANCH   3   7
BRANCH   5  17
ATOM     17  C   UNL     1       2.007   7.952  18.877  0.00  0.00    +0.000 A 
ATOM     18  C   UNL     1       1.548   8.107  20.198  0.00  0.00    +0.000 A 
ATOM     19  C   UNL     1       1.054   9.332  20.653  0.00  0.00    +0.000 A 
ATOM     20  C   UNL     1       0.986  10.436  19.796  0.00  0.00    +0.000 A 
ATOM     21  C   UNL     1       1.424  10.293  18.477  0.00  0.00    +0.000 A 
ATOM     22  C   UNL     1       1.921   9.068  18.028  0.00  0.00    +0.000 A 
BRANCH  20  23
ATOM     23  C   UNL     1       0.422  11.744  20.288  0.00  0.00    +0.000 C 
ATOM     24  C   UNL     1      -0.301  11.633  21.622  0.00  0.00    +0.000 C 
ENDBRANCH  20  23
ENDBRANCH   5  17
BRANCH   1  25
ATOM     25  C   UNL     1       2.119   2.927  18.679  0.00  0.00    +0.000 C 
BRANCH  25  26
ATOM     26  C   UNL     1       0.980   3.087  19.692  0.00  0.00    +0.000 C 
BRANCH  26  28
ATOM     27  C   UNL     1       2.242   3.509  21.806  0.00  0.00    +0.000 C 
ATOM     28  C   UNL     1       1.333   2.537  21.068  0.00  0.00    +0.000 C 
ENDBRANCH  26  28
ENDBRANCH  25  26
ENDBRANCH   1  25
TORSDOF 6
ENDMDL
MODEL 4
REMARK VINA RESULT:      -8.6      0.999      1.571
REMARK  Name = 
REMARK  8 active torsions:
REMARK  status: ('A' for Active; 'I' for Inactive)
REMARK    1  A    between atoms: C_1  and  C_2
REMARK    2  A    between atoms: C_2  and  C_3
REMARK    3  A    between atoms: C_3  and  C_4
REMARK    4  A    between atoms: C_4  and  C_5
REMARK    5  A    between atoms: C_7  and  C_8
REMARK    6  A    between atoms: C_17  and  C_18
REMARK    7  A    between atoms: C_21  and  C_22
REMARK    8  A    between atoms: C_22  and  C_23
REMARK                            x       y       z     vdW  Elec       q    Type
REMARK                         _______ _______ _______ _____ _____    ______ ____
ROOT
ATOM      1  C   UNL     1       3.968   4.130  19.080  0.00  0.00    +0.000 A 
ATOM      2  C   UNL     1       4.916   4.306  18.072  0.00  0.00    +0.000 A 
ATOM      3  C   UNL     1       4.916   5.504  17.359  0.00  0.00    +0.000 A 
ATOM      4  N   UNL     1       4.074   6.538  17.617  0.00  0.00    +0.000 NA
ATOM      5  C   UNL     1       3.180   6.374  18.626  0.00  0.00    +0.000 A 
ATOM      6  C   UNL     1       3.107   5.192  19.366  0.00  0.00    +0.000 A 
ENDROOT
BRANCH   3   7
ATOM      7  C   UNL     1       5.879   5.700  16.228  0.00  0.00    +0.000 C 
ATOM      8  O   UNL     1       6.576   6.714  16.204  0.00  0.00    +0.000 OA
ATOM      9  N   UNL     1       5.860   4.709  15.280  0.00  0.00    +0.000 N 
ATOM     10  C   UNL     1       6.628   4.726  14.147  0.00  0.00    +0.000 A 
ATOM     11  N   UNL     1       7.698   5.552  13.933  0.00  0.00    +0.000 NA
ATOM     12  N   UNL     1       8.140   5.301  12.709  0.00  0.00    +0.000 NA
ATOM     13  N   UNL     1       7.304   4.369  12.243  0.00  0.00    +0.000 N 
ATOM     14  N   UNL     1       6.379   3.917  13.105  0.00  0.00    +0.000 NA
ATOM     15  H   UNL     1       5.168   3.974  15.348  0.00  0.00    +0.000 HD
ATOM     16  H   UNL     1       7.356   4.044  11.281  0.00  0.00    +0.000 HD
ENDBRANCH   3   7
BRANCH   5  17
ATOM     17  C   UNL     1       2.329   7.536  18.928  0.00  0.00    +0.000 A 
ATOM     18  C   UNL     1       1.830   7.793  20.218  0.00  0.00    +0.000 A 
ATOM     19  C   UNL     1       1.071   8.936  20.487  0.00  0.00    +0.000 A 
ATOM     20  C   UNL     1       0.772   9.848  19.469  0.00  0.00    +0.000 A 
ATOM     21  C   UNL     1       1.249   9.599  18.179  0.00  0.00    +0.000 A 
ATOM     22  C   UNL     1       2.009   8.458  17.916  0.00  0.00    +0.000 A 
BRANCH  20  23
ATOM     23  C   UNL     1      -0.072  11.060  19.762  0.00  0.00    +0.000 C 
ATOM     24  C   UNL     1      -0.361  11.259  21.243  0.00  0.00    +0.000 C 
ENDBRANCH  20  23
ENDBRANCH   5  17
BRANCH   1  25
ATOM     25  C   UNL     1       3.837   2.822  19.825  0.00  0.00    +0.000 C 
BRANCH  25  26
ATOM     26  C   UNL     1       3.286   1.732  18.899  0.00  0.00    +0.000 C 
BRANCH  26  28
ATOM     27  C   UNL     1       0.846   2.258  18.815  0.00  0.00    +0.000 C 
ATOM     28  C   UNL     1       2.143   2.225  18.020  0.00  0.00    +0.000 C 
ENDBRANCH  26  28
ENDBRANCH  25  26
ENDBRANCH   1  25
TORSDOF 6
ENDMDL
MODEL 5
REMARK VINA RESULT:      -8.3      1.251      2.050
REMARK  Name = 
REMARK  8 active torsions:
REMARK  status: ('A' for Active; 'I' for Inactive)
REMARK    1  A    between atoms: C_1  and  C_2
REMARK    2  A    between atoms: C_2  and  C_3
REMARK    3  A    between atoms: C_3  and  C_4
REMARK    4  A    between atoms: C_4  and  C_5
REMARK    5  A    between atoms: C_7  and  C_8
REMARK    6  A    between atoms: C_17  and  C_18
REMARK    7  A    between atoms: C_21  and  C_22
REMARK    8  A    between atoms: C_22  and  C_23
REMARK                            x       y       z     vdW  Elec       q    Type
REMARK                         _______ _______ _______ _____ _____    ______ ____
ROOT
ATOM      1  C   UNL     1       2.814   4.942  20.210  0.00  0.00    +0.000 A 
ATOM      2  C   UNL     1       3.873   4.952  19.303  0.00  0.00    +0.000 A 
ATOM      3  C   UNL     1       4.050   6.074  18.495  0.00  0.00    +0.000 A 
ATOM      4  N   UNL     1       3.276   7.188  18.568  0.00  0.00    +0.000 NA
ATOM      5  C   UNL     1       2.271   7.187  19.481  0.00  0.00    +0.000 A 
ATOM      6  C   UNL     1       2.021   6.089  20.306  0.00  0.00    +0.000 A 
ENDROOT
BRANCH   3   7
ATOM      7  C   UNL     1       5.138   6.090  17.466  0.00  0.00    +0.000 C 
ATOM      8  O   UNL     1       5.976   6.992  17.494  0.00  0.00    +0.000 OA
ATOM      9  N   UNL     1       5.069   5.080  16.541  0.00  0.00    +0.000 N 
ATOM     10  C   UNL     1       5.940   4.947  15.493  0.00  0.00    +0.000 A 
ATOM     11  N   UNL     1       7.136   5.603  15.375  0.00  0.00    +0.000 NA
ATOM     12  N   UNL     1       7.655   5.249  14.208  0.00  0.00    +0.000 NA
ATOM     13  N   UNL     1       6.742   4.431  13.676  0.00  0.00    +0.000 N 
ATOM     14  N   UNL     1       5.680   4.147  14.448  0.00  0.00    +0.000 NA
ATOM     15  H   UNL     1       4.273   4.454  16.551  0.00  0.00    +0.000 HD
ATOM     16  H   UNL     1       6.842   4.068  12.732  0.00  0.00    +0.000 HD
ENDBRANCH   3   7
BRANCH   5  17
ATOM     17  C   UNL     1       1.494   8.432  19.587  0.00  0.00    +0.000 A 
ATOM     18  C   UNL     1       0.900   8.853  20.790  0.00  0.00    +0.000 A 
ATOM     19  C   UNL     1       0.216  10.070  20.873  0.00  0.00    +0.000 A 
ATOM     20  C   UNL     1       0.091  10.895  19.751  0.00  0.00    +0.000 A 
ATOM     21  C   UNL     1       0.664  10.484  18.545  0.00  0.00    +0.000 A 
ATOM     22  C   UNL     1       1.349   9.269  18.467  0.00  0.00    +0.000 A 
BRANCH  20  23
ATOM     23  C   UNL     1      -0.674  12.190  19.843  0.00  0.00    +0.000 C 
ATOM     24  C   UNL     1      -0.673  12.992  18.551  0.00  0.00    +0.000 C 
ENDBRANCH  20  23
ENDBRANCH   5  17
BRANCH   1  25
ATOM     25  C   UNL     1       2.496   3.724  21.044  0.00  0.00    +0.000 C 
BRANCH  25  26
ATOM     26  C   UNL     1       1.052   3.269  20.798  0.00  0.00    +0.000 C 
BRANCH  26  28
ATOM     27  C   UNL     1       1.751   1.803  18.899  0.00  0.00    +0.000 C 
ATOM     28  C   UNL     1       0.791   2.898  19.343  0.00  0.00    +0.000 C 
ENDBRANCH  26  28
ENDBRANCH  25  26
ENDBRANCH   1  25
TORSDOF 6
ENDMDL
MODEL 6
REMARK VINA RESULT:      -8.3      1.789      2.773
REMARK  Name = 
REMARK  8 active torsions:
REMARK  status: ('A' for Active; 'I' for Inactive)
REMARK    1  A    between atoms: C_1  and  C_2
REMARK    2  A    between atoms: C_2  and  C_3
REMARK    3  A    between atoms: C_3  and  C_4
REMARK    4  A    between atoms: C_4  and  C_5
REMARK    5  A    between atoms: C_7  and  C_8
REMARK    6  A    between atoms: C_17  and  C_18
REMARK    7  A    between atoms: C_21  and  C_22
REMARK    8  A    between atoms: C_22  and  C_23
REMARK                            x       y       z     vdW  Elec       q    Type
REMARK                         _______ _______ _______ _____ _____    ______ ____
ROOT
ATOM      1  C   UNL     1       1.780   4.940  20.509  0.00  0.00    +0.000 A 
ATOM      2  C   UNL     1       2.800   5.023  19.562  0.00  0.00    +0.000 A 
ATOM      3  C   UNL     1       3.131   6.275  19.046  0.00  0.00    +0.000 A 
ATOM      4  N   UNL     1       2.549   7.435  19.444  0.00  0.00    +0.000 NA
ATOM      5  C   UNL     1       1.582   7.351  20.394  0.00  0.00    +0.000 A 
ATOM      6  C   UNL     1       1.183   6.128  20.938  0.00  0.00    +0.000 A 
ENDROOT
BRANCH   3   7
ATOM      7  C   UNL     1       4.179   6.392  17.982  0.00  0.00    +0.000 C 
ATOM      8  O   UNL     1       4.066   7.267  17.123  0.00  0.00    +0.000 OA
ATOM      9  N   UNL     1       5.178   5.454  18.055  0.00  0.00    +0.000 N 
ATOM     10  C   UNL     1       6.200   5.361  17.149  0.00  0.00    +0.000 A 
ATOM     11  N   UNL     1       6.535   6.325  16.237  0.00  0.00    +0.000 NA
ATOM     12  N   UNL     1       7.536   5.841  15.515  0.00  0.00    +0.000 NA
ATOM     13  N   UNL     1       7.732   4.614  16.007  0.00  0.00    +0.000 N 
ATOM     14  N   UNL     1       6.981   4.272  17.066  0.00  0.00    +0.000 NA
ATOM     15  H   UNL     1       5.112   4.714  18.742  0.00  0.00    +0.000 HD
ATOM     16  H   UNL     1       8.396   3.973  15.580  0.00  0.00    +0.000 HD
ENDBRANCH   3   7
BRANCH   5  17
ATOM     17  C   UNL     1       1.018   8.629  20.856  0.00  0.00    +0.000 A 
ATOM     18  C   UNL     1       0.840   9.731  20.000  0.00  0.00    +0.000 A 
ATOM     19  C   UNL     1       0.248  10.913  20.455  0.00  0.00    +0.000 A 
ATOM     20  C   UNL     1      -0.167  11.036  21.784  0.00  0.00    +0.000 A 
ATOM     21  C   UNL     1       0.016   9.955  22.651  0.00  0.00    +0.000 A 
ATOM     22  C   UNL     1       0.604   8.775  22.192  0.00  0.00    +0.000 A 
BRANCH  20  23
ATOM     23  C   UNL     1      -0.775  12.326  22.273  0.00  0.00    +0.000 C 
ATOM     24  C   UNL     1      -2.059  12.132  23.066  0.00  0.00    +0.000 C 
ENDBRANCH  20  23
ENDBRANCH   5  17
BRANCH   1  25
ATOM     25  C   UNL     1       1.294   3.610  21.036  0.00  0.00    +0.000 C 
BRANCH  25  26
ATOM     26  C   UNL     1       1.941   2.458  20.260  0.00  0.00    +0.000 C 
BRANCH  26  28
ATOM     27  C   UNL     1       2.291   2.131  17.808  0.00  0.00    +0.000 C 
ATOM     28  C   UNL     1       1.259   2.189  18.924  0.00  0.00    +0.000 C 
ENDBRANCH  26  28
ENDBRANCH  25  26
ENDBRANCH   1  25
TORSDOF 6
ENDMDL
MODEL 7
REMARK VINA RESULT:      -8.3      1.252      1.834
REMARK  Name = 
REMARK  8 active torsions:
REMARK  status: ('A' for Active; 'I' for Inactive)
REMARK    1  A    between atoms: C_1  and  C_2
REMARK    2  A    between atoms: C_2  and  C_3
REMARK    3  A    between atoms: C_3  and  C_4
REMARK    4  A    between atoms: C_4  and  C_5
REMARK    5  A    between atoms: C_7  and  C_8
REMARK    6  A    between atoms: C_17  and  C_18
REMARK    7  A    between atoms: C_21  and  C_22
REMARK    8  A    between atoms: C_22  and  C_23
REMARK                            x       y       z     vdW  Elec       q    Type
REMARK                         _______ _______ _______ _____ _____    ______ ____
ROOT
ATOM      1  C   UNL     1       2.748   5.188  20.102  0.00  0.00    +0.000 A 
ATOM      2  C   UNL     1       3.818   5.155  19.209  0.00  0.00    +0.000 A 
ATOM      3  C   UNL     1       4.025   6.253  18.375  0.00  0.00    +0.000 A 
ATOM      4  N   UNL     1       3.270   7.382  18.409  0.00  0.00    +0.000 NA
ATOM      5  C   UNL     1       2.253   7.421  19.308  0.00  0.00    +0.000 A 
ATOM      6  C   UNL     1       1.974   6.349  20.158  0.00  0.00    +0.000 A 
ENDROOT
BRANCH   3   7
ATOM      7  C   UNL     1       5.127   6.224  17.360  0.00  0.00    +0.000 C 
ATOM      8  O   UNL     1       5.970   7.121  17.366  0.00  0.00    +0.000 OA
ATOM      9  N   UNL     1       5.062   5.181  16.472  0.00  0.00    +0.000 N 
ATOM     10  C   UNL     1       5.945   5.004  15.441  0.00  0.00    +0.000 A 
ATOM     11  N   UNL     1       7.147   5.646  15.315  0.00  0.00    +0.000 NA
ATOM     12  N   UNL     1       7.679   5.246  14.169  0.00  0.00    +0.000 NA
ATOM     13  N   UNL     1       6.767   4.415  13.656  0.00  0.00    +0.000 N 
ATOM     14  N   UNL     1       5.693   4.167  14.423  0.00  0.00    +0.000 NA
ATOM     15  H   UNL     1       4.262   4.561  16.495  0.00  0.00    +0.000 HD
ATOM     16  H   UNL     1       6.876   4.017  12.726  0.00  0.00    +0.000 HD
ENDBRANCH   3   7
BRANCH   5  17
ATOM     17  C   UNL     1       1.497   8.682  19.371  0.00  0.00    +0.000 A 
ATOM     18  C   UNL     1       1.332   9.522  18.254  0.00  0.00    +0.000 A 
ATOM     19  C   UNL     1       0.559  10.685  18.331  0.00  0.00    +0.000 A 
ATOM     20  C   UNL     1      -0.057  11.053  19.531  0.00  0.00    +0.000 A 
ATOM     21  C   UNL     1       0.110  10.237  20.653  0.00  0.00    +0.000 A 
ATOM     22  C   UNL     1       0.879   9.074  20.571  0.00  0.00    +0.000 A 
BRANCH  20  23
ATOM     23  C   UNL     1      -0.861  12.325  19.612  0.00  0.00    +0.000 C 
ATOM     24  C   UNL     1      -2.329  12.098  19.943  0.00  0.00    +0.000 C 
ENDBRANCH  20  23
ENDBRANCH   5  17
BRANCH   1  25
ATOM     25  C   UNL     1       2.397   3.997  20.963  0.00  0.00    +0.000 C 
BRANCH  25  26
ATOM     26  C   UNL     1       0.990   3.490  20.628  0.00  0.00    +0.000 C 
BRANCH  26  28
ATOM     27  C   UNL     1       1.874   1.809  19.005  0.00  0.00    +0.000 C 
ATOM     28  C   UNL     1       0.881   2.944  19.210  0.00  0.00    +0.000 C 
ENDBRANCH  26  28
ENDBRANCH  25  26
ENDBRANCH   1  25
TORSDOF 6
ENDMDL
MODEL 8
REMARK VINA RESULT:      -8.3      3.325      7.744
REMARK  Name = 
REMARK  8 active torsions:
REMARK  status: ('A' for Active; 'I' for Inactive)
REMARK    1  A    between atoms: C_1  and  C_2
REMARK    2  A    between atoms: C_2  and  C_3
REMARK    3  A    between atoms: C_3  and  C_4
REMARK    4  A    between atoms: C_4  and  C_5
REMARK    5  A    between atoms: C_7  and  C_8
REMARK    6  A    between atoms: C_17  and  C_18
REMARK    7  A    between atoms: C_21  and  C_22
REMARK    8  A    between atoms: C_22  and  C_23
REMARK                            x       y       z     vdW  Elec       q    Type
REMARK                         _______ _______ _______ _____ _____    ______ ____
ROOT
ATOM      1  C   UNL     1       2.517   5.167  20.331  0.00  0.00    +0.000 A 
ATOM      2  C   UNL     1       1.937   6.434  20.304  0.00  0.00    +0.000 A 
ATOM      3  C   UNL     1       2.275   7.301  19.266  0.00  0.00    +0.000 A 
ATOM      4  N   UNL     1       3.107   6.970  18.245  0.00  0.00    +0.000 NA
ATOM      5  C   UNL     1       3.639   5.721  18.257  0.00  0.00    +0.000 A 
ATOM      6  C   UNL     1       3.363   4.808  19.277  0.00  0.00    +0.000 A 
ENDROOT
BRANCH   3   7
ATOM      7  C   UNL     1       1.718   8.691  19.242  0.00  0.00    +0.000 C 
ATOM      8  O   UNL     1       1.801   9.352  18.207  0.00  0.00    +0.000 OA
ATOM      9  N   UNL     1       1.183   9.116  20.432  0.00  0.00    +0.000 N 
ATOM     10  C   UNL     1       0.668  10.369  20.630  0.00  0.00    +0.000 A 
ATOM     11  N   UNL     1       0.354  11.257  19.637  0.00  0.00    +0.000 NA
ATOM     12  N   UNL     1      -0.065  12.366  20.231  0.00  0.00    +0.000 NA
ATOM     13  N   UNL     1       0.044  12.101  21.536  0.00  0.00    +0.000 N 
ATOM     14  N   UNL     1       0.432  10.856  21.858  0.00  0.00    +0.000 NA
ATOM     15  H   UNL     1       1.265   8.525  21.249  0.00  0.00    +0.000 HD
ATOM     16  H   UNL     1      -0.134  12.815  22.238  0.00  0.00    +0.000 HD
ENDBRANCH   3   7
BRANCH   5  17
ATOM     17  C   UNL     1       4.480   5.366  17.103  0.00  0.00    +0.000 A 
ATOM     18  C   UNL     1       4.876   4.044  16.833  0.00  0.00    +0.000 A 
ATOM     19  C   UNL     1       5.628   3.731  15.697  0.00  0.00    +0.000 A 
ATOM     20  C   UNL     1       6.022   4.733  14.805  0.00  0.00    +0.000 A 
ATOM     21  C   UNL     1       5.648   6.054  15.067  0.00  0.00    +0.000 A 
ATOM     22  C   UNL     1       4.894   6.362  16.201  0.00  0.00    +0.000 A 
BRANCH  20  23
ATOM     23  C   UNL     1       6.858   4.390  13.599  0.00  0.00    +0.000 C 
ATOM     24  C   UNL     1       6.146   3.490  12.600  0.00  0.00    +0.000 C 
ENDBRANCH  20  23
ENDBRANCH   5  17
BRANCH   1  25
ATOM     25  C   UNL     1       2.282   4.211  21.477  0.00  0.00    +0.000 C 
BRANCH  25  26
ATOM     26  C   UNL     1       1.839   2.841  20.949  0.00  0.00    +0.000 C 
BRANCH  26  28
ATOM     27  C   UNL     1       0.873   2.277  18.715  0.00  0.00    +0.000 C 
ATOM     28  C   UNL     1       0.600   2.921  20.066  0.00  0.00    +0.000 C 
ENDBRANCH  26  28
ENDBRANCH  25  26
ENDBRANCH   1  25
TORSDOF 6
ENDMDL
MODEL 9
REMARK VINA RESULT:      -8.1      1.378      2.125
REMARK  Name = 
REMARK  8 active torsions:
REMARK  status: ('A' for Active; 'I' for Inactive)
REMARK    1  A    between atoms: C_1  and  C_2
REMARK    2  A    between atoms: C_2  and  C_3
REMARK    3  A    between atoms: C_3  and  C_4
REMARK    4  A    between atoms: C_4  and  C_5
REMARK    5  A    between atoms: C_7  and  C_8
REMARK    6  A    between atoms: C_17  and  C_18
REMARK    7  A    between atoms: C_21  and  C_22
REMARK    8  A    between atoms: C_22  and  C_23
REMARK                            x       y       z     vdW  Elec       q    Type
REMARK                         _______ _______ _______ _____ _____    ______ ____
ROOT
ATOM      1  C   UNL     1       2.617   4.728  20.506  0.00  0.00    +0.000 A 
ATOM      2  C   UNL     1       3.374   4.320  19.408  0.00  0.00    +0.000 A 
ATOM      3  C   UNL     1       3.523   5.199  18.337  0.00  0.00    +0.000 A 
ATOM      4  N   UNL     1       3.012   6.457  18.312  0.00  0.00    +0.000 NA
ATOM      5  C   UNL     1       2.307   6.861  19.401  0.00  0.00    +0.000 A 
ATOM      6  C   UNL     1       2.098   6.026  20.500  0.00  0.00    +0.000 A 
ENDROOT
BRANCH   3   7
ATOM      7  C   UNL     1       4.277   4.768  17.116  0.00  0.00    +0.000 C 
ATOM      8  O   UNL     1       3.928   3.745  16.526  0.00  0.00    +0.000 OA
ATOM      9  N   UNL     1       5.342   5.568  16.787  0.00  0.00    +0.000 N 
ATOM     10  C   UNL     1       6.184   5.320  15.737  0.00  0.00    +0.000 A 
ATOM     11  N   UNL     1       5.937   4.436  14.721  0.00  0.00    +0.000 NA
ATOM     12  N   UNL     1       7.004   4.443  13.936  0.00  0.00    +0.000 NA
ATOM     13  N   UNL     1       7.842   5.300  14.528  0.00  0.00    +0.000 N 
ATOM     14  N   UNL     1       7.372   5.931  15.617  0.00  0.00    +0.000 NA
ATOM     15  H   UNL     1       5.601   6.325  17.407  0.00  0.00    +0.000 HD
ATOM     16  H   UNL     1       8.787   5.441  14.182  0.00  0.00    +0.000 HD
ENDBRANCH   3   7
BRANCH   5  17
ATOM     17  C   UNL     1       1.825   8.251  19.377  0.00  0.00    +0.000 A 
ATOM     18  C   UNL     1       1.928   9.068  18.236  0.00  0.00    +0.000 A 
ATOM     19  C   UNL     1       1.408  10.366  18.226  0.00  0.00    +0.000 A 
ATOM     20  C   UNL     1       0.786  10.893  19.362  0.00  0.00    +0.000 A 
ATOM     21  C   UNL     1       0.689  10.099  20.508  0.00  0.00    +0.000 A 
ATOM     22  C   UNL     1       1.205   8.802  20.512  0.00  0.00    +0.000 A 
BRANCH  20  23
ATOM     23  C   UNL     1       0.257  12.304  19.351  0.00  0.00    +0.000 C 
ATOM     24  C   UNL     1      -1.238  12.393  19.086  0.00  0.00    +0.000 C 
ENDBRANCH  20  23
ENDBRANCH   5  17
BRANCH   1  25
ATOM     25  C   UNL     1       2.323   3.796  21.657  0.00  0.00    +0.000 C 
BRANCH  25  26
ATOM     26  C   UNL     1       1.494   2.599  21.178  0.00  0.00    +0.000 C 
BRANCH  26  28
ATOM     27  C   UNL     1       0.692   2.194  18.847  0.00  0.00    +0.000 C 
ATOM     28  C   UNL     1       0.457   2.980  20.129  0.00  0.00    +0.000 C 
ENDBRANCH  26  28
ENDBRANCH  25  26
ENDBRANCH   1  25
TORSDOF 6
ENDMDL
