MODEL 1
REMARK VINA RESULT:      -7.4      0.000      0.000
REMARK  Name = 
REMARK  3 active torsions:
REMARK  status: ('A' for Active; 'I' for Inactive)
REMARK    1  A    between atoms: C_1  and  C_2
REMARK    2  A    between atoms: C_7  and  C_9
REMARK    3  A    between atoms: C_12  and  N_13
REMARK                            x       y       z     vdW  Elec       q    Type
REMARK                         _______ _______ _______ _____ _____    ______ ____
ROOT
ATOM      1  C   UNL     1       7.990   5.481  12.452  0.00  0.00    +0.000 C 
ATOM      2  C   UNL     1       7.369   5.052  13.716  0.00  0.00    +0.000 A 
ATOM      3  O   UNL     1       7.947   5.516  14.855  0.00  0.00    +0.000 OA
ATOM      4  N   UNL     1       7.237   5.069  15.949  0.00  0.00    +0.000 NA
ATOM      5  C   UNL     1       6.226   4.330  15.480  0.00  0.00    +0.000 A 
ATOM      6  N   UNL     1       5.268   3.713  16.266  0.00  0.00    +0.000 N 
ATOM      7  C   UNL     1       5.127   3.945  17.621  0.00  0.00    +0.000 C 
ATOM      8  O   UNL     1       5.803   4.717  18.289  0.00  0.00    +0.000 OA
ATOM      9  C   UNL     1       6.291   4.281  14.066  0.00  0.00    +0.000 A 
ATOM     10 BR   UNL     1       5.095   3.395  12.933  0.00  0.00    +0.000 Br
ATOM     11  H   UNL     1       4.597   3.111  15.806  0.00  0.00    +0.000 HD
ENDROOT
BRANCH   7  12
ATOM     12  C   UNL     1       4.033   3.208  18.230  0.00  0.00    +0.000 A 
ATOM     13  C   UNL     1       3.229   2.210  17.702  0.00  0.00    +0.000 A 
ATOM     14  C   UNL     1       2.335   1.809  18.723  0.00  0.00    +0.000 A 
ATOM     15  C   UNL     1       2.646   2.598  19.804  0.00  0.00    +0.000 A 
ATOM     16  O   UNL     1       3.669   3.454  19.531  0.00  0.00    +0.000 OA
BRANCH  15  17
ATOM     17  N   UNL     1       2.104   2.653  21.124  0.00  0.00    +0.000 N 
ATOM     18  O   UNL     1       2.901   2.477  22.054  0.00  0.00    +0.000 OA
ATOM     19  O   UNL     1       0.892   2.874  21.236  0.00  0.00    +0.000 OA
ENDBRANCH  15  17
ENDBRANCH   7  12
TORSDOF 2
ENDMDL
MODEL 2
REMARK VINA RESULT:      -7.2      3.072      6.881
REMARK  Name = 
REMARK  3 active torsions:
REMARK  status: ('A' for Active; 'I' for Inactive)
REMARK    1  A    between atoms: C_1  and  C_2
REMARK    2  A    between atoms: C_7  and  C_9
REMARK    3  A    between atoms: C_12  and  N_13
REMARK                            x       y       z     vdW  Elec       q    Type
REMARK                         _______ _______ _______ _____ _____    ______ ____
ROOT
ATOM      1  C   UNL     1       2.473   4.341  20.811  0.00  0.00    +0.000 C 
ATOM      2  C   UNL     1       3.198   4.613  19.559  0.00  0.00    +0.000 A 
ATOM      3  O   UNL     1       3.903   5.773  19.514  0.00  0.00    +0.000 OA
ATOM      4  N   UNL     1       4.558   5.870  18.305  0.00  0.00    +0.000 NA
ATOM      5  C   UNL     1       4.252   4.770  17.609  0.00  0.00    +0.000 A 
ATOM      6  N   UNL     1       4.729   4.479  16.342  0.00  0.00    +0.000 N 
ATOM      7  C   UNL     1       5.732   5.198  15.720  0.00  0.00    +0.000 C 
ATOM      8  O   UNL     1       6.329   6.155  16.198  0.00  0.00    +0.000 OA
ATOM      9  C   UNL     1       3.373   3.958  18.367  0.00  0.00    +0.000 A 
ATOM     10 BR   UNL     1       2.670   2.305  17.849  0.00  0.00    +0.000 Br
ATOM     11  H   UNL     1       4.364   3.656  15.879  0.00  0.00    +0.000 HD
ENDROOT
BRANCH   7  12
ATOM     12  C   UNL     1       6.087   4.690  14.407  0.00  0.00    +0.000 A 
ATOM     13  C   UNL     1       7.246   4.868  13.667  0.00  0.00    +0.000 A 
ATOM     14  C   UNL     1       7.093   4.134  12.466  0.00  0.00    +0.000 A 
ATOM     15  C   UNL     1       5.845   3.566  12.549  0.00  0.00    +0.000 A 
ATOM     16  O   UNL     1       5.215   3.888  13.713  0.00  0.00    +0.000 OA
BRANCH  15  17
ATOM     17  N   UNL     1       5.133   2.710  11.654  0.00  0.00    +0.000 N 
ATOM     18  O   UNL     1       4.050   3.133  11.232  0.00  0.00    +0.000 OA
ATOM     19  O   UNL     1       5.651   1.623  11.369  0.00  0.00    +0.000 OA
ENDBRANCH  15  17
ENDBRANCH   7  12
TORSDOF 2
ENDMDL
MODEL 3
REMARK VINA RESULT:      -6.9      0.832      1.101
REMARK  Name = 
REMARK  3 active torsions:
REMARK  status: ('A' for Active; 'I' for Inactive)
REMARK    1  A    between atoms: C_1  and  C_2
REMARK    2  A    between atoms: C_7  and  C_9
REMARK    3  A    between atoms: C_12  and  N_13
REMARK                            x       y       z     vdW  Elec       q    Type
REMARK                         _______ _______ _______ _____ _____    ______ ____
ROOT
ATOM      1  C   UNL     1       8.102   5.332  12.679  0.00  0.00    +0.000 C 
ATOM      2  C   UNL     1       7.336   5.138  13.921  0.00  0.00    +0.000 A 
ATOM      3  O   UNL     1       7.820   5.763  15.027  0.00  0.00    +0.000 OA
ATOM      4  N   UNL     1       6.981   5.528  16.095  0.00  0.00    +0.000 NA
ATOM      5  C   UNL     1       5.986   4.756  15.645  0.00  0.00    +0.000 A 
ATOM      6  N   UNL     1       4.923   4.311  16.412  0.00  0.00    +0.000 N 
ATOM      7  C   UNL     1       4.659   4.767  17.689  0.00  0.00    +0.000 C 
ATOM      8  O   UNL     1       5.304   5.615  18.293  0.00  0.00    +0.000 OA
ATOM      9  C   UNL     1       6.190   4.473  14.272  0.00  0.00    +0.000 A 
ATOM     10 BR   UNL     1       5.071   3.454  13.174  0.00  0.00    +0.000 Br
ATOM     11  H   UNL     1       4.272   3.664  15.984  0.00  0.00    +0.000 HD
ENDROOT
BRANCH   7  12
ATOM     12  C   UNL     1       3.473   4.178  18.287  0.00  0.00    +0.000 A 
ATOM     13  C   UNL     1       2.244   3.881  17.719  0.00  0.00    +0.000 A 
ATOM     14  C   UNL     1       1.447   3.292  18.730  0.00  0.00    +0.000 A 
ATOM     15  C   UNL     1       2.241   3.280  19.852  0.00  0.00    +0.000 A 
ATOM     16  O   UNL     1       3.471   3.812  19.610  0.00  0.00    +0.000 OA
BRANCH  15  17
ATOM     17  N   UNL     1       2.002   2.801  21.176  0.00  0.00    +0.000 N 
ATOM     18  O   UNL     1       0.824   2.566  21.472  0.00  0.00    +0.000 OA
ATOM     19  O   UNL     1       2.983   2.654  21.917  0.00  0.00    +0.000 OA
ENDBRANCH  15  17
ENDBRANCH   7  12
TORSDOF 2
ENDMDL
MODEL 4
REMARK VINA RESULT:      -6.9      4.658      7.179
REMARK  Name = 
REMARK  3 active torsions:
REMARK  status: ('A' for Active; 'I' for Inactive)
REMARK    1  A    between atoms: C_1  and  C_2
REMARK    2  A    between atoms: C_7  and  C_9
REMARK    3  A    between atoms: C_12  and  N_13
REMARK                            x       y       z     vdW  Elec       q    Type
REMARK                         _______ _______ _______ _____ _____    ______ ____
ROOT
ATOM      1  C   UNL     1      -0.447  10.566  20.780  0.00  0.00    +0.000 C 
ATOM      2  C   UNL     1       0.462   9.432  20.542  0.00  0.00    +0.000 A 
ATOM      3  O   UNL     1       0.483   8.469  21.501  0.00  0.00    +0.000 OA
ATOM      4  N   UNL     1       1.342   7.459  21.124  0.00  0.00    +0.000 NA
ATOM      5  C   UNL     1       1.849   7.805  19.936  0.00  0.00    +0.000 A 
ATOM      6  N   UNL     1       2.745   7.041  19.208  0.00  0.00    +0.000 N 
ATOM      7  C   UNL     1       3.078   5.740  19.530  0.00  0.00    +0.000 C 
ATOM      8  O   UNL     1       2.625   5.098  20.470  0.00  0.00    +0.000 OA
ATOM      9  C   UNL     1       1.327   9.063  19.545  0.00  0.00    +0.000 A 
ATOM     10 BR   UNL     1       1.706   9.973  17.957  0.00  0.00    +0.000 Br
ATOM     11  H   UNL     1       3.124   7.442  18.359  0.00  0.00    +0.000 HD
ENDROOT
BRANCH   7  12
ATOM     12  C   UNL     1       4.015   5.129  18.604  0.00  0.00    +0.000 A 
ATOM     13  C   UNL     1       3.778   4.404  17.446  0.00  0.00    +0.000 A 
ATOM     14  C   UNL     1       5.039   4.061  16.902  0.00  0.00    +0.000 A 
ATOM     15  C   UNL     1       5.962   4.591  17.771  0.00  0.00    +0.000 A 
ATOM     16  O   UNL     1       5.368   5.241  18.810  0.00  0.00    +0.000 OA
BRANCH  15  17
ATOM     17  N   UNL     1       7.390   4.588  17.754  0.00  0.00    +0.000 N 
ATOM     18  O   UNL     1       7.927   4.354  16.664  0.00  0.00    +0.000 OA
ATOM     19  O   UNL     1       7.976   4.822  18.819  0.00  0.00    +0.000 OA
ENDBRANCH  15  17
ENDBRANCH   7  12
TORSDOF 2
ENDMDL
MODEL 5
REMARK VINA RESULT:      -6.7      2.447      7.204
REMARK  Name = 
REMARK  3 active torsions:
REMARK  status: ('A' for Active; 'I' for Inactive)
REMARK    1  A    between atoms: C_1  and  C_2
REMARK    2  A    between atoms: C_7  and  C_9
REMARK    3  A    between atoms: C_12  and  N_13
REMARK                            x       y       z     vdW  Elec       q    Type
REMARK                         _______ _______ _______ _____ _____    ______ ____
ROOT
ATOM      1  C   UNL     1       1.822   3.504  21.358  0.00  0.00    +0.000 C 
ATOM      2  C   UNL     1       2.650   3.967  20.232  0.00  0.00    +0.000 A 
ATOM      3  O   UNL     1       3.281   5.159  20.403  0.00  0.00    +0.000 OA
ATOM      4  N   UNL     1       4.047   5.440  19.292  0.00  0.00    +0.000 NA
ATOM      5  C   UNL     1       3.883   4.422  18.440  0.00  0.00    +0.000 A 
ATOM      6  N   UNL     1       4.502   4.318  17.206  0.00  0.00    +0.000 N 
ATOM      7  C   UNL     1       5.514   5.160  16.786  0.00  0.00    +0.000 C 
ATOM      8  O   UNL     1       5.997   6.078  17.437  0.00  0.00    +0.000 OA
ATOM      9  C   UNL     1       2.986   3.478  18.996  0.00  0.00    +0.000 A 
ATOM     10 BR   UNL     1       2.446   1.869  18.212  0.00  0.00    +0.000 Br
ATOM     11  H   UNL     1       4.239   3.542  16.611  0.00  0.00    +0.000 HD
ENDROOT
BRANCH   7  12
ATOM     12  C   UNL     1       6.032   4.840  15.467  0.00  0.00    +0.000 A 
ATOM     13  C   UNL     1       5.723   3.785  14.622  0.00  0.00    +0.000 A 
ATOM     14  C   UNL     1       6.489   3.956  13.443  0.00  0.00    +0.000 A 
ATOM     15  C   UNL     1       7.222   5.099  13.654  0.00  0.00    +0.000 A 
ATOM     16  O   UNL     1       6.965   5.652  14.872  0.00  0.00    +0.000 OA
BRANCH  15  17
ATOM     17  N   UNL     1       8.162   5.787  12.827  0.00  0.00    +0.000 N 
ATOM     18  O   UNL     1       9.264   6.034  13.334  0.00  0.00    +0.000 OA
ATOM     19  O   UNL     1       7.809   6.076  11.677  0.00  0.00    +0.000 OA
ENDBRANCH  15  17
ENDBRANCH   7  12
TORSDOF 2
ENDMDL
MODEL 6
REMARK VINA RESULT:      -6.6      1.128      1.299
REMARK  Name = 
REMARK  3 active torsions:
REMARK  status: ('A' for Active; 'I' for Inactive)
REMARK    1  A    between atoms: C_1  and  C_2
REMARK    2  A    between atoms: C_7  and  C_9
REMARK    3  A    between atoms: C_12  and  N_13
REMARK                            x       y       z     vdW  Elec       q    Type
REMARK                         _______ _______ _______ _____ _____    ______ ____
ROOT
ATOM      1  C   UNL     1       8.014   5.543  12.191  0.00  0.00    +0.000 C 
ATOM      2  C   UNL     1       7.411   5.120  13.465  0.00  0.00    +0.000 A 
ATOM      3  O   UNL     1       7.940   5.669  14.590  0.00  0.00    +0.000 OA
ATOM      4  N   UNL     1       7.251   5.215  15.695  0.00  0.00    +0.000 NA
ATOM      5  C   UNL     1       6.302   4.386  15.246  0.00  0.00    +0.000 A 
ATOM      6  N   UNL     1       5.381   3.733  16.048  0.00  0.00    +0.000 N 
ATOM      7  C   UNL     1       5.208   4.006  17.390  0.00  0.00    +0.000 C 
ATOM      8  O   UNL     1       5.818   4.851  18.033  0.00  0.00    +0.000 OA
ATOM      9  C   UNL     1       6.387   4.287  13.836  0.00  0.00    +0.000 A 
ATOM     10 BR   UNL     1       5.272   3.273  12.728  0.00  0.00    +0.000 Br
ATOM     11  H   UNL     1       4.761   3.066  15.605  0.00  0.00    +0.000 HD
ENDROOT
BRANCH   7  12
ATOM     12  C   UNL     1       4.162   3.217  18.018  0.00  0.00    +0.000 A 
ATOM     13  C   UNL     1       4.146   1.874  18.362  0.00  0.00    +0.000 A 
ATOM     14  C   UNL     1       2.897   1.614  18.975  0.00  0.00    +0.000 A 
ATOM     15  C   UNL     1       2.229   2.815  18.953  0.00  0.00    +0.000 A 
ATOM     16  O   UNL     1       2.973   3.800  18.378  0.00  0.00    +0.000 OA
BRANCH  15  17
ATOM     17  N   UNL     1       0.937   3.189  19.434  0.00  0.00    +0.000 N 
ATOM     18  O   UNL     1      -0.018   2.518  19.023  0.00  0.00    +0.000 OA
ATOM     19  O   UNL     1       0.873   4.142  20.220  0.00  0.00    +0.000 OA
ENDBRANCH  15  17
ENDBRANCH   7  12
TORSDOF 2
ENDMDL
MODEL 7
REMARK VINA RESULT:      -6.5      3.376      6.916
REMARK  Name = 
REMARK  3 active torsions:
REMARK  status: ('A' for Active; 'I' for Inactive)
REMARK    1  A    between atoms: C_1  and  C_2
REMARK    2  A    between atoms: C_7  and  C_9
REMARK    3  A    between atoms: C_12  and  N_13
REMARK                            x       y       z     vdW  Elec       q    Type
REMARK                         _______ _______ _______ _____ _____    ______ ____
ROOT
ATOM      1  C   UNL     1       1.762   5.441  20.689  0.00  0.00    +0.000 C 
ATOM      2  C   UNL     1       2.507   5.523  19.422  0.00  0.00    +0.000 A 
ATOM      3  O   UNL     1       2.905   6.765  19.041  0.00  0.00    +0.000 OA
ATOM      4  N   UNL     1       3.622   6.680  17.866  0.00  0.00    +0.000 NA
ATOM      5  C   UNL     1       3.661   5.387  17.528  0.00  0.00    +0.000 A 
ATOM      6  N   UNL     1       4.307   4.882  16.412  0.00  0.00    +0.000 N 
ATOM      7  C   UNL     1       5.153   5.629  15.616  0.00  0.00    +0.000 C 
ATOM      8  O   UNL     1       5.450   6.804  15.793  0.00  0.00    +0.000 OA
ATOM      9  C   UNL     1       2.945   4.625  18.483  0.00  0.00    +0.000 A 
ATOM     10 BR   UNL     1       2.721   2.769  18.477  0.00  0.00    +0.000 Br
ATOM     11  H   UNL     1       4.199   3.895  16.213  0.00  0.00    +0.000 HD
ENDROOT
BRANCH   7  12
ATOM     12  C   UNL     1       5.739   4.878  14.520  0.00  0.00    +0.000 A 
ATOM     13  C   UNL     1       7.068   4.737  14.148  0.00  0.00    +0.000 A 
ATOM     14  C   UNL     1       7.098   3.874  13.026  0.00  0.00    +0.000 A 
ATOM     15  C   UNL     1       5.784   3.555  12.782  0.00  0.00    +0.000 A 
ATOM     16  O   UNL     1       4.942   4.151  13.671  0.00  0.00    +0.000 OA
BRANCH  15  17
ATOM     17  N   UNL     1       5.181   2.716  11.795  0.00  0.00    +0.000 N 
ATOM     18  O   UNL     1       5.831   1.725  11.443  0.00  0.00    +0.000 OA
ATOM     19  O   UNL     1       4.062   3.040  11.376  0.00  0.00    +0.000 OA
ENDBRANCH  15  17
ENDBRANCH   7  12
TORSDOF 2
ENDMDL
MODEL 8
REMARK VINA RESULT:      -6.4      5.652      6.730
REMARK  Name = 
REMARK  3 active torsions:
REMARK  status: ('A' for Active; 'I' for Inactive)
REMARK    1  A    between atoms: C_1  and  C_2
REMARK    2  A    between atoms: C_7  and  C_9
REMARK    3  A    between atoms: C_12  and  N_13
REMARK                            x       y       z     vdW  Elec       q    Type
REMARK                         _______ _______ _______ _____ _____    ______ ____
ROOT
ATOM      1  C   UNL     1       3.553   1.700  18.440  0.00  0.00    +0.000 C 
ATOM      2  C   UNL     1       3.340   3.151  18.571  0.00  0.00    +0.000 A 
ATOM      3  O   UNL     1       4.092   3.942  17.763  0.00  0.00    +0.000 OA
ATOM      4  N   UNL     1       3.756   5.264  17.966  0.00  0.00    +0.000 NA
ATOM      5  C   UNL     1       2.799   5.281  18.900  0.00  0.00    +0.000 A 
ATOM      6  N   UNL     1       2.178   6.425  19.373  0.00  0.00    +0.000 N 
ATOM      7  C   UNL     1       2.335   7.672  18.800  0.00  0.00    +0.000 C 
ATOM      8  O   UNL     1       3.016   7.925  17.813  0.00  0.00    +0.000 OA
ATOM      9  C   UNL     1       2.524   3.957  19.321  0.00  0.00    +0.000 A 
ATOM     10 BR   UNL     1       1.253   3.442  20.592  0.00  0.00    +0.000 Br
ATOM     11  H   UNL     1       1.525   6.323  20.140  0.00  0.00    +0.000 HD
ENDROOT
BRANCH   7  12
ATOM     12  C   UNL     1       1.562   8.716  19.449  0.00  0.00    +0.000 A 
ATOM     13  C   UNL     1       0.930   9.824  18.905  0.00  0.00    +0.000 A 
ATOM     14  C   UNL     1       0.291  10.505  19.969  0.00  0.00    +0.000 A 
ATOM     15  C   UNL     1       0.585   9.771  21.094  0.00  0.00    +0.000 A 
ATOM     16  O   UNL     1       1.354   8.685  20.806  0.00  0.00    +0.000 OA
BRANCH  15  17
ATOM     17  N   UNL     1       0.215   9.946  22.462  0.00  0.00    +0.000 N 
ATOM     18  O   UNL     1       1.040   9.578  23.307  0.00  0.00    +0.000 OA
ATOM     19  O   UNL     1      -0.890  10.452  22.696  0.00  0.00    +0.000 OA
ENDBRANCH  15  17
ENDBRANCH   7  12
TORSDOF 2
ENDMDL
MODEL 9
REMARK VINA RESULT:      -6.4      3.386      7.004
REMARK  Name = 
REMARK  3 active torsions:
REMARK  status: ('A' for Active; 'I' for Inactive)
REMARK    1  A    between atoms: C_1  and  C_2
REMARK    2  A    between atoms: C_7  and  C_9
REMARK    3  A    between atoms: C_12  and  N_13
REMARK                            x       y       z     vdW  Elec       q    Type
REMARK                         _______ _______ _______ _____ _____    ______ ____
ROOT
ATOM      1  C   UNL     1       1.152   7.081  21.043  0.00  0.00    +0.000 C 
ATOM      2  C   UNL     1       2.119   6.426  20.147  0.00  0.00    +0.000 A 
ATOM      3  O   UNL     1       2.530   5.184  20.515  0.00  0.00    +0.000 OA
ATOM      4  N   UNL     1       3.395   4.683  19.566  0.00  0.00    +0.000 NA
ATOM      5  C   UNL     1       3.517   5.619  18.619  0.00  0.00    +0.000 A 
ATOM      6  N   UNL     1       4.290   5.492  17.477  0.00  0.00    +0.000 N 
ATOM      7  C   UNL     1       4.878   4.307  17.082  0.00  0.00    +0.000 C 
ATOM      8  O   UNL     1       4.787   3.233  17.664  0.00  0.00    +0.000 OA
ATOM      9  C   UNL     1       2.736   6.749  18.966  0.00  0.00    +0.000 A 
ATOM     10 BR   UNL     1       2.548   8.315  17.963  0.00  0.00    +0.000 Br
ATOM     11  H   UNL     1       4.370   6.299  16.871  0.00  0.00    +0.000 HD
ENDROOT
BRANCH   7  12
ATOM     12  C   UNL     1       5.617   4.407  15.835  0.00  0.00    +0.000 A 
ATOM     13  C   UNL     1       6.788   5.091  15.546  0.00  0.00    +0.000 A 
ATOM     14  C   UNL     1       7.097   4.836  14.189  0.00  0.00    +0.000 A 
ATOM     15  C   UNL     1       6.087   4.022  13.736  0.00  0.00    +0.000 A 
ATOM     16  O   UNL     1       5.178   3.749  14.713  0.00  0.00    +0.000 OA
BRANCH  15  17
ATOM     17  N   UNL     1       5.853   3.423  12.461  0.00  0.00    +0.000 N 
ATOM     18  O   UNL     1       6.844   2.970  11.875  0.00  0.00    +0.000 OA
ATOM     19  O   UNL     1       4.687   3.398  12.046  0.00  0.00    +0.000 OA
ENDBRANCH  15  17
ENDBRANCH   7  12
TORSDOF 2
ENDMDL
