MODEL 1
REMARK VINA RESULT:      -6.5      0.000      0.000
REMARK  Name = 
REMARK  17 active torsions:
REMARK  status: ('A' for Active; 'I' for Inactive)
REMARK    1  A    between atoms: C_1  and  O_2
REMARK    2  A    between atoms: O_2  and  C_3
REMARK    3  A    between atoms: C_6  and  C_7
REMARK    4  A    between atoms: C_7  and  C_9
REMARK    5  A    between atoms: C_9  and  C_10
REMARK    6  A    between atoms: C_9  and  C_12
REMARK    7  A    between atoms: C_12  and  S_13
REMARK    8  A    between atoms: C_12  and  C_17
REMARK    9  A    between atoms: S_13  and  C_14
REMARK   10  A    between atoms: C_14  and  C_15
REMARK   11  A    between atoms: C_15  and  N_16
REMARK   12  A    between atoms: C_20  and  O_21
REMARK   13  A    between atoms: O_21  and  C_22
REMARK   14  A    between atoms: C_23  and  O_24
REMARK   15  A    between atoms: O_24  and  C_25
REMARK   16  A    between atoms: C_27  and  O_28
REMARK   17  A    between atoms: O_28  and  C_29
REMARK                            x       y       z     vdW  Elec       q    Type
REMARK                         _______ _______ _______ _____ _____    ______ ____
ROOT
ATOM      1  C   UNL     1       2.715   5.820  18.800  0.00  0.00    +0.000 C 
ENDROOT
BRANCH   1   2
ATOM      2  C   UNL     1       2.098   7.210  19.000  0.00  0.00    +0.000 A 
ATOM      3  C   UNL     1       1.839   8.091  17.941  0.00  0.00    +0.000 A 
ATOM      4  C   UNL     1       1.276   9.337  18.179  0.00  0.00    +0.000 A 
ATOM      5  C   UNL     1       0.990   9.774  19.475  0.00  0.00    +0.000 A 
ATOM      6  C   UNL     1       1.258   8.924  20.560  0.00  0.00    +0.000 A 
ATOM      7  C   UNL     1       1.779   7.645  20.301  0.00  0.00    +0.000 A 
BRANCH   5   8
ATOM      8  O   UNL     1       0.465  11.037  19.469  0.00  0.00    +0.000 OA
ATOM      9  C   UNL     1       1.279  12.111  19.040  0.00  0.00    +0.000 C 
ENDBRANCH   5   8
BRANCH   6  10
ATOM     10  O   UNL     1       1.004   9.380  21.825  0.00  0.00    +0.000 OA
ATOM     11  C   UNL     1      -0.294   9.178  22.370  0.00  0.00    +0.000 C 
ENDBRANCH   6  10
ENDBRANCH   1   2
BRANCH   1  12
ATOM     12  C   UNL     1       4.233   5.754  19.033  0.00  0.00    +0.000 C 
BRANCH  12  13
ATOM     13  C   UNL     1       4.907   4.439  18.574  0.00  0.00    +0.000 C 
ATOM     14  O   UNL     1       4.921   3.431  19.276  0.00  0.00    +0.000 OA
BRANCH  13  18
ATOM     15  C   UNL     1       6.627   4.365  14.592  0.00  0.00    +0.000 A 
ATOM     16  C   UNL     1       5.248   4.290  14.776  0.00  0.00    +0.000 A 
ATOM     17  C   UNL     1       4.695   4.303  16.060  0.00  0.00    +0.000 A 
ATOM     18  C   UNL     1       5.521   4.384  17.191  0.00  0.00    +0.000 A 
ATOM     19  C   UNL     1       6.920   4.426  17.008  0.00  0.00    +0.000 A 
ATOM     20  C   UNL     1       7.460   4.411  15.710  0.00  0.00    +0.000 A 
BRANCH  15  22
ATOM     21  C   UNL     1       6.338   3.513  12.386  0.00  0.00    +0.000 C 
ATOM     22  O   UNL     1       7.025   4.378  13.284  0.00  0.00    +0.000 OA
ENDBRANCH  15  22
BRANCH  19  23
ATOM     23  O   UNL     1       7.717   4.389  18.126  0.00  0.00    +0.000 OA
ATOM     24  C   UNL     1       8.075   5.644  18.695  0.00  0.00    +0.000 C 
ENDBRANCH  19  23
ENDBRANCH  13  18
ENDBRANCH  12  13
BRANCH  12  25
ATOM     25  C   UNL     1       4.990   6.793  18.222  0.00  0.00    +0.000 C 
ATOM     26  N   UNL     1       5.617   7.654  17.548  0.00  0.00    +0.000 NA
ENDBRANCH  12  25
ENDBRANCH   1  12
BRANCH   1  27
ATOM     27  S   UNL     1       1.747   4.580  19.834  0.00  0.00    +0.000 S 
BRANCH  27  28
ATOM     28  C   UNL     1       1.217   3.369  18.571  0.00  0.00    +0.000 C 
BRANCH  28  29
ATOM     29  C   UNL     1       1.594   1.938  18.992  0.00  0.00    +0.000 C 
BRANCH  29  30
ATOM     30  N   UNL     1       2.852   1.484  18.397  0.00  0.00    +0.000 NA
ATOM     31  H   UNL     1       3.617   1.750  19.025  0.00  0.00    +0.000 HD
ATOM     32  H   UNL     1       3.018   1.989  17.528  0.00  0.00    +0.000 HD
ENDBRANCH  29  30
ENDBRANCH  28  29
ENDBRANCH  27  28
ENDBRANCH   1  27
TORSDOF 13
ENDMDL
MODEL 2
REMARK VINA RESULT:      -6.4      2.059      7.528
REMARK  Name = 
REMARK  17 active torsions:
REMARK  status: ('A' for Active; 'I' for Inactive)
REMARK    1  A    between atoms: C_1  and  O_2
REMARK    2  A    between atoms: O_2  and  C_3
REMARK    3  A    between atoms: C_6  and  C_7
REMARK    4  A    between atoms: C_7  and  C_9
REMARK    5  A    between atoms: C_9  and  C_10
REMARK    6  A    between atoms: C_9  and  C_12
REMARK    7  A    between atoms: C_12  and  S_13
REMARK    8  A    between atoms: C_12  and  C_17
REMARK    9  A    between atoms: S_13  and  C_14
REMARK   10  A    between atoms: C_14  and  C_15
REMARK   11  A    between atoms: C_15  and  N_16
REMARK   12  A    between atoms: C_20  and  O_21
REMARK   13  A    between atoms: O_21  and  C_22
REMARK   14  A    between atoms: C_23  and  O_24
REMARK   15  A    between atoms: O_24  and  C_25
REMARK   16  A    between atoms: C_27  and  O_28
REMARK   17  A    between atoms: O_28  and  C_29
REMARK                            x       y       z     vdW  Elec       q    Type
REMARK                         _______ _______ _______ _____ _____    ______ ____
ROOT
ATOM      1  C   UNL     1       3.868   4.839  19.320  0.00  0.00    +0.000 C 
ENDROOT
BRANCH   1   2
ATOM      2  C   UNL     1       4.728   4.823  18.049  0.00  0.00    +0.000 A 
ATOM      3  C   UNL     1       4.632   3.821  17.074  0.00  0.00    +0.000 A 
ATOM      4  C   UNL     1       5.432   3.856  15.941  0.00  0.00    +0.000 A 
ATOM      5  C   UNL     1       6.387   4.859  15.754  0.00  0.00    +0.000 A 
ATOM      6  C   UNL     1       6.524   5.866  16.722  0.00  0.00    +0.000 A 
ATOM      7  C   UNL     1       5.672   5.847  17.839  0.00  0.00    +0.000 A 
BRANCH   5   8
ATOM      8  O   UNL     1       7.073   4.679  14.584  0.00  0.00    +0.000 OA
ATOM      9  C   UNL     1       6.417   4.054  13.498  0.00  0.00    +0.000 C 
ENDBRANCH   5   8
BRANCH   6  10
ATOM     10  O   UNL     1       7.487   6.821  16.539  0.00  0.00    +0.000 OA
ATOM     11  C   UNL     1       7.765   7.716  17.610  0.00  0.00    +0.000 C 
ENDBRANCH   6  10
ENDBRANCH   1   2
BRANCH   1  12
ATOM     12  C   UNL     1       2.466   5.442  19.136  0.00  0.00    +0.000 C 
BRANCH  12  13
ATOM     13  C   UNL     1       2.444   6.949  18.787  0.00  0.00    +0.000 C 
ATOM     14  O   UNL     1       2.857   7.377  17.712  0.00  0.00    +0.000 OA
BRANCH  13  18
ATOM     15  C   UNL     1       0.807   9.719  21.696  0.00  0.00    +0.000 A 
ATOM     16  C   UNL     1       1.135   8.414  22.058  0.00  0.00    +0.000 A 
ATOM     17  C   UNL     1       1.652   7.519  21.117  0.00  0.00    +0.000 A 
ATOM     18  C   UNL     1       1.844   7.915  19.785  0.00  0.00    +0.000 A 
ATOM     19  C   UNL     1       1.481   9.226  19.409  0.00  0.00    +0.000 A 
ATOM     20  C   UNL     1       0.961  10.115  20.368  0.00  0.00    +0.000 A 
BRANCH  15  22
ATOM     21  C   UNL     1      -1.033  10.379  23.058  0.00  0.00    +0.000 C 
ATOM     22  O   UNL     1       0.345  10.494  22.724  0.00  0.00    +0.000 OA
ENDBRANCH  15  22
BRANCH  19  23
ATOM     23  O   UNL     1       1.568   9.562  18.081  0.00  0.00    +0.000 OA
ATOM     24  C   UNL     1       2.127  10.837  17.780  0.00  0.00    +0.000 C 
ENDBRANCH  19  23
ENDBRANCH  13  18
ENDBRANCH  12  13
BRANCH  12  25
ATOM     25  C   UNL     1       1.725   4.836  17.956  0.00  0.00    +0.000 C 
ATOM     26  N   UNL     1       1.109   4.333  16.977  0.00  0.00    +0.000 NA
ENDBRANCH  12  25
ENDBRANCH   1  12
BRANCH   1  27
ATOM     27  S   UNL     1       3.845   3.103  20.050  0.00  0.00    +0.000 S 
BRANCH  27  28
ATOM     28  C   UNL     1       2.077   2.658  19.903  0.00  0.00    +0.000 C 
BRANCH  28  29
ATOM     29  C   UNL     1       1.387   2.701  21.277  0.00  0.00    +0.000 C 
BRANCH  29  30
ATOM     30  N   UNL     1       2.266   3.194  22.340  0.00  0.00    +0.000 NA
ATOM     31  H   UNL     1       3.234   3.124  22.010  0.00  0.00    +0.000 HD
ATOM     32  H   UNL     1       2.203   2.575  23.146  0.00  0.00    +0.000 HD
ENDBRANCH  29  30
ENDBRANCH  28  29
ENDBRANCH  27  28
ENDBRANCH   1  27
TORSDOF 13
ENDMDL
MODEL 3
REMARK VINA RESULT:      -6.3      3.784      9.219
REMARK  Name = 
REMARK  17 active torsions:
REMARK  status: ('A' for Active; 'I' for Inactive)
REMARK    1  A    between atoms: C_1  and  O_2
REMARK    2  A    between atoms: O_2  and  C_3
REMARK    3  A    between atoms: C_6  and  C_7
REMARK    4  A    between atoms: C_7  and  C_9
REMARK    5  A    between atoms: C_9  and  C_10
REMARK    6  A    between atoms: C_9  and  C_12
REMARK    7  A    between atoms: C_12  and  S_13
REMARK    8  A    between atoms: C_12  and  C_17
REMARK    9  A    between atoms: S_13  and  C_14
REMARK   10  A    between atoms: C_14  and  C_15
REMARK   11  A    between atoms: C_15  and  N_16
REMARK   12  A    between atoms: C_20  and  O_21
REMARK   13  A    between atoms: O_21  and  C_22
REMARK   14  A    between atoms: C_23  and  O_24
REMARK   15  A    between atoms: O_24  and  C_25
REMARK   16  A    between atoms: C_27  and  O_28
REMARK   17  A    between atoms: O_28  and  C_29
REMARK                            x       y       z     vdW  Elec       q    Type
REMARK                         _______ _______ _______ _____ _____    ______ ____
ROOT
ATOM      1  C   UNL     1       1.111   9.020  20.165  0.00  0.00    +0.000 C 
ENDROOT
BRANCH   1   2
ATOM      2  C   UNL     1       1.822   7.732  19.729  0.00  0.00    +0.000 A 
ATOM      3  C   UNL     1       2.473   7.600  18.495  0.00  0.00    +0.000 A 
ATOM      4  C   UNL     1       3.104   6.413  18.151  0.00  0.00    +0.000 A 
ATOM      5  C   UNL     1       3.074   5.300  18.995  0.00  0.00    +0.000 A 
ATOM      6  C   UNL     1       2.412   5.393  20.229  0.00  0.00    +0.000 A 
ATOM      7  C   UNL     1       1.822   6.616  20.588  0.00  0.00    +0.000 A 
BRANCH   5   8
ATOM      8  O   UNL     1       3.738   4.239  18.442  0.00  0.00    +0.000 OA
ATOM      9  C   UNL     1       5.126   4.356  18.198  0.00  0.00    +0.000 C 
ENDBRANCH   5   8
BRANCH   6  10
ATOM     10  O   UNL     1       2.364   4.283  21.030  0.00  0.00    +0.000 OA
ATOM     11  C   UNL     1       1.275   3.381  20.872  0.00  0.00    +0.000 C 
ENDBRANCH   6  10
ENDBRANCH   1   2
BRANCH   1  12
ATOM     12  C   UNL     1       0.593   9.890  19.008  0.00  0.00    +0.000 C 
BRANCH  12  13
ATOM     13  C   UNL     1      -0.282  11.092  19.437  0.00  0.00    +0.000 C 
ATOM     14  O   UNL     1       0.162  12.015  20.115  0.00  0.00    +0.000 OA
BRANCH  13  18
ATOM     15  C   UNL     1      -4.406  11.175  18.093  0.00  0.00    +0.000 A 
ATOM     16  C   UNL     1      -3.481  10.313  17.508  0.00  0.00    +0.000 A 
ATOM     17  C   UNL     1      -2.150  10.295  17.934  0.00  0.00    +0.000 A 
ATOM     18  C   UNL     1      -1.716  11.151  18.956  0.00  0.00    +0.000 A 
ATOM     19  C   UNL     1      -2.643  12.050  19.528  0.00  0.00    +0.000 A 
ATOM     20  C   UNL     1      -3.979  12.056  19.087  0.00  0.00    +0.000 A 
BRANCH  15  22
ATOM     21  C   UNL     1      -6.470  12.243  17.566  0.00  0.00    +0.000 C 
ATOM     22  O   UNL     1      -5.677  11.061  17.603  0.00  0.00    +0.000 OA
ENDBRANCH  15  22
BRANCH  19  23
ATOM     23  O   UNL     1      -2.178  12.958  20.445  0.00  0.00    +0.000 OA
ATOM     24  C   UNL     1      -3.079  13.990  20.835  0.00  0.00    +0.000 C 
ENDBRANCH  19  23
ENDBRANCH  13  18
ENDBRANCH  12  13
BRANCH  12  25
ATOM     25  C   UNL     1       1.718  10.576  18.251  0.00  0.00    +0.000 C 
ATOM     26  N   UNL     1       2.652  11.145  17.624  0.00  0.00    +0.000 NA
ENDBRANCH  12  25
ENDBRANCH   1  12
BRANCH   1  27
ATOM     27  S   UNL     1      -0.223   8.573  21.417  0.00  0.00    +0.000 S 
BRANCH  27  28
ATOM     28  C   UNL     1       0.193   9.671  22.819  0.00  0.00    +0.000 C 
BRANCH  28  29
ATOM     29  C   UNL     1      -0.988  10.596  23.158  0.00  0.00    +0.000 C 
BRANCH  29  30
ATOM     30  N   UNL     1      -0.677  12.012  22.954  0.00  0.00    +0.000 NA
ATOM     31  H   UNL     1      -1.528  12.481  22.628  0.00  0.00    +0.000 HD
ATOM     32  H   UNL     1      -0.001  12.105  22.197  0.00  0.00    +0.000 HD
ENDBRANCH  29  30
ENDBRANCH  28  29
ENDBRANCH  27  28
ENDBRANCH   1  27
TORSDOF 13
ENDMDL
MODEL 4
REMARK VINA RESULT:      -6.0      4.250      8.691
REMARK  Name = 
REMARK  17 active torsions:
REMARK  status: ('A' for Active; 'I' for Inactive)
REMARK    1  A    between atoms: C_1  and  O_2
REMARK    2  A    between atoms: O_2  and  C_3
REMARK    3  A    between atoms: C_6  and  C_7
REMARK    4  A    between atoms: C_7  and  C_9
REMARK    5  A    between atoms: C_9  and  C_10
REMARK    6  A    between atoms: C_9  and  C_12
REMARK    7  A    between atoms: C_12  and  S_13
REMARK    8  A    between atoms: C_12  and  C_17
REMARK    9  A    between atoms: S_13  and  C_14
REMARK   10  A    between atoms: C_14  and  C_15
REMARK   11  A    between atoms: C_15  and  N_16
REMARK   12  A    between atoms: C_20  and  O_21
REMARK   13  A    between atoms: O_21  and  C_22
REMARK   14  A    between atoms: C_23  and  O_24
REMARK   15  A    between atoms: O_24  and  C_25
REMARK   16  A    between atoms: C_27  and  O_28
REMARK   17  A    between atoms: O_28  and  C_29
REMARK                            x       y       z     vdW  Elec       q    Type
REMARK                         _______ _______ _______ _____ _____    ______ ____
ROOT
ATOM      1  C   UNL     1      -0.175  10.355  19.954  0.00  0.00    +0.000 C 
ENDROOT
BRANCH   1   2
ATOM      2  C   UNL     1       0.832   9.312  19.454  0.00  0.00    +0.000 A 
ATOM      3  C   UNL     1       1.421   9.367  18.183  0.00  0.00    +0.000 A 
ATOM      4  C   UNL     1       2.329   8.398  17.782  0.00  0.00    +0.000 A 
ATOM      5  C   UNL     1       2.654   7.316  18.605  0.00  0.00    +0.000 A 
ATOM      6  C   UNL     1       2.065   7.220  19.875  0.00  0.00    +0.000 A 
ATOM      7  C   UNL     1       1.187   8.235  20.289  0.00  0.00    +0.000 A 
BRANCH   5   8
ATOM      8  O   UNL     1       3.547   6.478  17.995  0.00  0.00    +0.000 OA
ATOM      9  C   UNL     1       4.491   7.026  17.096  0.00  0.00    +0.000 C 
ENDBRANCH   5   8
BRANCH   6  10
ATOM     10  O   UNL     1       2.367   6.137  20.655  0.00  0.00    +0.000 OA
ATOM     11  C   UNL     1       1.542   4.982  20.561  0.00  0.00    +0.000 C 
ENDBRANCH   6  10
ENDBRANCH   1   2
BRANCH   1  12
ATOM     12  C   UNL     1       0.393  11.358  20.972  0.00  0.00    +0.000 C 
BRANCH  12  13
ATOM     13  C   UNL     1       0.404  12.831  20.499  0.00  0.00    +0.000 C 
ATOM     14  O   UNL     1      -0.578  13.561  20.611  0.00  0.00    +0.000 OA
BRANCH  13  18
ATOM     15  C   UNL     1       4.027  14.513  18.805  0.00  0.00    +0.000 A 
ATOM     16  C   UNL     1       3.218  13.658  18.059  0.00  0.00    +0.000 A 
ATOM     17  C   UNL     1       2.057  13.108  18.609  0.00  0.00    +0.000 A 
ATOM     18  C   UNL     1       1.686  13.400  19.930  0.00  0.00    +0.000 A 
ATOM     19  C   UNL     1       2.521  14.238  20.699  0.00  0.00    +0.000 A 
ATOM     20  C   UNL     1       3.687  14.783  20.131  0.00  0.00    +0.000 A 
BRANCH  15  22
ATOM     21  C   UNL     1       6.016  15.822  18.860  0.00  0.00    +0.000 C 
ATOM     22  O   UNL     1       5.110  15.003  18.130  0.00  0.00    +0.000 OA
ENDBRANCH  15  22
BRANCH  19  23
ATOM     23  O   UNL     1       2.206  14.422  22.023  0.00  0.00    +0.000 OA
ATOM     24  C   UNL     1       1.783  15.727  22.402  0.00  0.00    +0.000 C 
ENDBRANCH  19  23
ENDBRANCH  13  18
ENDBRANCH  12  13
BRANCH  12  25
ATOM     25  C   UNL     1      -0.446  11.441  22.235  0.00  0.00    +0.000 C 
ATOM     26  N   UNL     1      -1.143  11.511  23.284  0.00  0.00    +0.000 NA
ENDBRANCH  12  25
ENDBRANCH   1  12
BRANCH   1  27
ATOM     27  S   UNL     1      -0.976  11.179  18.462  0.00  0.00    +0.000 S 
BRANCH  27  28
ATOM     28  C   UNL     1      -2.246   9.950  17.990  0.00  0.00    +0.000 C 
BRANCH  28  29
ATOM     29  C   UNL     1      -2.594  10.071  16.497  0.00  0.00    +0.000 C 
BRANCH  29  30
ATOM     30  N   UNL     1      -2.432  11.433  15.984  0.00  0.00    +0.000 NA
ATOM     31  H   UNL     1      -3.173  12.015  16.386  0.00  0.00    +0.000 HD
ATOM     32  H   UNL     1      -2.591  11.437  14.978  0.00  0.00    +0.000 HD
ENDBRANCH  29  30
ENDBRANCH  28  29
ENDBRANCH  27  28
ENDBRANCH   1  27
TORSDOF 13
ENDMDL
MODEL 5
REMARK VINA RESULT:      -6.0      0.870      1.808
REMARK  Name = 
REMARK  17 active torsions:
REMARK  status: ('A' for Active; 'I' for Inactive)
REMARK    1  A    between atoms: C_1  and  O_2
REMARK    2  A    between atoms: O_2  and  C_3
REMARK    3  A    between atoms: C_6  and  C_7
REMARK    4  A    between atoms: C_7  and  C_9
REMARK    5  A    between atoms: C_9  and  C_10
REMARK    6  A    between atoms: C_9  and  C_12
REMARK    7  A    between atoms: C_12  and  S_13
REMARK    8  A    between atoms: C_12  and  C_17
REMARK    9  A    between atoms: S_13  and  C_14
REMARK   10  A    between atoms: C_14  and  C_15
REMARK   11  A    between atoms: C_15  and  N_16
REMARK   12  A    between atoms: C_20  and  O_21
REMARK   13  A    between atoms: O_21  and  C_22
REMARK   14  A    between atoms: C_23  and  O_24
REMARK   15  A    between atoms: O_24  and  C_25
REMARK   16  A    between atoms: C_27  and  O_28
REMARK   17  A    between atoms: O_28  and  C_29
REMARK                            x       y       z     vdW  Elec       q    Type
REMARK                         _______ _______ _______ _____ _____    ______ ____
ROOT
ATOM      1  C   UNL     1       2.558   5.859  19.423  0.00  0.00    +0.000 C 
ENDROOT
BRANCH   1   2
ATOM      2  C   UNL     1       1.986   7.203  19.894  0.00  0.00    +0.000 A 
ATOM      3  C   UNL     1       1.619   7.453  21.223  0.00  0.00    +0.000 A 
ATOM      4  C   UNL     1       1.109   8.689  21.595  0.00  0.00    +0.000 A 
ATOM      5  C   UNL     1       0.902   9.705  20.659  0.00  0.00    +0.000 A 
ATOM      6  C   UNL     1       1.240   9.479  19.315  0.00  0.00    +0.000 A 
ATOM      7  C   UNL     1       1.804   8.242  18.961  0.00  0.00    +0.000 A 
BRANCH   5   8
ATOM      8  O   UNL     1       0.371  10.821  21.246  0.00  0.00    +0.000 OA
ATOM      9  C   UNL     1      -0.744  10.675  22.104  0.00  0.00    +0.000 C 
ENDBRANCH   5   8
BRANCH   6  10
ATOM     10  O   UNL     1       1.000  10.473  18.405  0.00  0.00    +0.000 OA
ATOM     11  C   UNL     1       1.928  11.548  18.317  0.00  0.00    +0.000 C 
ENDBRANCH   6  10
ENDBRANCH   1   2
BRANCH   1  12
ATOM     12  C   UNL     1       4.086   5.839  19.251  0.00  0.00    +0.000 C 
BRANCH  12  13
ATOM     13  C   UNL     1       4.676   4.472  18.830  0.00  0.00    +0.000 C 
ATOM     14  O   UNL     1       4.604   3.478  19.549  0.00  0.00    +0.000 OA
BRANCH  13  18
ATOM     15  C   UNL     1       6.466   4.201  14.887  0.00  0.00    +0.000 A 
ATOM     16  C   UNL     1       5.091   4.051  15.061  0.00  0.00    +0.000 A 
ATOM     17  C   UNL     1       4.517   4.127  16.332  0.00  0.00    +0.000 A 
ATOM     18  C   UNL     1       5.316   4.349  17.463  0.00  0.00    +0.000 A 
ATOM     19  C   UNL     1       6.713   4.468  17.295  0.00  0.00    +0.000 A 
ATOM     20  C   UNL     1       7.275   4.388  16.008  0.00  0.00    +0.000 A 
BRANCH  15  22
ATOM     21  C   UNL     1       7.735   5.180  13.125  0.00  0.00    +0.000 C 
ATOM     22  O   UNL     1       6.884   4.137  13.587  0.00  0.00    +0.000 OA
ENDBRANCH  15  22
BRANCH  19  23
ATOM     23  O   UNL     1       7.491   4.571  18.421  0.00  0.00    +0.000 OA
ATOM     24  C   UNL     1       7.925   5.878  18.779  0.00  0.00    +0.000 C 
ENDBRANCH  19  23
ENDBRANCH  13  18
ENDBRANCH  12  13
BRANCH  12  25
ATOM     25  C   UNL     1       4.554   6.743  18.123  0.00  0.00    +0.000 C 
ATOM     26  N   UNL     1       4.943   7.492  17.186  0.00  0.00    +0.000 NA
ENDBRANCH  12  25
ENDBRANCH   1  12
BRANCH   1  27
ATOM     27  S   UNL     1       1.918   4.503  20.563  0.00  0.00    +0.000 S 
BRANCH  27  28
ATOM     28  C   UNL     1       1.000   3.435  19.396  0.00  0.00    +0.000 C 
BRANCH  28  29
ATOM     29  C   UNL     1       1.595   2.017  19.370  0.00  0.00    +0.000 C 
BRANCH  29  30
ATOM     30  N   UNL     1       2.402   1.761  18.176  0.00  0.00    +0.000 NA
ATOM     31  H   UNL     1       2.115   0.858  17.785  0.00  0.00    +0.000 HD
ATOM     32  H   UNL     1       3.378   1.650  18.444  0.00  0.00    +0.000 HD
ENDBRANCH  29  30
ENDBRANCH  28  29
ENDBRANCH  27  28
ENDBRANCH   1  27
TORSDOF 13
ENDMDL
MODEL 6
REMARK VINA RESULT:      -6.0      2.149      6.643
REMARK  Name = 
REMARK  17 active torsions:
REMARK  status: ('A' for Active; 'I' for Inactive)
REMARK    1  A    between atoms: C_1  and  O_2
REMARK    2  A    between atoms: O_2  and  C_3
REMARK    3  A    between atoms: C_6  and  C_7
REMARK    4  A    between atoms: C_7  and  C_9
REMARK    5  A    between atoms: C_9  and  C_10
REMARK    6  A    between atoms: C_9  and  C_12
REMARK    7  A    between atoms: C_12  and  S_13
REMARK    8  A    between atoms: C_12  and  C_17
REMARK    9  A    between atoms: S_13  and  C_14
REMARK   10  A    between atoms: C_14  and  C_15
REMARK   11  A    between atoms: C_15  and  N_16
REMARK   12  A    between atoms: C_20  and  O_21
REMARK   13  A    between atoms: O_21  and  C_22
REMARK   14  A    between atoms: C_23  and  O_24
REMARK   15  A    between atoms: O_24  and  C_25
REMARK   16  A    between atoms: C_27  and  O_28
REMARK   17  A    between atoms: O_28  and  C_29
REMARK                            x       y       z     vdW  Elec       q    Type
REMARK                         _______ _______ _______ _____ _____    ______ ____
ROOT
ATOM      1  C   UNL     1       4.384   3.389  17.801  0.00  0.00    +0.000 C 
ENDROOT
BRANCH   1   2
ATOM      2  C   UNL     1       5.296   3.977  16.717  0.00  0.00    +0.000 A 
ATOM      3  C   UNL     1       5.401   3.434  15.429  0.00  0.00    +0.000 A 
ATOM      4  C   UNL     1       6.240   4.009  14.485  0.00  0.00    +0.000 A 
ATOM      5  C   UNL     1       7.039   5.113  14.794  0.00  0.00    +0.000 A 
ATOM      6  C   UNL     1       6.973   5.668  16.082  0.00  0.00    +0.000 A 
ATOM      7  C   UNL     1       6.081   5.109  17.012  0.00  0.00    +0.000 A 
BRANCH   5   8
ATOM      8  O   UNL     1       7.799   5.491  13.722  0.00  0.00    +0.000 OA
ATOM      9  C   UNL     1       7.533   4.913  12.459  0.00  0.00    +0.000 C 
ENDBRANCH   5   8
BRANCH   6  10
ATOM     10  O   UNL     1       7.787   6.728  16.378  0.00  0.00    +0.000 OA
ATOM     11  C   UNL     1       7.564   7.434  17.593  0.00  0.00    +0.000 C 
ENDBRANCH   6  10
ENDBRANCH   1   2
BRANCH   1  12
ATOM     12  C   UNL     1       4.601   3.973  19.207  0.00  0.00    +0.000 C 
BRANCH  12  13
ATOM     13  C   UNL     1       3.408   4.782  19.769  0.00  0.00    +0.000 C 
ATOM     14  O   UNL     1       2.725   4.375  20.706  0.00  0.00    +0.000 OA
BRANCH  13  18
ATOM     15  C   UNL     1       2.521   8.637  17.988  0.00  0.00    +0.000 A 
ATOM     16  C   UNL     1       3.501   7.808  17.447  0.00  0.00    +0.000 A 
ATOM     17  C   UNL     1       3.795   6.571  18.028  0.00  0.00    +0.000 A 
ATOM     18  C   UNL     1       3.110   6.142  19.175  0.00  0.00    +0.000 A 
ATOM     19  C   UNL     1       2.140   6.994  19.745  0.00  0.00    +0.000 A 
ATOM     20  C   UNL     1       1.858   8.237  19.149  0.00  0.00    +0.000 A 
BRANCH  15  22
ATOM     21  C   UNL     1       2.036  10.968  18.060  0.00  0.00    +0.000 C 
ATOM     22  O   UNL     1       2.316   9.800  17.298  0.00  0.00    +0.000 OA
ENDBRANCH  15  22
BRANCH  19  23
ATOM     23  O   UNL     1       1.562   6.611  20.929  0.00  0.00    +0.000 OA
ATOM     24  C   UNL     1       0.785   7.592  21.607  0.00  0.00    +0.000 C 
ENDBRANCH  19  23
ENDBRANCH  13  18
ENDBRANCH  12  13
BRANCH  12  25
ATOM     25  C   UNL     1       4.772   2.893  20.262  0.00  0.00    +0.000 C 
ATOM     26  N   UNL     1       4.915   1.998  21.139  0.00  0.00    +0.000 NA
ENDBRANCH  12  25
ENDBRANCH   1  12
BRANCH   1  27
ATOM     27  S   UNL     1       2.599   3.508  17.212  0.00  0.00    +0.000 S 
BRANCH  27  28
ATOM     28  C   UNL     1       1.802   2.155  18.150  0.00  0.00    +0.000 C 
BRANCH  28  29
ATOM     29  C   UNL     1       0.439   2.603  18.704  0.00  0.00    +0.000 C 
BRANCH  29  30
ATOM     30  N   UNL     1       0.460   2.828  20.150  0.00  0.00    +0.000 NA
ATOM     31  H   UNL     1      -0.213   3.571  20.367  0.00  0.00    +0.000 HD
ATOM     32  H   UNL     1       1.372   3.191  20.424  0.00  0.00    +0.000 HD
ENDBRANCH  29  30
ENDBRANCH  28  29
ENDBRANCH  27  28
ENDBRANCH   1  27
TORSDOF 13
ENDMDL
MODEL 7
REMARK VINA RESULT:      -6.0      1.986      2.298
REMARK  Name = 
REMARK  17 active torsions:
REMARK  status: ('A' for Active; 'I' for Inactive)
REMARK    1  A    between atoms: C_1  and  O_2
REMARK    2  A    between atoms: O_2  and  C_3
REMARK    3  A    between atoms: C_6  and  C_7
REMARK    4  A    between atoms: C_7  and  C_9
REMARK    5  A    between atoms: C_9  and  C_10
REMARK    6  A    between atoms: C_9  and  C_12
REMARK    7  A    between atoms: C_12  and  S_13
REMARK    8  A    between atoms: C_12  and  C_17
REMARK    9  A    between atoms: S_13  and  C_14
REMARK   10  A    between atoms: C_14  and  C_15
REMARK   11  A    between atoms: C_15  and  N_16
REMARK   12  A    between atoms: C_20  and  O_21
REMARK   13  A    between atoms: O_21  and  C_22
REMARK   14  A    between atoms: C_23  and  O_24
REMARK   15  A    between atoms: O_24  and  C_25
REMARK   16  A    between atoms: C_27  and  O_28
REMARK   17  A    between atoms: O_28  and  C_29
REMARK                            x       y       z     vdW  Elec       q    Type
REMARK                         _______ _______ _______ _____ _____    ______ ____
ROOT
ATOM      1  C   UNL     1       2.614   4.261  19.553  0.00  0.00    +0.000 C 
ENDROOT
BRANCH   1   2
ATOM      2  C   UNL     1       2.379   5.748  19.257  0.00  0.00    +0.000 A 
ATOM      3  C   UNL     1       2.555   6.311  17.986  0.00  0.00    +0.000 A 
ATOM      4  C   UNL     1       2.325   7.663  17.773  0.00  0.00    +0.000 A 
ATOM      5  C   UNL     1       1.956   8.514  18.818  0.00  0.00    +0.000 A 
ATOM      6  C   UNL     1       1.792   7.985  20.108  0.00  0.00    +0.000 A 
ATOM      7  C   UNL     1       1.977   6.606  20.299  0.00  0.00    +0.000 A 
BRANCH   5   8
ATOM      8  O   UNL     1       1.808   9.802  18.381  0.00  0.00    +0.000 OA
ATOM      9  C   UNL     1       0.503  10.322  18.223  0.00  0.00    +0.000 C 
ENDBRANCH   5   8
BRANCH   6  10
ATOM     10  O   UNL     1       1.464   8.838  21.127  0.00  0.00    +0.000 OA
ATOM     11  C   UNL     1       0.131   8.819  21.623  0.00  0.00    +0.000 C 
ENDBRANCH   6  10
ENDBRANCH   1   2
BRANCH   1  12
ATOM     12  C   UNL     1       3.872   3.669  18.898  0.00  0.00    +0.000 C 
BRANCH  12  13
ATOM     13  C   UNL     1       5.020   4.678  18.660  0.00  0.00    +0.000 C 
ATOM     14  O   UNL     1       5.461   5.390  19.559  0.00  0.00    +0.000 OA
BRANCH  13  18
ATOM     15  C   UNL     1       6.744   4.874  14.684  0.00  0.00    +0.000 A 
ATOM     16  C   UNL     1       6.066   3.735  15.114  0.00  0.00    +0.000 A 
ATOM     17  C   UNL     1       5.521   3.668  16.399  0.00  0.00    +0.000 A 
ATOM     18  C   UNL     1       5.652   4.747  17.287  0.00  0.00    +0.000 A 
ATOM     19  C   UNL     1       6.368   5.889  16.865  0.00  0.00    +0.000 A 
ATOM     20  C   UNL     1       6.911   5.939  15.569  0.00  0.00    +0.000 A 
BRANCH  15  22
ATOM     21  C   UNL     1       8.230   5.716  13.023  0.00  0.00    +0.000 C 
ATOM     22  O   UNL     1       7.194   4.813  13.394  0.00  0.00    +0.000 OA
ENDBRANCH  15  22
BRANCH  19  23
ATOM     23  O   UNL     1       6.585   6.887  17.782  0.00  0.00    +0.000 OA
ATOM     24  C   UNL     1       7.779   7.647  17.627  0.00  0.00    +0.000 C 
ENDBRANCH  19  23
ENDBRANCH  13  18
ENDBRANCH  12  13
BRANCH  12  25
ATOM     25  C   UNL     1       4.547   2.628  19.775  0.00  0.00    +0.000 C 
ATOM     26  N   UNL     1       5.107   1.765  20.504  0.00  0.00    +0.000 NA
ENDBRANCH  12  25
ENDBRANCH   1  12
BRANCH   1  27
ATOM     27  S   UNL     1       2.553   4.004  21.418  0.00  0.00    +0.000 S 
BRANCH  27  28
ATOM     28  C   UNL     1       1.411   2.582  21.564  0.00  0.00    +0.000 C 
BRANCH  28  29
ATOM     29  C   UNL     1       0.988   2.076  20.174  0.00  0.00    +0.000 C 
BRANCH  29  30
ATOM     30  N   UNL     1      -0.089   2.871  19.583  0.00  0.00    +0.000 NA
ATOM     31  H   UNL     1      -0.682   3.220  20.343  0.00  0.00    +0.000 HD
ATOM     32  H   UNL     1      -0.686   2.267  19.020  0.00  0.00    +0.000 HD
ENDBRANCH  29  30
ENDBRANCH  28  29
ENDBRANCH  27  28
ENDBRANCH   1  27
TORSDOF 13
ENDMDL
MODEL 8
REMARK VINA RESULT:      -5.9      3.622      9.193
REMARK  Name = 
REMARK  17 active torsions:
REMARK  status: ('A' for Active; 'I' for Inactive)
REMARK    1  A    between atoms: C_1  and  O_2
REMARK    2  A    between atoms: O_2  and  C_3
REMARK    3  A    between atoms: C_6  and  C_7
REMARK    4  A    between atoms: C_7  and  C_9
REMARK    5  A    between atoms: C_9  and  C_10
REMARK    6  A    between atoms: C_9  and  C_12
REMARK    7  A    between atoms: C_12  and  S_13
REMARK    8  A    between atoms: C_12  and  C_17
REMARK    9  A    between atoms: S_13  and  C_14
REMARK   10  A    between atoms: C_14  and  C_15
REMARK   11  A    between atoms: C_15  and  N_16
REMARK   12  A    between atoms: C_20  and  O_21
REMARK   13  A    between atoms: O_21  and  C_22
REMARK   14  A    between atoms: C_23  and  O_24
REMARK   15  A    between atoms: O_24  and  C_25
REMARK   16  A    between atoms: C_27  and  O_28
REMARK   17  A    between atoms: O_28  and  C_29
REMARK                            x       y       z     vdW  Elec       q    Type
REMARK                         _______ _______ _______ _____ _____    ______ ____
ROOT
ATOM      1  C   UNL     1       1.071   8.602  20.445  0.00  0.00    +0.000 C 
ENDROOT
BRANCH   1   2
ATOM      2  C   UNL     1       1.752   7.249  20.201  0.00  0.00    +0.000 A 
ATOM      3  C   UNL     1       1.336   6.062  20.818  0.00  0.00    +0.000 A 
ATOM      4  C   UNL     1       1.986   4.864  20.559  0.00  0.00    +0.000 A 
ATOM      5  C   UNL     1       3.099   4.805  19.715  0.00  0.00    +0.000 A 
ATOM      6  C   UNL     1       3.554   5.980  19.098  0.00  0.00    +0.000 A 
ATOM      7  C   UNL     1       2.855   7.177  19.328  0.00  0.00    +0.000 A 
BRANCH   5   8
ATOM      8  O   UNL     1       3.589   3.531  19.627  0.00  0.00    +0.000 OA
ATOM      9  C   UNL     1       2.849   2.564  18.906  0.00  0.00    +0.000 C 
ENDBRANCH   5   8
BRANCH   6  10
ATOM     10  O   UNL     1       4.665   5.911  18.301  0.00  0.00    +0.000 OA
ATOM     11  C   UNL     1       4.490   5.644  16.915  0.00  0.00    +0.000 C 
ENDBRANCH   6  10
ENDBRANCH   1   2
BRANCH   1  12
ATOM     12  C   UNL     1       0.564   9.302  19.174  0.00  0.00    +0.000 C 
BRANCH  12  13
ATOM     13  C   UNL     1      -0.136  10.661  19.414  0.00  0.00    +0.000 C 
ATOM     14  O   UNL     1       0.431  11.601  19.967  0.00  0.00    +0.000 OA
BRANCH  13  18
ATOM     15  C   UNL     1      -4.204  11.119  17.976  0.00  0.00    +0.000 A 
ATOM     16  C   UNL     1      -3.360  10.148  17.439  0.00  0.00    +0.000 A 
ATOM     17  C   UNL     1      -2.046  10.008  17.895  0.00  0.00    +0.000 A 
ATOM     18  C   UNL     1      -1.547  10.850  18.899  0.00  0.00    +0.000 A 
ATOM     19  C   UNL     1      -2.388  11.857  19.421  0.00  0.00    +0.000 A 
ATOM     20  C   UNL     1      -3.708  11.985  18.951  0.00  0.00    +0.000 A 
BRANCH  15  22
ATOM     21  C   UNL     1      -6.542  10.888  18.367  0.00  0.00    +0.000 C 
ATOM     22  O   UNL     1      -5.470  11.118  17.461  0.00  0.00    +0.000 OA
ENDBRANCH  15  22
BRANCH  19  23
ATOM     23  O   UNL     1      -1.850  12.745  20.320  0.00  0.00    +0.000 OA
ATOM     24  C   UNL     1      -2.652  13.869  20.665  0.00  0.00    +0.000 C 
ENDBRANCH  19  23
ENDBRANCH  13  18
ENDBRANCH  12  13
BRANCH  12  25
ATOM     25  C   UNL     1       1.694   9.693  18.237  0.00  0.00    +0.000 C 
ATOM     26  N   UNL     1       2.633  10.017  17.460  0.00  0.00    +0.000 NA
ENDBRANCH  12  25
ENDBRANCH   1  12
BRANCH   1  27
ATOM     27  S   UNL     1      -0.263   8.374  21.755  0.00  0.00    +0.000 S 
BRANCH  27  28
ATOM     28  C   UNL     1       0.179   9.667  22.971  0.00  0.00    +0.000 C 
BRANCH  28  29
ATOM     29  C   UNL     1      -0.965  10.682  23.129  0.00  0.00    +0.000 C 
BRANCH  29  30
ATOM     30  N   UNL     1      -0.547  12.058  22.850  0.00  0.00    +0.000 NA
ATOM     31  H   UNL     1      -0.032  12.060  21.964  0.00  0.00    +0.000 HD
ATOM     32  H   UNL     1       0.118  12.360  23.560  0.00  0.00    +0.000 HD
ENDBRANCH  29  30
ENDBRANCH  28  29
ENDBRANCH  27  28
ENDBRANCH   1  27
TORSDOF 13
ENDMDL
MODEL 9
REMARK VINA RESULT:      -5.9      3.753      8.890
REMARK  Name = 
REMARK  17 active torsions:
REMARK  status: ('A' for Active; 'I' for Inactive)
REMARK    1  A    between atoms: C_1  and  O_2
REMARK    2  A    between atoms: O_2  and  C_3
REMARK    3  A    between atoms: C_6  and  C_7
REMARK    4  A    between atoms: C_7  and  C_9
REMARK    5  A    between atoms: C_9  and  C_10
REMARK    6  A    between atoms: C_9  and  C_12
REMARK    7  A    between atoms: C_12  and  S_13
REMARK    8  A    between atoms: C_12  and  C_17
REMARK    9  A    between atoms: S_13  and  C_14
REMARK   10  A    between atoms: C_14  and  C_15
REMARK   11  A    between atoms: C_15  and  N_16
REMARK   12  A    between atoms: C_20  and  O_21
REMARK   13  A    between atoms: O_21  and  C_22
REMARK   14  A    between atoms: C_23  and  O_24
REMARK   15  A    between atoms: O_24  and  C_25
REMARK   16  A    between atoms: C_27  and  O_28
REMARK   17  A    between atoms: O_28  and  C_29
REMARK                            x       y       z     vdW  Elec       q    Type
REMARK                         _______ _______ _______ _____ _____    ______ ____
ROOT
ATOM      1  C   UNL     1       0.493   9.536  19.788  0.00  0.00    +0.000 C 
ENDROOT
BRANCH   1   2
ATOM      2  C   UNL     1       1.496   8.458  19.359  0.00  0.00    +0.000 A 
ATOM      3  C   UNL     1       2.239   8.535  18.173  0.00  0.00    +0.000 A 
ATOM      4  C   UNL     1       3.137   7.533  17.833  0.00  0.00    +0.000 A 
ATOM      5  C   UNL     1       3.299   6.398  18.632  0.00  0.00    +0.000 A 
ATOM      6  C   UNL     1       2.554   6.280  19.816  0.00  0.00    +0.000 A 
ATOM      7  C   UNL     1       1.688   7.326  20.174  0.00  0.00    +0.000 A 
BRANCH   5   8
ATOM      8  O   UNL     1       4.214   5.537  18.091  0.00  0.00    +0.000 OA
ATOM      9  C   UNL     1       3.749   4.420  17.359  0.00  0.00    +0.000 C 
ENDBRANCH   5   8
BRANCH   6  10
ATOM     10  O   UNL     1       2.700   5.146  20.569  0.00  0.00    +0.000 OA
ATOM     11  C   UNL     1       1.583   4.277  20.708  0.00  0.00    +0.000 C 
ENDBRANCH   6  10
ENDBRANCH   1   2
BRANCH   1  12
ATOM     12  C   UNL     1       1.008  10.495  20.874  0.00  0.00    +0.000 C 
BRANCH  12  13
ATOM     13  C   UNL     1       0.501  11.952  20.751  0.00  0.00    +0.000 C 
ATOM     14  O   UNL     1      -0.647  12.272  21.051  0.00  0.00    +0.000 OA
BRANCH  13  18
ATOM     15  C   UNL     1       3.226  15.034  19.375  0.00  0.00    +0.000 A 
ATOM     16  C   UNL     1       3.040  13.864  18.641  0.00  0.00    +0.000 A 
ATOM     17  C   UNL     1       2.170  12.867  19.091  0.00  0.00    +0.000 A 
ATOM     18  C   UNL     1       1.471  13.020  20.297  0.00  0.00    +0.000 A 
ATOM     19  C   UNL     1       1.684  14.189  21.060  0.00  0.00    +0.000 A 
ATOM     20  C   UNL     1       2.563  15.183  20.594  0.00  0.00    +0.000 A 
BRANCH  15  22
ATOM     21  C   UNL     1       3.572  16.711  17.719  0.00  0.00    +0.000 C 
ATOM     22  O   UNL     1       4.077  15.936  18.800  0.00  0.00    +0.000 OA
ENDBRANCH  15  22
BRANCH  19  23
ATOM     23  O   UNL     1       1.082  14.274  22.291  0.00  0.00    +0.000 OA
ATOM     24  C   UNL     1       0.223  15.389  22.506  0.00  0.00    +0.000 C 
ENDBRANCH  19  23
ENDBRANCH  13  18
ENDBRANCH  12  13
BRANCH  12  25
ATOM     25  C   UNL     1       0.525  10.111  22.263  0.00  0.00    +0.000 C 
ATOM     26  N   UNL     1       0.124   9.795  23.416  0.00  0.00    +0.000 NA
ENDBRANCH  12  25
ENDBRANCH   1  12
BRANCH   1  27
ATOM     27  S   UNL     1      -0.133  10.420  18.248  0.00  0.00    +0.000 S 
BRANCH  27  28
ATOM     28  C   UNL     1      -1.937  10.140  18.361  0.00  0.00    +0.000 C 
BRANCH  28  29
ATOM     29  C   UNL     1      -2.712  11.313  17.736  0.00  0.00    +0.000 C 
BRANCH  29  30
ATOM     30  N   UNL     1      -2.273  11.625  16.375  0.00  0.00    +0.000 NA
ATOM     31  H   UNL     1      -2.278  10.755  15.832  0.00  0.00    +0.000 HD
ATOM     32  H   UNL     1      -1.302  11.934  16.395  0.00  0.00    +0.000 HD
ENDBRANCH  29  30
ENDBRANCH  28  29
ENDBRANCH  27  28
ENDBRANCH   1  27
TORSDOF 13
ENDMDL
