MODEL 1
REMARK VINA RESULT:      -7.6      0.000      0.000
REMARK  Name = 
REMARK  9 active torsions:
REMARK  status: ('A' for Active; 'I' for Inactive)
REMARK    1  A    between atoms: N_1  and  C_2
REMARK    2  A    between atoms: C_4  and  C_5
REMARK    3  A    between atoms: N_10  and  C_11
REMARK    4  A    between atoms: C_11  and  C_12
REMARK    5  A    between atoms: C_12  and  C_13
REMARK    6  A    between atoms: C_13  and  C_14
REMARK    7  A    between atoms: C_14  and  C_15
REMARK    8  A    between atoms: C_15  and  C_16
REMARK    9  A    between atoms: N_18  and  O_19
REMARK                            x       y       z     vdW  Elec       q    Type
REMARK                         _______ _______ _______ _____ _____    ______ ____
ROOT
ATOM      1  C   UNL     1       8.249   8.603  18.120  0.00  0.00    +0.000 C 
ATOM      2  O   UNL     1       7.716   8.501  17.017  0.00  0.00    +0.000 OA
ATOM      3  N   UNL     1       8.398   7.545  19.000  0.00  0.00    +0.000 N 
ATOM      4  C   UNL     1       8.056   6.231  18.779  0.00  0.00    +0.000 C 
ATOM      5  O   UNL     1       8.337   5.372  19.609  0.00  0.00    +0.000 OA
ATOM      6  N   UNL     1       7.415   5.974  17.601  0.00  0.00    +0.000 N 
ATOM      7  H   UNL     1       8.911   7.667  19.857  0.00  0.00    +0.000 HD
ATOM      8  H   UNL     1       7.262   6.773  16.987  0.00  0.00    +0.000 HD
ENDROOT
BRANCH   1  11
ATOM      9  C   UNL     1       9.393  12.251  18.116  0.00  0.00    +0.000 A 
ATOM     10  C   UNL     1       8.787  11.057  17.691  0.00  0.00    +0.000 A 
ATOM     11  C   UNL     1       8.782   9.931  18.524  0.00  0.00    +0.000 A 
ATOM     12  C   UNL     1       9.353  10.011  19.803  0.00  0.00    +0.000 A 
ATOM     13  C   UNL     1       9.910  11.203  20.257  0.00  0.00    +0.000 A 
ATOM     14  C   UNL     1       9.916  12.319  19.424  0.00  0.00    +0.000 A 
ATOM     15 CL   UNL     1      10.631  13.778  20.018  0.00  0.00    +0.000 Cl
BRANCH   9  16
ATOM     16  N   UNL     1       9.279  13.404  17.316  0.00  0.00    +0.000 N 
ATOM     17  H   UNL     1       8.393  13.892  17.383  0.00  0.00    +0.000 HD
ATOM     18  H   UNL     1       9.554  13.233  16.347  0.00  0.00    +0.000 HD
ENDBRANCH   9  16
ENDBRANCH   1  11
BRANCH   6  19
ATOM     19  C   UNL     1       7.012   4.656  17.175  0.00  0.00    +0.000 C 
BRANCH  19  20
ATOM     20  C   UNL     1       5.859   4.689  16.170  0.00  0.00    +0.000 C 
BRANCH  20  21
ATOM     21  C   UNL     1       4.488   4.909  16.822  0.00  0.00    +0.000 C 
BRANCH  21  22
ATOM     22  C   UNL     1       3.903   3.589  17.334  0.00  0.00    +0.000 C 
BRANCH  22  23
ATOM     23  C   UNL     1       3.088   3.781  18.613  0.00  0.00    +0.000 C 
BRANCH  23  24
ATOM     24  C   UNL     1       3.608   2.920  19.747  0.00  0.00    +0.000 C 
ATOM     25  O   UNL     1       3.035   2.761  20.821  0.00  0.00    +0.000 OA
ATOM     26  N   UNL     1       4.806   2.312  19.472  0.00  0.00    +0.000 N 
ATOM     27  H   UNL     1       5.340   2.411  18.616  0.00  0.00    +0.000 HD
BRANCH  26  28
ATOM     28  O   UNL     1       5.350   1.500  20.492  0.00  0.00    +0.000 OA
ATOM     29  H   UNL     1       5.043   0.604  20.228  0.00  0.00    +0.000 HD
ENDBRANCH  26  28
ENDBRANCH  23  24
ENDBRANCH  22  23
ENDBRANCH  21  22
ENDBRANCH  20  21
ENDBRANCH  19  20
ENDBRANCH   6  19
TORSDOF 9
ENDMDL
MODEL 2
REMARK VINA RESULT:      -7.5      5.601      6.595
REMARK  Name = 
REMARK  9 active torsions:
REMARK  status: ('A' for Active; 'I' for Inactive)
REMARK    1  A    between atoms: N_1  and  C_2
REMARK    2  A    between atoms: C_4  and  C_5
REMARK    3  A    between atoms: N_10  and  C_11
REMARK    4  A    between atoms: C_11  and  C_12
REMARK    5  A    between atoms: C_12  and  C_13
REMARK    6  A    between atoms: C_13  and  C_14
REMARK    7  A    between atoms: C_14  and  C_15
REMARK    8  A    between atoms: C_15  and  C_16
REMARK    9  A    between atoms: N_18  and  O_19
REMARK                            x       y       z     vdW  Elec       q    Type
REMARK                         _______ _______ _______ _____ _____    ______ ____
ROOT
ATOM      1  C   UNL     1       5.127   4.820  16.740  0.00  0.00    +0.000 C 
ATOM      2  O   UNL     1       4.273   5.698  16.853  0.00  0.00    +0.000 OA
ATOM      3  N   UNL     1       5.478   3.956  17.763  0.00  0.00    +0.000 N 
ATOM      4  C   UNL     1       4.908   3.880  19.013  0.00  0.00    +0.000 C 
ATOM      5  O   UNL     1       5.248   2.995  19.792  0.00  0.00    +0.000 OA
ATOM      6  N   UNL     1       3.965   4.826  19.294  0.00  0.00    +0.000 N 
ATOM      7  H   UNL     1       6.126   3.205  17.592  0.00  0.00    +0.000 HD
ATOM      8  H   UNL     1       3.757   5.492  18.552  0.00  0.00    +0.000 HD
ENDROOT
BRANCH   1  11
ATOM      9  C   UNL     1       7.499   5.216  13.768  0.00  0.00    +0.000 A 
ATOM     10  C   UNL     1       6.971   5.351  15.063  0.00  0.00    +0.000 A 
ATOM     11  C   UNL     1       5.806   4.664  15.426  0.00  0.00    +0.000 A 
ATOM     12  C   UNL     1       5.186   3.809  14.502  0.00  0.00    +0.000 A 
ATOM     13  C   UNL     1       5.727   3.627  13.233  0.00  0.00    +0.000 A 
ATOM     14  C   UNL     1       6.885   4.314  12.874  0.00  0.00    +0.000 A 
ATOM     15 CL   UNL     1       7.520   4.072  11.284  0.00  0.00    +0.000 Cl
BRANCH   9  16
ATOM     16  N   UNL     1       8.735   5.817  13.462  0.00  0.00    +0.000 N 
ATOM     17  H   UNL     1       9.452   5.184  13.125  0.00  0.00    +0.000 HD
ATOM     18  H   UNL     1       9.073   6.416  14.216  0.00  0.00    +0.000 HD
ENDBRANCH   9  16
ENDBRANCH   1  11
BRANCH   6  19
ATOM     19  C   UNL     1       3.232   4.886  20.536  0.00  0.00    +0.000 C 
BRANCH  19  20
ATOM     20  C   UNL     1       1.821   5.450  20.360  0.00  0.00    +0.000 C 
BRANCH  20  21
ATOM     21  C   UNL     1       0.717   4.405  20.565  0.00  0.00    +0.000 C 
BRANCH  21  22
ATOM     22  C   UNL     1       1.253   2.988  20.347  0.00  0.00    +0.000 C 
BRANCH  22  23
ATOM     23  C   UNL     1       0.881   2.440  18.970  0.00  0.00    +0.000 C 
BRANCH  23  24
ATOM     24  C   UNL     1       2.099   2.269  18.084  0.00  0.00    +0.000 C 
ATOM     25  O   UNL     1       2.323   2.926  17.070  0.00  0.00    +0.000 OA
ATOM     26  N   UNL     1       2.960   1.291  18.514  0.00  0.00    +0.000 N 
ATOM     27  H   UNL     1       2.831   0.702  19.329  0.00  0.00    +0.000 HD
BRANCH  26  28
ATOM     28  O   UNL     1       4.112   1.075  17.727  0.00  0.00    +0.000 OA
ATOM     29  H   UNL     1       3.743   0.616  16.940  0.00  0.00    +0.000 HD
ENDBRANCH  26  28
ENDBRANCH  23  24
ENDBRANCH  22  23
ENDBRANCH  21  22
ENDBRANCH  20  21
ENDBRANCH  19  20
ENDBRANCH   6  19
TORSDOF 9
ENDMDL
MODEL 3
REMARK VINA RESULT:      -7.5      5.896      6.848
REMARK  Name = 
REMARK  9 active torsions:
REMARK  status: ('A' for Active; 'I' for Inactive)
REMARK    1  A    between atoms: N_1  and  C_2
REMARK    2  A    between atoms: C_4  and  C_5
REMARK    3  A    between atoms: N_10  and  C_11
REMARK    4  A    between atoms: C_11  and  C_12
REMARK    5  A    between atoms: C_12  and  C_13
REMARK    6  A    between atoms: C_13  and  C_14
REMARK    7  A    between atoms: C_14  and  C_15
REMARK    8  A    between atoms: C_15  and  C_16
REMARK    9  A    between atoms: N_18  and  O_19
REMARK                            x       y       z     vdW  Elec       q    Type
REMARK                         _______ _______ _______ _____ _____    ______ ____
ROOT
ATOM      1  C   UNL     1       2.023   7.801  19.340  0.00  0.00    +0.000 C 
ATOM      2  O   UNL     1       2.124   8.020  18.134  0.00  0.00    +0.000 OA
ATOM      3  N   UNL     1       2.637   6.737  19.979  0.00  0.00    +0.000 N 
ATOM      4  C   UNL     1       3.493   5.817  19.418  0.00  0.00    +0.000 C 
ATOM      5  O   UNL     1       4.050   4.983  20.124  0.00  0.00    +0.000 OA
ATOM      6  N   UNL     1       3.669   5.918  18.068  0.00  0.00    +0.000 N 
ATOM      7  H   UNL     1       2.585   6.649  20.981  0.00  0.00    +0.000 HD
ATOM      8  H   UNL     1       3.167   6.670  17.601  0.00  0.00    +0.000 HD
ENDROOT
BRANCH   1  11
ATOM      9  C   UNL     1       0.078   9.429  22.201  0.00  0.00    +0.000 A 
ATOM     10  C   UNL     1       0.927   8.541  21.519  0.00  0.00    +0.000 A 
ATOM     11  C   UNL     1       1.213   8.739  20.161  0.00  0.00    +0.000 A 
ATOM     12  C   UNL     1       0.676   9.849  19.492  0.00  0.00    +0.000 A 
ATOM     13  C   UNL     1      -0.126  10.764  20.169  0.00  0.00    +0.000 A 
ATOM     14  C   UNL     1      -0.410  10.563  21.518  0.00  0.00    +0.000 A 
ATOM     15 CL   UNL     1      -1.420  11.714  22.321  0.00  0.00    +0.000 Cl
BRANCH   9  16
ATOM     16  N   UNL     1      -0.098   9.283  23.590  0.00  0.00    +0.000 N 
ATOM     17  H   UNL     1       0.522   9.843  24.166  0.00  0.00    +0.000 HD
ATOM     18  H   UNL     1      -0.115   8.304  23.879  0.00  0.00    +0.000 HD
ENDBRANCH   9  16
ENDBRANCH   1  11
BRANCH   6  19
ATOM     19  C   UNL     1       4.554   5.068  17.308  0.00  0.00    +0.000 C 
BRANCH  19  20
ATOM     20  C   UNL     1       4.081   3.614  17.264  0.00  0.00    +0.000 C 
BRANCH  20  21
ATOM     21  C   UNL     1       2.554   3.470  17.256  0.00  0.00    +0.000 C 
BRANCH  21  22
ATOM     22  C   UNL     1       2.117   2.203  17.996  0.00  0.00    +0.000 C 
BRANCH  22  23
ATOM     23  C   UNL     1       0.841   2.424  18.807  0.00  0.00    +0.000 C 
BRANCH  23  24
ATOM     24  C   UNL     1       1.105   3.224  20.067  0.00  0.00    +0.000 C 
ATOM     25  O   UNL     1       0.584   4.304  20.331  0.00  0.00    +0.000 OA
ATOM     26  N   UNL     1       2.001   2.629  20.919  0.00  0.00    +0.000 N 
ATOM     27  H   UNL     1       2.479   1.749  20.759  0.00  0.00    +0.000 HD
BRANCH  26  28
ATOM     28  O   UNL     1       2.297   3.326  22.110  0.00  0.00    +0.000 OA
ATOM     29  H   UNL     1       2.875   2.688  22.586  0.00  0.00    +0.000 HD
ENDBRANCH  26  28
ENDBRANCH  23  24
ENDBRANCH  22  23
ENDBRANCH  21  22
ENDBRANCH  20  21
ENDBRANCH  19  20
ENDBRANCH   6  19
TORSDOF 9
ENDMDL
MODEL 4
REMARK VINA RESULT:      -7.5      5.330      7.036
REMARK  Name = 
REMARK  9 active torsions:
REMARK  status: ('A' for Active; 'I' for Inactive)
REMARK    1  A    between atoms: N_1  and  C_2
REMARK    2  A    between atoms: C_4  and  C_5
REMARK    3  A    between atoms: N_10  and  C_11
REMARK    4  A    between atoms: C_11  and  C_12
REMARK    5  A    between atoms: C_12  and  C_13
REMARK    6  A    between atoms: C_13  and  C_14
REMARK    7  A    between atoms: C_14  and  C_15
REMARK    8  A    between atoms: C_15  and  C_16
REMARK    9  A    between atoms: N_18  and  O_19
REMARK                            x       y       z     vdW  Elec       q    Type
REMARK                         _______ _______ _______ _____ _____    ______ ____
ROOT
ATOM      1  C   UNL     1       1.966   7.790  19.579  0.00  0.00    +0.000 C 
ATOM      2  O   UNL     1       2.388   8.130  18.474  0.00  0.00    +0.000 OA
ATOM      3  N   UNL     1       2.096   6.509  20.087  0.00  0.00    +0.000 N 
ATOM      4  C   UNL     1       2.756   5.451  19.506  0.00  0.00    +0.000 C 
ATOM      5  O   UNL     1       2.883   4.394  20.114  0.00  0.00    +0.000 OA
ATOM      6  N   UNL     1       3.245   5.674  18.251  0.00  0.00    +0.000 N 
ATOM      7  H   UNL     1       1.803   6.306  21.029  0.00  0.00    +0.000 HD
ATOM      8  H   UNL     1       3.093   6.605  17.865  0.00  0.00    +0.000 HD
ENDROOT
BRANCH   1  11
ATOM      9  C   UNL     1       0.191   9.587  22.448  0.00  0.00    +0.000 A 
ATOM     10  C   UNL     1       0.899   8.596  21.748  0.00  0.00    +0.000 A 
ATOM     11  C   UNL     1       1.298   8.815  20.423  0.00  0.00    +0.000 A 
ATOM     12  C   UNL     1       1.020  10.045  19.808  0.00  0.00    +0.000 A 
ATOM     13  C   UNL     1       0.364  11.055  20.507  0.00  0.00    +0.000 A 
ATOM     14  C   UNL     1      -0.034  10.831  21.824  0.00  0.00    +0.000 A 
ATOM     15 CL   UNL     1      -0.858  12.104  22.655  0.00  0.00    +0.000 Cl
BRANCH   9  16
ATOM     16  N   UNL     1      -0.093   9.396  23.814  0.00  0.00    +0.000 N 
ATOM     17  H   UNL     1      -0.161   8.428  24.110  0.00  0.00    +0.000 HD
ATOM     18  H   UNL     1      -0.889   9.952  24.127  0.00  0.00    +0.000 HD
ENDBRANCH   9  16
ENDBRANCH   1  11
BRANCH   6  19
ATOM     19  C   UNL     1       3.995   4.700  17.495  0.00  0.00    +0.000 C 
BRANCH  19  20
ATOM     20  C   UNL     1       4.943   5.344  16.482  0.00  0.00    +0.000 C 
BRANCH  20  21
ATOM     21  C   UNL     1       6.064   4.407  16.015  0.00  0.00    +0.000 C 
BRANCH  21  22
ATOM     22  C   UNL     1       7.326   4.593  16.862  0.00  0.00    +0.000 C 
BRANCH  22  23
ATOM     23  C   UNL     1       7.274   5.873  17.696  0.00  0.00    +0.000 C 
BRANCH  23  24
ATOM     24  C   UNL     1       7.202   5.576  19.180  0.00  0.00    +0.000 C 
ATOM     25  O   UNL     1       6.160   5.496  19.826  0.00  0.00    +0.000 OA
ATOM     26  N   UNL     1       8.429   5.398  19.767  0.00  0.00    +0.000 N 
ATOM     27  H   UNL     1       9.326   5.465  19.300  0.00  0.00    +0.000 HD
BRANCH  26  28
ATOM     28  O   UNL     1       8.432   5.126  21.152  0.00  0.00    +0.000 OA
ATOM     29  H   UNL     1       8.946   4.289  21.198  0.00  0.00    +0.000 HD
ENDBRANCH  26  28
ENDBRANCH  23  24
ENDBRANCH  22  23
ENDBRANCH  21  22
ENDBRANCH  20  21
ENDBRANCH  19  20
ENDBRANCH   6  19
TORSDOF 9
ENDMDL
MODEL 5
REMARK VINA RESULT:      -7.4      4.852      6.723
REMARK  Name = 
REMARK  9 active torsions:
REMARK  status: ('A' for Active; 'I' for Inactive)
REMARK    1  A    between atoms: N_1  and  C_2
REMARK    2  A    between atoms: C_4  and  C_5
REMARK    3  A    between atoms: N_10  and  C_11
REMARK    4  A    between atoms: C_11  and  C_12
REMARK    5  A    between atoms: C_12  and  C_13
REMARK    6  A    between atoms: C_13  and  C_14
REMARK    7  A    between atoms: C_14  and  C_15
REMARK    8  A    between atoms: C_15  and  C_16
REMARK    9  A    between atoms: N_18  and  O_19
REMARK                            x       y       z     vdW  Elec       q    Type
REMARK                         _______ _______ _______ _____ _____    ______ ____
ROOT
ATOM      1  C   UNL     1       2.305   7.124  19.016  0.00  0.00    +0.000 C 
ATOM      2  O   UNL     1       2.731   7.331  17.881  0.00  0.00    +0.000 OA
ATOM      3  N   UNL     1       2.387   5.898  19.653  0.00  0.00    +0.000 N 
ATOM      4  C   UNL     1       2.999   4.759  19.179  0.00  0.00    +0.000 C 
ATOM      5  O   UNL     1       3.088   3.765  19.893  0.00  0.00    +0.000 OA
ATOM      6  N   UNL     1       3.485   4.832  17.906  0.00  0.00    +0.000 N 
ATOM      7  H   UNL     1       2.094   5.804  20.611  0.00  0.00    +0.000 HD
ATOM      8  H   UNL     1       3.368   5.724  17.427  0.00  0.00    +0.000 HD
ENDROOT
BRANCH   1  11
ATOM      9  C   UNL     1       0.714   9.304  21.724  0.00  0.00    +0.000 A 
ATOM     10  C   UNL     1       1.383   8.224  21.121  0.00  0.00    +0.000 A 
ATOM     11  C   UNL     1       1.686   8.257  19.754  0.00  0.00    +0.000 A 
ATOM     12  C   UNL     1       1.353   9.388  18.994  0.00  0.00    +0.000 A 
ATOM     13  C   UNL     1       0.737  10.485  19.590  0.00  0.00    +0.000 A 
ATOM     14  C   UNL     1       0.434  10.448  20.949  0.00  0.00    +0.000 A 
ATOM     15 CL   UNL     1      -0.345  11.824  21.650  0.00  0.00    +0.000 Cl
BRANCH   9  16
ATOM     16  N   UNL     1       0.528   9.305  23.119  0.00  0.00    +0.000 N 
ATOM     17  H   UNL     1       1.300   9.681  23.659  0.00  0.00    +0.000 HD
ATOM     18  H   UNL     1       0.217   8.398  23.471  0.00  0.00    +0.000 HD
ENDBRANCH   9  16
ENDBRANCH   1  11
BRANCH   6  19
ATOM     19  C   UNL     1       4.189   3.756  17.251  0.00  0.00    +0.000 C 
BRANCH  19  20
ATOM     20  C   UNL     1       5.443   4.233  16.516  0.00  0.00    +0.000 C 
BRANCH  20  21
ATOM     21  C   UNL     1       5.371   5.701  16.078  0.00  0.00    +0.000 C 
BRANCH  21  22
ATOM     22  C   UNL     1       6.104   6.609  17.069  0.00  0.00    +0.000 C 
BRANCH  22  23
ATOM     23  C   UNL     1       7.355   5.941  17.641  0.00  0.00    +0.000 C 
BRANCH  23  24
ATOM     24  C   UNL     1       7.198   5.619  19.113  0.00  0.00    +0.000 C 
ATOM     25  O   UNL     1       6.121   5.466  19.684  0.00  0.00    +0.000 OA
ATOM     26  N   UNL     1       8.390   5.508  19.783  0.00  0.00    +0.000 N 
ATOM     27  H   UNL     1       9.312   5.636  19.380  0.00  0.00    +0.000 HD
BRANCH  26  28
ATOM     28  O   UNL     1       8.315   5.216  21.162  0.00  0.00    +0.000 OA
ATOM     29  H   UNL     1       8.623   4.282  21.193  0.00  0.00    +0.000 HD
ENDBRANCH  26  28
ENDBRANCH  23  24
ENDBRANCH  22  23
ENDBRANCH  21  22
ENDBRANCH  20  21
ENDBRANCH  19  20
ENDBRANCH   6  19
TORSDOF 9
ENDMDL
MODEL 6
REMARK VINA RESULT:      -7.3      1.805      2.152
REMARK  Name = 
REMARK  9 active torsions:
REMARK  status: ('A' for Active; 'I' for Inactive)
REMARK    1  A    between atoms: N_1  and  C_2
REMARK    2  A    between atoms: C_4  and  C_5
REMARK    3  A    between atoms: N_10  and  C_11
REMARK    4  A    between atoms: C_11  and  C_12
REMARK    5  A    between atoms: C_12  and  C_13
REMARK    6  A    between atoms: C_13  and  C_14
REMARK    7  A    between atoms: C_14  and  C_15
REMARK    8  A    between atoms: C_15  and  C_16
REMARK    9  A    between atoms: N_18  and  O_19
REMARK                            x       y       z     vdW  Elec       q    Type
REMARK                         _______ _______ _______ _____ _____    ______ ____
ROOT
ATOM      1  C   UNL     1       8.225   8.461  18.068  0.00  0.00    +0.000 C 
ATOM      2  O   UNL     1       7.793   8.301  16.928  0.00  0.00    +0.000 OA
ATOM      3  N   UNL     1       8.326   7.441  18.999  0.00  0.00    +0.000 N 
ATOM      4  C   UNL     1       8.042   6.109  18.801  0.00  0.00    +0.000 C 
ATOM      5  O   UNL     1       8.273   5.292  19.686  0.00  0.00    +0.000 OA
ATOM      6  N   UNL     1       7.513   5.790  17.584  0.00  0.00    +0.000 N 
ATOM      7  H   UNL     1       8.760   7.611  19.891  0.00  0.00    +0.000 HD
ATOM      8  H   UNL     1       7.391   6.559  16.927  0.00  0.00    +0.000 HD
ENDROOT
BRANCH   1  11
ATOM      9  C   UNL     1       9.607  11.439  20.027  0.00  0.00    +0.000 A 
ATOM     10  C   UNL     1       9.285  10.112  19.694  0.00  0.00    +0.000 A 
ATOM     11  C   UNL     1       8.684   9.818  18.463  0.00  0.00    +0.000 A 
ATOM     12  C   UNL     1       8.437  10.851  17.546  0.00  0.00    +0.000 A 
ATOM     13  C   UNL     1       8.798  12.163  17.843  0.00  0.00    +0.000 A 
ATOM     14  C   UNL     1       9.393  12.451  19.070  0.00  0.00    +0.000 A 
ATOM     15 CL   UNL     1       9.814  14.094  19.408  0.00  0.00    +0.000 Cl
BRANCH   9  16
ATOM     16  N   UNL     1      10.319  11.697  21.214  0.00  0.00    +0.000 N 
ATOM     17  H   UNL     1      10.441  10.898  21.828  0.00  0.00    +0.000 HD
ATOM     18  H   UNL     1       9.964  12.515  21.711  0.00  0.00    +0.000 HD
ENDBRANCH   9  16
ENDBRANCH   1  11
BRANCH   6  19
ATOM     19  C   UNL     1       7.185   4.444  17.178  0.00  0.00    +0.000 C 
BRANCH  19  20
ATOM     20  C   UNL     1       5.934   4.383  16.299  0.00  0.00    +0.000 C 
BRANCH  20  21
ATOM     21  C   UNL     1       4.713   5.067  16.928  0.00  0.00    +0.000 C 
BRANCH  21  22
ATOM     22  C   UNL     1       3.784   4.041  17.582  0.00  0.00    +0.000 C 
BRANCH  22  23
ATOM     23  C   UNL     1       2.370   4.589  17.773  0.00  0.00    +0.000 C 
BRANCH  23  24
ATOM     24  C   UNL     1       1.499   3.637  18.568  0.00  0.00    +0.000 C 
ATOM     25  O   UNL     1       0.970   2.627  18.111  0.00  0.00    +0.000 OA
ATOM     26  N   UNL     1       1.341   4.000  19.882  0.00  0.00    +0.000 N 
ATOM     27  H   UNL     1       1.734   4.825  20.321  0.00  0.00    +0.000 HD
BRANCH  26  28
ATOM     28  O   UNL     1       0.534   3.159  20.677  0.00  0.00    +0.000 OA
ATOM     29  H   UNL     1      -0.255   3.027  20.104  0.00  0.00    +0.000 HD
ENDBRANCH  26  28
ENDBRANCH  23  24
ENDBRANCH  22  23
ENDBRANCH  21  22
ENDBRANCH  20  21
ENDBRANCH  19  20
ENDBRANCH   6  19
TORSDOF 9
ENDMDL
MODEL 7
REMARK VINA RESULT:      -7.3      3.452      4.272
REMARK  Name = 
REMARK  9 active torsions:
REMARK  status: ('A' for Active; 'I' for Inactive)
REMARK    1  A    between atoms: N_1  and  C_2
REMARK    2  A    between atoms: C_4  and  C_5
REMARK    3  A    between atoms: N_10  and  C_11
REMARK    4  A    between atoms: C_11  and  C_12
REMARK    5  A    between atoms: C_12  and  C_13
REMARK    6  A    between atoms: C_13  and  C_14
REMARK    7  A    between atoms: C_14  and  C_15
REMARK    8  A    between atoms: C_15  and  C_16
REMARK    9  A    between atoms: N_18  and  O_19
REMARK                            x       y       z     vdW  Elec       q    Type
REMARK                         _______ _______ _______ _____ _____    ______ ____
ROOT
ATOM      1  C   UNL     1       8.457   8.995  18.270  0.00  0.00    +0.000 C 
ATOM      2  O   UNL     1       7.832   9.122  17.219  0.00  0.00    +0.000 OA
ATOM      3  N   UNL     1       8.514   7.814  18.990  0.00  0.00    +0.000 N 
ATOM      4  C   UNL     1       7.965   6.602  18.637  0.00  0.00    +0.000 C 
ATOM      5  O   UNL     1       8.178   5.606  19.320  0.00  0.00    +0.000 OA
ATOM      6  N   UNL     1       7.204   6.604  17.503  0.00  0.00    +0.000 N 
ATOM      7  H   UNL     1       9.105   7.743  19.802  0.00  0.00    +0.000 HD
ATOM      8  H   UNL     1       7.124   7.494  17.013  0.00  0.00    +0.000 HD
ENDROOT
BRANCH   1  11
ATOM      9  C   UNL     1       9.829  11.778  20.504  0.00  0.00    +0.000 A 
ATOM     10  C   UNL     1       9.158  10.606  20.116  0.00  0.00    +0.000 A 
ATOM     11  C   UNL     1       9.212  10.167  18.787  0.00  0.00    +0.000 A 
ATOM     12  C   UNL     1       9.970  10.884  17.849  0.00  0.00    +0.000 A 
ATOM     13  C   UNL     1      10.682  12.018  18.231  0.00  0.00    +0.000 A 
ATOM     14  C   UNL     1      10.623  12.452  19.553  0.00  0.00    +0.000 A 
ATOM     15 CL   UNL     1      11.509  13.873  19.986  0.00  0.00    +0.000 Cl
BRANCH   9  16
ATOM     16  N   UNL     1       9.864  12.133  21.865  0.00  0.00    +0.000 N 
ATOM     17  H   UNL     1       9.811  13.129  22.055  0.00  0.00    +0.000 HD
ATOM     18  H   UNL     1      10.634  11.686  22.365  0.00  0.00    +0.000 HD
ENDBRANCH   9  16
ENDBRANCH   1  11
BRANCH   6  19
ATOM     19  C   UNL     1       6.577   5.426  16.954  0.00  0.00    +0.000 C 
BRANCH  19  20
ATOM     20  C   UNL     1       5.490   5.760  15.930  0.00  0.00    +0.000 C 
BRANCH  20  21
ATOM     21  C   UNL     1       5.192   4.610  14.960  0.00  0.00    +0.000 C 
BRANCH  21  22
ATOM     22  C   UNL     1       6.486   4.014  14.398  0.00  0.00    +0.000 C 
BRANCH  22  23
ATOM     23  C   UNL     1       6.617   4.246  12.893  0.00  0.00    +0.000 C 
BRANCH  23  24
ATOM     24  C   UNL     1       5.969   3.135  12.093  0.00  0.00    +0.000 C 
ATOM     25  O   UNL     1       4.786   3.111  11.763  0.00  0.00    +0.000 OA
ATOM     26  N   UNL     1       6.832   2.124  11.753  0.00  0.00    +0.000 N 
ATOM     27  H   UNL     1       7.813   2.071  12.004  0.00  0.00    +0.000 HD
BRANCH  26  28
ATOM     28  O   UNL     1       6.289   1.053  11.012  0.00  0.00    +0.000 OA
ATOM     29  H   UNL     1       6.035   1.491  10.169  0.00  0.00    +0.000 HD
ENDBRANCH  26  28
ENDBRANCH  23  24
ENDBRANCH  22  23
ENDBRANCH  21  22
ENDBRANCH  20  21
ENDBRANCH  19  20
ENDBRANCH   6  19
TORSDOF 9
ENDMDL
MODEL 8
REMARK VINA RESULT:      -7.2      5.234      6.574
REMARK  Name = 
REMARK  9 active torsions:
REMARK  status: ('A' for Active; 'I' for Inactive)
REMARK    1  A    between atoms: N_1  and  C_2
REMARK    2  A    between atoms: C_4  and  C_5
REMARK    3  A    between atoms: N_10  and  C_11
REMARK    4  A    between atoms: C_11  and  C_12
REMARK    5  A    between atoms: C_12  and  C_13
REMARK    6  A    between atoms: C_13  and  C_14
REMARK    7  A    between atoms: C_14  and  C_15
REMARK    8  A    between atoms: C_15  and  C_16
REMARK    9  A    between atoms: N_18  and  O_19
REMARK                            x       y       z     vdW  Elec       q    Type
REMARK                         _______ _______ _______ _____ _____    ______ ____
ROOT
ATOM      1  C   UNL     1       4.741   4.806  17.615  0.00  0.00    +0.000 C 
ATOM      2  O   UNL     1       4.994   3.917  18.427  0.00  0.00    +0.000 OA
ATOM      3  N   UNL     1       3.746   5.751  17.800  0.00  0.00    +0.000 N 
ATOM      4  C   UNL     1       2.945   5.903  18.908  0.00  0.00    +0.000 C 
ATOM      5  O   UNL     1       2.169   6.850  18.982  0.00  0.00    +0.000 OA
ATOM      6  N   UNL     1       3.091   4.956  19.880  0.00  0.00    +0.000 N 
ATOM      7  H   UNL     1       3.634   6.503  17.140  0.00  0.00    +0.000 HD
ATOM      8  H   UNL     1       3.788   4.233  19.707  0.00  0.00    +0.000 HD
ENDROOT
BRANCH   1  11
ATOM      9  C   UNL     1       6.297   4.095  14.196  0.00  0.00    +0.000 A 
ATOM     10  C   UNL     1       5.420   4.011  15.291  0.00  0.00    +0.000 A 
ATOM     11  C   UNL     1       5.561   4.884  16.378  0.00  0.00    +0.000 A 
ATOM     12  C   UNL     1       6.560   5.869  16.353  0.00  0.00    +0.000 A 
ATOM     13  C   UNL     1       7.402   5.996  15.252  0.00  0.00    +0.000 A 
ATOM     14  C   UNL     1       7.261   5.124  14.174  0.00  0.00    +0.000 A 
ATOM     15 CL   UNL     1       8.335   5.304  12.831  0.00  0.00    +0.000 Cl
BRANCH   9  16
ATOM     16  N   UNL     1       6.062   3.292  13.064  0.00  0.00    +0.000 N 
ATOM     17  H   UNL     1       6.829   3.244  12.401  0.00  0.00    +0.000 HD
ATOM     18  H   UNL     1       5.173   3.509  12.611  0.00  0.00    +0.000 HD
ENDBRANCH   9  16
ENDBRANCH   1  11
BRANCH   6  19
ATOM     19  C   UNL     1       2.367   4.967  21.129  0.00  0.00    +0.000 C 
BRANCH  19  20
ATOM     20  C   UNL     1       2.364   3.602  21.819  0.00  0.00    +0.000 C 
BRANCH  20  21
ATOM     21  C   UNL     1       1.327   2.629  21.243  0.00  0.00    +0.000 C 
BRANCH  21  22
ATOM     22  C   UNL     1       0.642   3.222  20.009  0.00  0.00    +0.000 C 
BRANCH  22  23
ATOM     23  C   UNL     1       0.630   2.243  18.835  0.00  0.00    +0.000 C 
BRANCH  23  24
ATOM     24  C   UNL     1       1.925   2.288  18.050  0.00  0.00    +0.000 C 
ATOM     25  O   UNL     1       2.128   3.011  17.077  0.00  0.00    +0.000 OA
ATOM     26  N   UNL     1       2.887   1.432  18.524  0.00  0.00    +0.000 N 
ATOM     27  H   UNL     1       2.783   0.798  19.308  0.00  0.00    +0.000 HD
BRANCH  26  28
ATOM     28  O   UNL     1       4.117   1.419  17.832  0.00  0.00    +0.000 OA
ATOM     29  H   UNL     1       4.337   0.460  17.818  0.00  0.00    +0.000 HD
ENDBRANCH  26  28
ENDBRANCH  23  24
ENDBRANCH  22  23
ENDBRANCH  21  22
ENDBRANCH  20  21
ENDBRANCH  19  20
ENDBRANCH   6  19
TORSDOF 9
ENDMDL
MODEL 9
REMARK VINA RESULT:      -7.2      3.445      4.198
REMARK  Name = 
REMARK  9 active torsions:
REMARK  status: ('A' for Active; 'I' for Inactive)
REMARK    1  A    between atoms: N_1  and  C_2
REMARK    2  A    between atoms: C_4  and  C_5
REMARK    3  A    between atoms: N_10  and  C_11
REMARK    4  A    between atoms: C_11  and  C_12
REMARK    5  A    between atoms: C_12  and  C_13
REMARK    6  A    between atoms: C_13  and  C_14
REMARK    7  A    between atoms: C_14  and  C_15
REMARK    8  A    between atoms: C_15  and  C_16
REMARK    9  A    between atoms: N_18  and  O_19
REMARK                            x       y       z     vdW  Elec       q    Type
REMARK                         _______ _______ _______ _____ _____    ______ ____
ROOT
ATOM      1  C   UNL     1       8.187   8.701  18.192  0.00  0.00    +0.000 C 
ATOM      2  O   UNL     1       7.478   8.690  17.187  0.00  0.00    +0.000 OA
ATOM      3  N   UNL     1       8.397   7.591  18.993  0.00  0.00    +0.000 N 
ATOM      4  C   UNL     1       7.929   6.315  18.777  0.00  0.00    +0.000 C 
ATOM      5  O   UNL     1       8.276   5.399  19.515  0.00  0.00    +0.000 OA
ATOM      6  N   UNL     1       7.092   6.162  17.711  0.00  0.00    +0.000 N 
ATOM      7  H   UNL     1       9.049   7.635  19.759  0.00  0.00    +0.000 HD
ATOM      8  H   UNL     1       6.900   6.999  17.162  0.00  0.00    +0.000 HD
ENDROOT
BRANCH   1  11
ATOM      9  C   UNL     1       9.848  12.141  18.057  0.00  0.00    +0.000 A 
ATOM     10  C   UNL     1       9.112  11.014  17.655  0.00  0.00    +0.000 A 
ATOM     11  C   UNL     1       8.872   9.968  18.557  0.00  0.00    +0.000 A 
ATOM     12  C   UNL     1       9.340  10.067  19.876  0.00  0.00    +0.000 A 
ATOM     13  C   UNL     1      10.027  11.201  20.301  0.00  0.00    +0.000 A 
ATOM     14  C   UNL     1      10.265  12.237  19.401  0.00  0.00    +0.000 A 
ATOM     15 CL   UNL     1      11.134  13.624  19.962  0.00  0.00    +0.000 Cl
BRANCH   9  16
ATOM     16  N   UNL     1       9.972  13.232  17.176  0.00  0.00    +0.000 N 
ATOM     17  H   UNL     1       9.344  14.008  17.357  0.00  0.00    +0.000 HD
ATOM     18  H   UNL     1       9.958  12.944  16.197  0.00  0.00    +0.000 HD
ENDBRANCH   9  16
ENDBRANCH   1  11
BRANCH   6  19
ATOM     19  C   UNL     1       6.530   4.896  17.304  0.00  0.00    +0.000 C 
BRANCH  19  20
ATOM     20  C   UNL     1       7.257   4.289  16.103  0.00  0.00    +0.000 C 
BRANCH  20  21
ATOM     21  C   UNL     1       6.871   4.934  14.766  0.00  0.00    +0.000 C 
BRANCH  21  22
ATOM     22  C   UNL     1       5.900   4.044  13.985  0.00  0.00    +0.000 C 
BRANCH  22  23
ATOM     23  C   UNL     1       6.444   3.677  12.605  0.00  0.00    +0.000 C 
BRANCH  23  24
ATOM     24  C   UNL     1       5.443   2.871  11.801  0.00  0.00    +0.000 C 
ATOM     25  O   UNL     1       5.615   1.711  11.433  0.00  0.00    +0.000 OA
ATOM     26  N   UNL     1       4.293   3.557  11.505  0.00  0.00    +0.000 N 
ATOM     27  H   UNL     1       4.091   4.517  11.762  0.00  0.00    +0.000 HD
BRANCH  26  28
ATOM     28  O   UNL     1       3.321   2.865  10.751  0.00  0.00    +0.000 OA
ATOM     29  H   UNL     1       3.248   3.424   9.945  0.00  0.00    +0.000 HD
ENDBRANCH  26  28
ENDBRANCH  23  24
ENDBRANCH  22  23
ENDBRANCH  21  22
ENDBRANCH  20  21
ENDBRANCH  19  20
ENDBRANCH   6  19
TORSDOF 9
ENDMDL
