MODEL 1
REMARK VINA RESULT:      -7.9      0.000      0.000
REMARK  Name = 
REMARK  7 active torsions:
REMARK  status: ('A' for Active; 'I' for Inactive)
REMARK    1  A    between atoms: C_1  and  C_2
REMARK    2  A    between atoms: C_2  and  O_3
REMARK    3  A    between atoms: O_3  and  C_4
REMARK    4  A    between atoms: C_4  and  C_6
REMARK    5  A    between atoms: C_6  and  N_7
REMARK    6  A    between atoms: C_10  and  C_11
REMARK    7  A    between atoms: C_12  and  C_13
REMARK                            x       y       z     vdW  Elec       q    Type
REMARK                         _______ _______ _______ _____ _____    ______ ____
ROOT
ATOM      1  N   UNL     1       5.919   5.107  17.183  0.00  0.00    +0.000 N 
ATOM      2  C   UNL     1       5.770   6.375  16.731  0.00  0.00    +0.000 A 
ATOM      3  C   UNL     1       6.615   7.426  17.139  0.00  0.00    +0.000 A 
ATOM      4  C   UNL     1       7.647   7.246  18.046  0.00  0.00    +0.000 A 
ATOM      5  C   UNL     1       7.757   5.919  18.547  0.00  0.00    +0.000 A 
ATOM      6  C   UNL     1       6.895   4.866  18.105  0.00  0.00    +0.000 A 
ENDROOT
BRANCH   4   7
ATOM      7  C   UNL     1       8.519   8.418  18.524  0.00  0.00    +0.000 C 
ATOM      8  C   UNL     1       8.668   9.728  18.100  0.00  0.00    +0.000 C 
BRANCH   8   9
ATOM      9  C   UNL     1       9.468  10.853  18.832  0.00  0.00    +0.000 A 
ATOM     10  C   UNL     1       9.244  10.840  20.210  0.00  0.00    +0.000 A 
ATOM     11  C   UNL     1      10.021  11.594  21.061  0.00  0.00    +0.000 A 
ATOM     12  C   UNL     1      10.181  12.891  20.648  0.00  0.00    +0.000 A 
ATOM     13  C   UNL     1      10.448  13.097  19.302  0.00  0.00    +0.000 A 
ATOM     14  C   UNL     1      10.979  14.370  19.021  0.00  0.00    +0.000 A 
ATOM     15  C   UNL     1      11.584  14.625  17.810  0.00  0.00    +0.000 A 
ATOM     16  C   UNL     1      11.632  13.606  16.880  0.00  0.00    +0.000 A 
ATOM     17  C   UNL     1      10.959  12.355  17.111  0.00  0.00    +0.000 A 
ATOM     18  C   UNL     1      10.281  12.027  18.348  0.00  0.00    +0.000 A 
ENDBRANCH   8   9
ENDBRANCH   4   7
BRANCH   1  19
ATOM     19  C   UNL     1       5.078   3.996  16.590  0.00  0.00    +0.000 C 
BRANCH  19  20
ATOM     20  C   UNL     1       3.902   3.521  17.440  0.00  0.00    +0.000 C 
ATOM     21  O   UNL     1       3.901   2.428  17.996  0.00  0.00    +0.000 OA
BRANCH  20  22
ATOM     22  O   UNL     1       2.885   4.424  17.449  0.00  0.00    +0.000 OA
BRANCH  22  24
ATOM     23  C   UNL     1       2.958   6.156  19.218  0.00  0.00    +0.000 C 
ATOM     24  C   UNL     1       2.368   4.835  18.752  0.00  0.00    +0.000 C 
ENDBRANCH  22  24
ENDBRANCH  20  22
ENDBRANCH  19  20
ENDBRANCH   1  19
TORSDOF 6
ENDMDL
MODEL 2
REMARK VINA RESULT:      -7.8      6.089      8.582
REMARK  Name = 
REMARK  7 active torsions:
REMARK  status: ('A' for Active; 'I' for Inactive)
REMARK    1  A    between atoms: C_1  and  C_2
REMARK    2  A    between atoms: C_2  and  O_3
REMARK    3  A    between atoms: O_3  and  C_4
REMARK    4  A    between atoms: C_4  and  C_6
REMARK    5  A    between atoms: C_6  and  N_7
REMARK    6  A    between atoms: C_10  and  C_11
REMARK    7  A    between atoms: C_12  and  C_13
REMARK                            x       y       z     vdW  Elec       q    Type
REMARK                         _______ _______ _______ _____ _____    ______ ____
ROOT
ATOM      1  N   UNL     1       4.722   4.959  16.908  0.00  0.00    +0.000 N 
ATOM      2  C   UNL     1       3.632   4.592  17.623  0.00  0.00    +0.000 A 
ATOM      3  C   UNL     1       2.747   5.533  18.187  0.00  0.00    +0.000 A 
ATOM      4  C   UNL     1       2.936   6.901  18.069  0.00  0.00    +0.000 A 
ATOM      5  C   UNL     1       4.112   7.267  17.357  0.00  0.00    +0.000 A 
ATOM      6  C   UNL     1       4.986   6.292  16.782  0.00  0.00    +0.000 A 
ENDROOT
BRANCH   4   7
ATOM      7  C   UNL     1       1.992   7.909  18.743  0.00  0.00    +0.000 C 
ATOM      8  C   UNL     1       1.501   9.149  18.369  0.00  0.00    +0.000 C 
BRANCH   8   9
ATOM      9  C   UNL     1       0.384   9.962  19.100  0.00  0.00    +0.000 A 
ATOM     10  C   UNL     1      -0.137  10.975  18.292  0.00  0.00    +0.000 A 
ATOM     11  C   UNL     1      -1.278  11.655  18.656  0.00  0.00    +0.000 A 
ATOM     12  C   UNL     1      -1.263  12.086  19.957  0.00  0.00    +0.000 A 
ATOM     13  C   UNL     1      -0.805  11.191  20.913  0.00  0.00    +0.000 A 
ATOM     14  C   UNL     1      -1.175  11.533  22.228  0.00  0.00    +0.000 A 
ATOM     15  C   UNL     1      -1.077  10.610  23.246  0.00  0.00    +0.000 A 
ATOM     16  C   UNL     1      -0.588   9.356  22.942  0.00  0.00    +0.000 A 
ATOM     17  C   UNL     1      -0.072   9.056  21.632  0.00  0.00    +0.000 A 
ATOM     18  C   UNL     1      -0.116   9.985  20.521  0.00  0.00    +0.000 A 
ENDBRANCH   8   9
ENDBRANCH   4   7
BRANCH   1  19
ATOM     19  C   UNL     1       5.546   3.904  16.200  0.00  0.00    +0.000 C 
BRANCH  19  20
ATOM     20  C   UNL     1       6.861   4.381  15.589  0.00  0.00    +0.000 C 
ATOM     21  O   UNL     1       7.884   4.493  16.255  0.00  0.00    +0.000 OA
BRANCH  20  22
ATOM     22  O   UNL     1       6.724   4.696  14.273  0.00  0.00    +0.000 OA
BRANCH  22  24
ATOM     23  C   UNL     1       6.730   3.640  12.033  0.00  0.00    +0.000 C 
ATOM     24  C   UNL     1       6.089   3.703  13.410  0.00  0.00    +0.000 C 
ENDBRANCH  22  24
ENDBRANCH  20  22
ENDBRANCH  19  20
ENDBRANCH   1  19
TORSDOF 6
ENDMDL
MODEL 3
REMARK VINA RESULT:      -7.7      5.361      8.557
REMARK  Name = 
REMARK  7 active torsions:
REMARK  status: ('A' for Active; 'I' for Inactive)
REMARK    1  A    between atoms: C_1  and  C_2
REMARK    2  A    between atoms: C_2  and  O_3
REMARK    3  A    between atoms: O_3  and  C_4
REMARK    4  A    between atoms: C_4  and  C_6
REMARK    5  A    between atoms: C_6  and  N_7
REMARK    6  A    between atoms: C_10  and  C_11
REMARK    7  A    between atoms: C_12  and  C_13
REMARK                            x       y       z     vdW  Elec       q    Type
REMARK                         _______ _______ _______ _____ _____    ______ ____
ROOT
ATOM      1  N   UNL     1       4.527   5.274  16.860  0.00  0.00    +0.000 N 
ATOM      2  C   UNL     1       4.672   6.615  16.737  0.00  0.00    +0.000 A 
ATOM      3  C   UNL     1       3.809   7.529  17.375  0.00  0.00    +0.000 A 
ATOM      4  C   UNL     1       2.739   7.125  18.158  0.00  0.00    +0.000 A 
ATOM      5  C   UNL     1       2.574   5.714  18.235  0.00  0.00    +0.000 A 
ATOM      6  C   UNL     1       3.473   4.808  17.590  0.00  0.00    +0.000 A 
ENDROOT
BRANCH   4   7
ATOM      7  C   UNL     1       1.774   8.137  18.795  0.00  0.00    +0.000 C 
ATOM      8  C   UNL     1       1.224   9.332  18.360  0.00  0.00    +0.000 C 
BRANCH   8   9
ATOM      9  C   UNL     1       0.095  10.145  19.071  0.00  0.00    +0.000 A 
ATOM     10  C   UNL     1      -0.525  11.046  18.203  0.00  0.00    +0.000 A 
ATOM     11  C   UNL     1      -1.687  11.692  18.563  0.00  0.00    +0.000 A 
ATOM     12  C   UNL     1      -1.637  12.243  19.817  0.00  0.00    +0.000 A 
ATOM     13  C   UNL     1      -1.080  11.470  20.825  0.00  0.00    +0.000 A 
ATOM     14  C   UNL     1      -1.407  11.913  22.121  0.00  0.00    +0.000 A 
ATOM     15  C   UNL     1      -1.206  11.097  23.213  0.00  0.00    +0.000 A 
ATOM     16  C   UNL     1      -0.655   9.849  22.998  0.00  0.00    +0.000 A 
ATOM     17  C   UNL     1      -0.184   9.457  21.696  0.00  0.00    +0.000 A 
ATOM     18  C   UNL     1      -0.338  10.273  20.509  0.00  0.00    +0.000 A 
ENDBRANCH   8   9
ENDBRANCH   4   7
BRANCH   1  19
ATOM     19  C   UNL     1       5.576   4.350  16.278  0.00  0.00    +0.000 C 
BRANCH  19  20
ATOM     20  C   UNL     1       6.773   5.030  15.617  0.00  0.00    +0.000 C 
ATOM     21  O   UNL     1       6.790   5.295  14.420  0.00  0.00    +0.000 OA
BRANCH  20  22
ATOM     22  O   UNL     1       7.786   5.244  16.498  0.00  0.00    +0.000 OA
BRANCH  22  24
ATOM     23  C   UNL     1       7.721   5.698  18.932  0.00  0.00    +0.000 C 
ATOM     24  C   UNL     1       7.651   4.655  17.828  0.00  0.00    +0.000 C 
ENDBRANCH  22  24
ENDBRANCH  20  22
ENDBRANCH  19  20
ENDBRANCH   1  19
TORSDOF 6
ENDMDL
MODEL 4
REMARK VINA RESULT:      -7.6      0.737      1.354
REMARK  Name = 
REMARK  7 active torsions:
REMARK  status: ('A' for Active; 'I' for Inactive)
REMARK    1  A    between atoms: C_1  and  C_2
REMARK    2  A    between atoms: C_2  and  O_3
REMARK    3  A    between atoms: O_3  and  C_4
REMARK    4  A    between atoms: C_4  and  C_6
REMARK    5  A    between atoms: C_6  and  N_7
REMARK    6  A    between atoms: C_10  and  C_11
REMARK    7  A    between atoms: C_12  and  C_13
REMARK                            x       y       z     vdW  Elec       q    Type
REMARK                         _______ _______ _______ _____ _____    ______ ____
ROOT
ATOM      1  N   UNL     1       5.975   4.969  17.114  0.00  0.00    +0.000 N 
ATOM      2  C   UNL     1       7.076   4.805  17.885  0.00  0.00    +0.000 A 
ATOM      3  C   UNL     1       7.852   5.893  18.334  0.00  0.00    +0.000 A 
ATOM      4  C   UNL     1       7.558   7.207  18.006  0.00  0.00    +0.000 A 
ATOM      5  C   UNL     1       6.427   7.355  17.156  0.00  0.00    +0.000 A 
ATOM      6  C   UNL     1       5.648   6.235  16.726  0.00  0.00    +0.000 A 
ENDROOT
BRANCH   4   7
ATOM      7  C   UNL     1       8.451   8.374  18.455  0.00  0.00    +0.000 C 
ATOM      8  C   UNL     1       8.521   9.711  18.100  0.00  0.00    +0.000 C 
BRANCH   8   9
ATOM      9  C   UNL     1       9.373  10.814  18.806  0.00  0.00    +0.000 A 
ATOM     10  C   UNL     1       9.228  10.775  20.195  0.00  0.00    +0.000 A 
ATOM     11  C   UNL     1      10.060  11.505  21.014  0.00  0.00    +0.000 A 
ATOM     12  C   UNL     1      10.207  12.809  20.618  0.00  0.00    +0.000 A 
ATOM     13  C   UNL     1      10.399  13.039  19.264  0.00  0.00    +0.000 A 
ATOM     14  C   UNL     1      10.924  14.314  18.977  0.00  0.00    +0.000 A 
ATOM     15  C   UNL     1      11.461  14.589  17.739  0.00  0.00    +0.000 A 
ATOM     16  C   UNL     1      11.445  13.589  16.788  0.00  0.00    +0.000 A 
ATOM     17  C   UNL     1      10.775  12.339  17.032  0.00  0.00    +0.000 A 
ATOM     18  C   UNL     1      10.166  11.990  18.299  0.00  0.00    +0.000 A 
ENDBRANCH   8   9
ENDBRANCH   4   7
BRANCH   1  19
ATOM     19  C   UNL     1       5.099   3.776  16.795  0.00  0.00    +0.000 C 
BRANCH  19  20
ATOM     20  C   UNL     1       3.778   3.693  17.556  0.00  0.00    +0.000 C 
ATOM     21  O   UNL     1       2.696   3.707  16.980  0.00  0.00    +0.000 OA
BRANCH  20  22
ATOM     22  O   UNL     1       3.969   3.655  18.901  0.00  0.00    +0.000 OA
BRANCH  22  24
ATOM     23  C   UNL     1       2.632   3.175  20.930  0.00  0.00    +0.000 C 
ATOM     24  C   UNL     1       2.863   4.100  19.746  0.00  0.00    +0.000 C 
ENDBRANCH  22  24
ENDBRANCH  20  22
ENDBRANCH  19  20
ENDBRANCH   1  19
TORSDOF 6
ENDMDL
MODEL 5
REMARK VINA RESULT:      -7.5      6.320      9.085
REMARK  Name = 
REMARK  7 active torsions:
REMARK  status: ('A' for Active; 'I' for Inactive)
REMARK    1  A    between atoms: C_1  and  C_2
REMARK    2  A    between atoms: C_2  and  O_3
REMARK    3  A    between atoms: O_3  and  C_4
REMARK    4  A    between atoms: C_4  and  C_6
REMARK    5  A    between atoms: C_6  and  N_7
REMARK    6  A    between atoms: C_10  and  C_11
REMARK    7  A    between atoms: C_12  and  C_13
REMARK                            x       y       z     vdW  Elec       q    Type
REMARK                         _______ _______ _______ _____ _____    ______ ____
ROOT
ATOM      1  N   UNL     1       4.211   5.324  18.801  0.00  0.00    +0.000 N 
ATOM      2  C   UNL     1       3.335   5.486  19.820  0.00  0.00    +0.000 A 
ATOM      3  C   UNL     1       2.408   6.547  19.857  0.00  0.00    +0.000 A 
ATOM      4  C   UNL     1       2.336   7.511  18.864  0.00  0.00    +0.000 A 
ATOM      5  C   UNL     1       3.295   7.351  17.826  0.00  0.00    +0.000 A 
ATOM      6  C   UNL     1       4.217   6.257  17.806  0.00  0.00    +0.000 A 
ENDROOT
BRANCH   4   7
ATOM      7  C   UNL     1       1.358   8.693  18.953  0.00  0.00    +0.000 C 
ATOM      8  C   UNL     1       0.803   9.542  18.009  0.00  0.00    +0.000 C 
BRANCH   8   9
ATOM      9  C   UNL     1      -0.338  10.581  18.255  0.00  0.00    +0.000 A 
ATOM     10  C   UNL     1      -0.069  11.401  19.353  0.00  0.00    +0.000 A 
ATOM     11  C   UNL     1      -0.829  12.523  19.602  0.00  0.00    +0.000 A 
ATOM     12  C   UNL     1      -2.178  12.292  19.538  0.00  0.00    +0.000 A 
ATOM     13  C   UNL     1      -2.637  11.518  18.483  0.00  0.00    +0.000 A 
ATOM     14  C   UNL     1      -4.020  11.643  18.252  0.00  0.00    +0.000 A 
ATOM     15  C   UNL     1      -4.577  11.200  17.072  0.00  0.00    +0.000 A 
ATOM     16  C   UNL     1      -3.744  10.614  16.140  0.00  0.00    +0.000 A 
ATOM     17  C   UNL     1      -2.361  10.352  16.439  0.00  0.00    +0.000 A 
ATOM     18  C   UNL     1      -1.714  10.764  17.668  0.00  0.00    +0.000 A 
ENDBRANCH   8   9
ENDBRANCH   4   7
BRANCH   1  19
ATOM     19  C   UNL     1       5.075   4.081  18.745  0.00  0.00    +0.000 C 
BRANCH  19  20
ATOM     20  C   UNL     1       4.426   2.794  19.248  0.00  0.00    +0.000 C 
ATOM     21  O   UNL     1       4.885   2.162  20.194  0.00  0.00    +0.000 OA
BRANCH  20  22
ATOM     22  O   UNL     1       3.347   2.441  18.499  0.00  0.00    +0.000 OA
BRANCH  22  24
ATOM     23  C   UNL     1       0.898   2.644  18.802  0.00  0.00    +0.000 C 
ATOM     24  C   UNL     1       2.177   1.932  19.210  0.00  0.00    +0.000 C 
ENDBRANCH  22  24
ENDBRANCH  20  22
ENDBRANCH  19  20
ENDBRANCH   1  19
TORSDOF 6
ENDMDL
MODEL 6
REMARK VINA RESULT:      -7.5      1.648      2.228
REMARK  Name = 
REMARK  7 active torsions:
REMARK  status: ('A' for Active; 'I' for Inactive)
REMARK    1  A    between atoms: C_1  and  C_2
REMARK    2  A    between atoms: C_2  and  O_3
REMARK    3  A    between atoms: O_3  and  C_4
REMARK    4  A    between atoms: C_4  and  C_6
REMARK    5  A    between atoms: C_6  and  N_7
REMARK    6  A    between atoms: C_10  and  C_11
REMARK    7  A    between atoms: C_12  and  C_13
REMARK                            x       y       z     vdW  Elec       q    Type
REMARK                         _______ _______ _______ _____ _____    ______ ____
ROOT
ATOM      1  N   UNL     1       6.472   5.434  17.982  0.00  0.00    +0.000 N 
ATOM      2  C   UNL     1       5.962   6.396  17.178  0.00  0.00    +0.000 A 
ATOM      3  C   UNL     1       6.518   7.689  17.100  0.00  0.00    +0.000 A 
ATOM      4  C   UNL     1       7.616   8.076  17.853  0.00  0.00    +0.000 A 
ATOM      5  C   UNL     1       8.108   7.068  18.727  0.00  0.00    +0.000 A 
ATOM      6  C   UNL     1       7.533   5.759  18.776  0.00  0.00    +0.000 A 
ENDROOT
BRANCH   4   7
ATOM      7  C   UNL     1       8.170   9.509  17.798  0.00  0.00    +0.000 C 
ATOM      8  C   UNL     1       9.261  10.130  18.384  0.00  0.00    +0.000 C 
BRANCH   8   9
ATOM      9  C   UNL     1       9.794  11.564  18.062  0.00  0.00    +0.000 A 
ATOM     10  C   UNL     1      11.189  11.615  18.073  0.00  0.00    +0.000 A 
ATOM     11  C   UNL     1      11.860  12.719  17.596  0.00  0.00    +0.000 A 
ATOM     12  C   UNL     1      11.366  13.905  18.071  0.00  0.00    +0.000 A 
ATOM     13  C   UNL     1       9.987  14.049  18.100  0.00  0.00    +0.000 A 
ATOM     14  C   UNL     1       9.561  15.385  18.217  0.00  0.00    +0.000 A 
ATOM     15  C   UNL     1       8.255  15.731  17.950  0.00  0.00    +0.000 A 
ATOM     16  C   UNL     1       7.378  14.728  17.588  0.00  0.00    +0.000 A 
ATOM     17  C   UNL     1       7.778  13.345  17.614  0.00  0.00    +0.000 A 
ATOM     18  C   UNL     1       9.125  12.906  17.912  0.00  0.00    +0.000 A 
ENDBRANCH   8   9
ENDBRANCH   4   7
BRANCH   1  19
ATOM     19  C   UNL     1       5.925   4.024  17.905  0.00  0.00    +0.000 C 
BRANCH  19  20
ATOM     20  C   UNL     1       4.900   3.646  18.972  0.00  0.00    +0.000 C 
ATOM     21  O   UNL     1       5.153   2.837  19.858  0.00  0.00    +0.000 OA
BRANCH  20  22
ATOM     22  O   UNL     1       3.709   4.271  18.776  0.00  0.00    +0.000 OA
BRANCH  22  24
ATOM     23  C   UNL     1       1.493   4.413  17.679  0.00  0.00    +0.000 C 
ATOM     24  C   UNL     1       2.890   3.814  17.656  0.00  0.00    +0.000 C 
ENDBRANCH  22  24
ENDBRANCH  20  22
ENDBRANCH  19  20
ENDBRANCH   1  19
TORSDOF 6
ENDMDL
MODEL 7
REMARK VINA RESULT:      -7.4      5.757      8.868
REMARK  Name = 
REMARK  7 active torsions:
REMARK  status: ('A' for Active; 'I' for Inactive)
REMARK    1  A    between atoms: C_1  and  C_2
REMARK    2  A    between atoms: C_2  and  O_3
REMARK    3  A    between atoms: O_3  and  C_4
REMARK    4  A    between atoms: C_4  and  C_6
REMARK    5  A    between atoms: C_6  and  N_7
REMARK    6  A    between atoms: C_10  and  C_11
REMARK    7  A    between atoms: C_12  and  C_13
REMARK                            x       y       z     vdW  Elec       q    Type
REMARK                         _______ _______ _______ _____ _____    ______ ____
ROOT
ATOM      1  N   UNL     1       4.985   5.495  17.745  0.00  0.00    +0.000 N 
ATOM      2  C   UNL     1       3.815   5.238  18.377  0.00  0.00    +0.000 A 
ATOM      3  C   UNL     1       2.756   6.167  18.415  0.00  0.00    +0.000 A 
ATOM      4  C   UNL     1       2.840   7.419  17.826  0.00  0.00    +0.000 A 
ATOM      5  C   UNL     1       4.092   7.690  17.210  0.00  0.00    +0.000 A 
ATOM      6  C   UNL     1       5.146   6.723  17.173  0.00  0.00    +0.000 A 
ENDROOT
BRANCH   4   7
ATOM      7  C   UNL     1       1.697   8.441  17.931  0.00  0.00    +0.000 C 
ATOM      8  C   UNL     1       1.322   9.354  18.903  0.00  0.00    +0.000 C 
BRANCH   8   9
ATOM      9  C   UNL     1       0.232  10.465  18.760  0.00  0.00    +0.000 A 
ATOM     10  C   UNL     1       0.528  11.588  19.534  0.00  0.00    +0.000 A 
ATOM     11  C   UNL     1      -0.177  12.761  19.378  0.00  0.00    +0.000 A 
ATOM     12  C   UNL     1      -1.536  12.581  19.355  0.00  0.00    +0.000 A 
ATOM     13  C   UNL     1      -2.020  11.523  18.600  0.00  0.00    +0.000 A 
ATOM     14  C   UNL     1      -3.391  11.624  18.301  0.00  0.00    +0.000 A 
ATOM     15  C   UNL     1      -3.954  10.841  17.317  0.00  0.00    +0.000 A 
ATOM     16  C   UNL     1      -3.140   9.945  16.655  0.00  0.00    +0.000 A 
ATOM     17  C   UNL     1      -1.776   9.737  17.063  0.00  0.00    +0.000 A 
ATOM     18  C   UNL     1      -1.125  10.503  18.106  0.00  0.00    +0.000 A 
ENDBRANCH   8   9
ENDBRANCH   4   7
BRANCH   1  19
ATOM     19  C   UNL     1       6.021   4.400  17.609  0.00  0.00    +0.000 C 
BRANCH  19  20
ATOM     20  C   UNL     1       6.655   4.248  16.228  0.00  0.00    +0.000 C 
ATOM     21  O   UNL     1       7.773   4.681  15.976  0.00  0.00    +0.000 OA
BRANCH  20  22
ATOM     22  O   UNL     1       5.817   3.635  15.349  0.00  0.00    +0.000 OA
BRANCH  22  24
ATOM     23  C   UNL     1       6.139   3.646  12.894  0.00  0.00    +0.000 C 
ATOM     24  C   UNL     1       5.527   4.337  14.101  0.00  0.00    +0.000 C 
ENDBRANCH  22  24
ENDBRANCH  20  22
ENDBRANCH  19  20
ENDBRANCH   1  19
TORSDOF 6
ENDMDL
MODEL 8
REMARK VINA RESULT:      -7.4      1.510      2.044
REMARK  Name = 
REMARK  7 active torsions:
REMARK  status: ('A' for Active; 'I' for Inactive)
REMARK    1  A    between atoms: C_1  and  C_2
REMARK    2  A    between atoms: C_2  and  O_3
REMARK    3  A    between atoms: O_3  and  C_4
REMARK    4  A    between atoms: C_4  and  C_6
REMARK    5  A    between atoms: C_6  and  N_7
REMARK    6  A    between atoms: C_10  and  C_11
REMARK    7  A    between atoms: C_12  and  C_13
REMARK                            x       y       z     vdW  Elec       q    Type
REMARK                         _______ _______ _______ _____ _____    ______ ____
ROOT
ATOM      1  N   UNL     1       5.921   5.110  17.778  0.00  0.00    +0.000 N 
ATOM      2  C   UNL     1       7.070   5.164  18.494  0.00  0.00    +0.000 A 
ATOM      3  C   UNL     1       7.845   6.337  18.591  0.00  0.00    +0.000 A 
ATOM      4  C   UNL     1       7.501   7.515  17.947  0.00  0.00    +0.000 A 
ATOM      5  C   UNL     1       6.319   7.426  17.161  0.00  0.00    +0.000 A 
ATOM      6  C   UNL     1       5.542   6.227  17.091  0.00  0.00    +0.000 A 
ENDROOT
BRANCH   4   7
ATOM      7  C   UNL     1       8.391   8.766  18.017  0.00  0.00    +0.000 C 
ATOM      8  C   UNL     1       8.123  10.120  18.128  0.00  0.00    +0.000 C 
BRANCH   8   9
ATOM      9  C   UNL     1       9.168  11.254  18.383  0.00  0.00    +0.000 A 
ATOM     10  C   UNL     1      10.382  10.748  18.854  0.00  0.00    +0.000 A 
ATOM     11  C   UNL     1      11.502  11.546  18.924  0.00  0.00    +0.000 A 
ATOM     12  C   UNL     1      11.268  12.762  19.511  0.00  0.00    +0.000 A 
ATOM     13  C   UNL     1      10.115  13.434  19.133  0.00  0.00    +0.000 A 
ATOM     14  C   UNL     1      10.130  14.805  19.455  0.00  0.00    +0.000 A 
ATOM     15  C   UNL     1       9.222  15.669  18.884  0.00  0.00    +0.000 A 
ATOM     16  C   UNL     1       8.289  15.147  18.010  0.00  0.00    +0.000 A 
ATOM     17  C   UNL     1       8.180  13.728  17.798  0.00  0.00    +0.000 A 
ATOM     18  C   UNL     1       9.082  12.758  18.385  0.00  0.00    +0.000 A 
ENDBRANCH   8   9
ENDBRANCH   4   7
BRANCH   1  19
ATOM     19  C   UNL     1       5.057   3.869  17.839  0.00  0.00    +0.000 C 
BRANCH  19  20
ATOM     20  C   UNL     1       4.507   3.504  19.216  0.00  0.00    +0.000 C 
ATOM     21  O   UNL     1       4.889   2.511  19.825  0.00  0.00    +0.000 OA
BRANCH  20  22
ATOM     22  O   UNL     1       3.545   4.373  19.625  0.00  0.00    +0.000 OA
BRANCH  22  24
ATOM     23  C   UNL     1       1.713   3.618  21.111  0.00  0.00    +0.000 C 
ATOM     24  C   UNL     1       2.173   3.872  19.685  0.00  0.00    +0.000 C 
ENDBRANCH  22  24
ENDBRANCH  20  22
ENDBRANCH  19  20
ENDBRANCH   1  19
TORSDOF 6
ENDMDL
MODEL 9
REMARK VINA RESULT:      -7.3      1.463      1.671
REMARK  Name = 
REMARK  7 active torsions:
REMARK  status: ('A' for Active; 'I' for Inactive)
REMARK    1  A    between atoms: C_1  and  C_2
REMARK    2  A    between atoms: C_2  and  O_3
REMARK    3  A    between atoms: O_3  and  C_4
REMARK    4  A    between atoms: C_4  and  C_6
REMARK    5  A    between atoms: C_6  and  N_7
REMARK    6  A    between atoms: C_10  and  C_11
REMARK    7  A    between atoms: C_12  and  C_13
REMARK                            x       y       z     vdW  Elec       q    Type
REMARK                         _______ _______ _______ _____ _____    ______ ____
ROOT
ATOM      1  N   UNL     1       5.895   5.168  17.611  0.00  0.00    +0.000 N 
ATOM      2  C   UNL     1       5.670   6.349  16.988  0.00  0.00    +0.000 A 
ATOM      3  C   UNL     1       6.509   7.468  17.166  0.00  0.00    +0.000 A 
ATOM      4  C   UNL     1       7.613   7.448  18.003  0.00  0.00    +0.000 A 
ATOM      5  C   UNL     1       7.805   6.215  18.686  0.00  0.00    +0.000 A 
ATOM      6  C   UNL     1       6.947   5.090  18.476  0.00  0.00    +0.000 A 
ENDROOT
BRANCH   4   7
ATOM      7  C   UNL     1       8.480   8.697  18.230  0.00  0.00    +0.000 C 
ATOM      8  C   UNL     1       8.303  10.042  17.950  0.00  0.00    +0.000 C 
BRANCH   8   9
ATOM      9  C   UNL     1       9.216  11.216  18.430  0.00  0.00    +0.000 A 
ATOM     10  C   UNL     1      10.367  10.753  19.070  0.00  0.00    +0.000 A 
ATOM     11  C   UNL     1      11.406  11.608  19.364  0.00  0.00    +0.000 A 
ATOM     12  C   UNL     1      11.001  12.772  19.963  0.00  0.00    +0.000 A 
ATOM     13  C   UNL     1       9.883  13.399  19.433  0.00  0.00    +0.000 A 
ATOM     14  C   UNL     1       9.755  14.746  19.820  0.00  0.00    +0.000 A 
ATOM     15  C   UNL     1       8.897  15.590  19.149  0.00  0.00    +0.000 A 
ATOM     16  C   UNL     1       8.155  15.069  18.108  0.00  0.00    +0.000 A 
ATOM     17  C   UNL     1       8.175  13.661  17.812  0.00  0.00    +0.000 A 
ATOM     18  C   UNL     1       9.031  12.711  18.492  0.00  0.00    +0.000 A 
ENDBRANCH   8   9
ENDBRANCH   4   7
BRANCH   1  19
ATOM     19  C   UNL     1       5.049   3.962  17.260  0.00  0.00    +0.000 C 
BRANCH  19  20
ATOM     20  C   UNL     1       4.057   3.508  18.327  0.00  0.00    +0.000 C 
ATOM     21  O   UNL     1       4.372   2.725  19.217  0.00  0.00    +0.000 OA
BRANCH  20  22
ATOM     22  O   UNL     1       2.819   4.035  18.128  0.00  0.00    +0.000 OA
BRANCH  22  24
ATOM     23  C   UNL     1       1.048   3.727  19.831  0.00  0.00    +0.000 C 
ATOM     24  C   UNL     1       1.674   3.228  18.539  0.00  0.00    +0.000 C 
ENDBRANCH  22  24
ENDBRANCH  20  22
ENDBRANCH  19  20
ENDBRANCH   1  19
TORSDOF 6
ENDMDL
