MODEL 1
REMARK VINA RESULT:      -7.6      0.000      0.000
REMARK  Name = 
REMARK  7 active torsions:
REMARK  status: ('A' for Active; 'I' for Inactive)
REMARK    1  A    between atoms: C_2  and  C_3
REMARK    2  A    between atoms: C_3  and  N_4
REMARK    3  A    between atoms: C_11  and  C_12
REMARK    4  A    between atoms: C_11  and  N_14
REMARK    5  A    between atoms: C_12  and  C_13
REMARK    6  A    between atoms: N_14  and  C_15
REMARK    7  A    between atoms: C_19  and  C_20
REMARK                            x       y       z     vdW  Elec       q    Type
REMARK                         _______ _______ _______ _____ _____    ______ ____
ROOT
ATOM      1  N   UNL     1       3.236   5.476  19.054  0.00  0.00    +0.000 N 
ATOM      2  C   UNL     1       3.928   5.879  17.936  0.00  0.00    +0.000 C 
ATOM      3  O   UNL     1       4.695   5.162  17.294  0.00  0.00    +0.000 OA
ATOM      4  N   UNL     1       3.704   7.148  17.500  0.00  0.00    +0.000 N 
ATOM      5  C   UNL     1       2.763   8.020  17.951  0.00  0.00    +0.000 C 
ATOM      6  O   UNL     1       2.479   9.013  17.287  0.00  0.00    +0.000 OA
ATOM      7  C   UNL     1       2.115   7.656  19.244  0.00  0.00    +0.000 C 
ATOM      8  C   UNL     1       1.410   8.610  19.921  0.00  0.00    +0.000 C 
ATOM      9  C   UNL     1       2.287   6.246  19.725  0.00  0.00    +0.000 C 
ATOM     10  O   UNL     1       1.575   5.774  20.610  0.00  0.00    +0.000 OA
ATOM     11  H   UNL     1       4.154   7.390  16.628  0.00  0.00    +0.000 HD
ENDROOT
BRANCH   8  12
ATOM     12  C   UNL     1       0.767   8.388  21.295  0.00  0.00    +0.000 C 
ATOM     13  C   UNL     1       1.314   9.307  22.386  0.00  0.00    +0.000 C 
ENDBRANCH   8  12
BRANCH   8  14
ATOM     14  N   UNL     1       1.143   9.898  19.427  0.00  0.00    +0.000 N 
ATOM     15  H   UNL     1       1.592  10.613  20.015  0.00  0.00    +0.000 HD
BRANCH  14  16
ATOM     16  C   UNL     1      -0.160  10.408  19.137  0.00  0.00    +0.000 A 
ATOM     17  C   UNL     1      -0.698  11.353  20.027  0.00  0.00    +0.000 A 
ATOM     18  C   UNL     1      -1.927  11.966  19.781  0.00  0.00    +0.000 A 
ATOM     19  C   UNL     1      -2.637  11.655  18.626  0.00  0.00    +0.000 A 
ATOM     20  C   UNL     1      -2.124  10.722  17.713  0.00  0.00    +0.000 A 
ATOM     21  C   UNL     1      -0.884  10.102  17.979  0.00  0.00    +0.000 A 
BRANCH  20  22
ATOM     22  C   UNL     1      -2.873  10.400  16.443  0.00  0.00    +0.000 C 
ATOM     23  F   UNL     1      -4.225  10.336  16.608  0.00  0.00    +0.000 F 
ATOM     24  F   UNL     1      -2.664  11.326  15.466  0.00  0.00    +0.000 F 
ATOM     25  F   UNL     1      -2.509   9.202  15.908  0.00  0.00    +0.000 F 
ENDBRANCH  20  22
ENDBRANCH  14  16
ENDBRANCH   8  14
BRANCH   1  26
ATOM     26  C   UNL     1       3.420   4.094  19.488  0.00  0.00    +0.000 C 
BRANCH  26  28
ATOM     27  C   UNL     1       2.958   1.908  18.326  0.00  0.00    +0.000 C 
ATOM     28  C   UNL     1       2.622   3.176  18.601  0.00  0.00    +0.000 C 
ENDBRANCH  26  28
ENDBRANCH   1  26
TORSDOF 6
ENDMDL
MODEL 2
REMARK VINA RESULT:      -7.4      0.785      1.167
REMARK  Name = 
REMARK  7 active torsions:
REMARK  status: ('A' for Active; 'I' for Inactive)
REMARK    1  A    between atoms: C_2  and  C_3
REMARK    2  A    between atoms: C_3  and  N_4
REMARK    3  A    between atoms: C_11  and  C_12
REMARK    4  A    between atoms: C_11  and  N_14
REMARK    5  A    between atoms: C_12  and  C_13
REMARK    6  A    between atoms: N_14  and  C_15
REMARK    7  A    between atoms: C_19  and  C_20
REMARK                            x       y       z     vdW  Elec       q    Type
REMARK                         _______ _______ _______ _____ _____    ______ ____
ROOT
ATOM      1  N   UNL     1       3.090   5.005  19.316  0.00  0.00    +0.000 N 
ATOM      2  C   UNL     1       3.889   5.255  18.224  0.00  0.00    +0.000 C 
ATOM      3  O   UNL     1       4.606   4.418  17.679  0.00  0.00    +0.000 OA
ATOM      4  N   UNL     1       3.836   6.509  17.700  0.00  0.00    +0.000 N 
ATOM      5  C   UNL     1       2.973   7.507  18.035  0.00  0.00    +0.000 C 
ATOM      6  O   UNL     1       2.843   8.478  17.295  0.00  0.00    +0.000 OA
ATOM      7  C   UNL     1       2.213   7.302  19.301  0.00  0.00    +0.000 C 
ATOM      8  C   UNL     1       1.581   8.370  19.872  0.00  0.00    +0.000 C 
ATOM      9  C   UNL     1       2.196   5.917  19.875  0.00  0.00    +0.000 C 
ATOM     10  O   UNL     1       1.384   5.585  20.738  0.00  0.00    +0.000 OA
ATOM     11  H   UNL     1       4.361   6.642  16.846  0.00  0.00    +0.000 HD
ENDROOT
BRANCH   8  12
ATOM     12  C   UNL     1       0.837   8.311  21.211  0.00  0.00    +0.000 C 
ATOM     13  C   UNL     1       1.459   9.185  22.299  0.00  0.00    +0.000 C 
ENDBRANCH   8  12
BRANCH   8  14
ATOM     14  N   UNL     1       1.491   9.644  19.286  0.00  0.00    +0.000 N 
ATOM     15  H   UNL     1       2.077  10.320  19.793  0.00  0.00    +0.000 HD
BRANCH  14  16
ATOM     16  C   UNL     1       0.270  10.331  19.008  0.00  0.00    +0.000 A 
ATOM     17  C   UNL     1       0.170  11.668  19.430  0.00  0.00    +0.000 A 
ATOM     18  C   UNL     1      -0.951  12.443  19.131  0.00  0.00    +0.000 A 
ATOM     19  C   UNL     1      -1.993  11.896  18.388  0.00  0.00    +0.000 A 
ATOM     20  C   UNL     1      -1.921  10.567  17.945  0.00  0.00    +0.000 A 
ATOM     21  C   UNL     1      -0.785   9.791  18.264  0.00  0.00    +0.000 A 
BRANCH  20  22
ATOM     22  C   UNL     1      -3.032   9.974  17.115  0.00  0.00    +0.000 C 
ATOM     23  F   UNL     1      -2.607   9.435  15.937  0.00  0.00    +0.000 F 
ATOM     24  F   UNL     1      -3.689   8.972  17.764  0.00  0.00    +0.000 F 
ATOM     25  F   UNL     1      -3.984  10.889  16.780  0.00  0.00    +0.000 F 
ENDBRANCH  20  22
ENDBRANCH  14  16
ENDBRANCH   8  14
BRANCH   1  26
ATOM     26  C   UNL     1       3.091   3.644  19.843  0.00  0.00    +0.000 C 
BRANCH  26  28
ATOM     27  C   UNL     1       0.939   2.631  19.016  0.00  0.00    +0.000 C 
ATOM     28  C   UNL     1       2.271   2.755  18.946  0.00  0.00    +0.000 C 
ENDBRANCH  26  28
ENDBRANCH   1  26
TORSDOF 6
ENDMDL
MODEL 3
REMARK VINA RESULT:      -7.3      4.174      7.588
REMARK  Name = 
REMARK  7 active torsions:
REMARK  status: ('A' for Active; 'I' for Inactive)
REMARK    1  A    between atoms: C_2  and  C_3
REMARK    2  A    between atoms: C_3  and  N_4
REMARK    3  A    between atoms: C_11  and  C_12
REMARK    4  A    between atoms: C_11  and  N_14
REMARK    5  A    between atoms: C_12  and  C_13
REMARK    6  A    between atoms: N_14  and  C_15
REMARK    7  A    between atoms: C_19  and  C_20
REMARK                            x       y       z     vdW  Elec       q    Type
REMARK                         _______ _______ _______ _____ _____    ______ ____
ROOT
ATOM      1  N   UNL     1       1.007  10.185  20.316  0.00  0.00    +0.000 N 
ATOM      2  C   UNL     1       1.024  10.788  19.080  0.00  0.00    +0.000 C 
ATOM      3  O   UNL     1       0.738  11.967  18.875  0.00  0.00    +0.000 OA
ATOM      4  N   UNL     1       1.429  10.024  18.030  0.00  0.00    +0.000 N 
ATOM      5  C   UNL     1       1.963   8.773  18.079  0.00  0.00    +0.000 C 
ATOM      6  O   UNL     1       2.546   8.318  17.099  0.00  0.00    +0.000 OA
ATOM      7  C   UNL     1       1.813   8.059  19.379  0.00  0.00    +0.000 C 
ATOM      8  C   UNL     1       2.025   6.711  19.420  0.00  0.00    +0.000 C 
ATOM      9  C   UNL     1       1.430   8.882  20.574  0.00  0.00    +0.000 C 
ATOM     10  O   UNL     1       1.556   8.453  21.720  0.00  0.00    +0.000 OA
ATOM     11  H   UNL     1       1.520  10.513  17.150  0.00  0.00    +0.000 HD
ENDROOT
BRANCH   8  12
ATOM     12  C   UNL     1       1.824   5.849  20.672  0.00  0.00    +0.000 C 
ATOM     13  C   UNL     1       1.203   4.483  20.386  0.00  0.00    +0.000 C 
ENDBRANCH   8  12
BRANCH   8  14
ATOM     14  N   UNL     1       2.497   5.949  18.338  0.00  0.00    +0.000 N 
ATOM     15  H   UNL     1       1.974   5.067  18.259  0.00  0.00    +0.000 HD
BRANCH  14  16
ATOM     16  C   UNL     1       3.865   5.602  18.118  0.00  0.00    +0.000 A 
ATOM     17  C   UNL     1       4.700   5.516  19.246  0.00  0.00    +0.000 A 
ATOM     18  C   UNL     1       6.028   5.105  19.137  0.00  0.00    +0.000 A 
ATOM     19  C   UNL     1       6.546   4.754  17.895  0.00  0.00    +0.000 A 
ATOM     20  C   UNL     1       5.737   4.821  16.750  0.00  0.00    +0.000 A 
ATOM     21  C   UNL     1       4.397   5.250  16.873  0.00  0.00    +0.000 A 
BRANCH  20  22
ATOM     22  C   UNL     1       6.281   4.417  15.402  0.00  0.00    +0.000 C 
ATOM     23  F   UNL     1       6.171   3.082  15.147  0.00  0.00    +0.000 F 
ATOM     24  F   UNL     1       5.643   5.043  14.374  0.00  0.00    +0.000 F 
ATOM     25  F   UNL     1       7.602   4.713  15.258  0.00  0.00    +0.000 F 
ENDBRANCH  20  22
ENDBRANCH  14  16
ENDBRANCH   8  14
BRANCH   1  26
ATOM     26  C   UNL     1       0.638  11.017  21.458  0.00  0.00    +0.000 C 
BRANCH  26  28
ATOM     27  C   UNL     1      -1.386  11.213  22.943  0.00  0.00    +0.000 C 
ATOM     28  C   UNL     1      -0.798  10.756  21.829  0.00  0.00    +0.000 C 
ENDBRANCH  26  28
ENDBRANCH   1  26
TORSDOF 6
ENDMDL
MODEL 4
REMARK VINA RESULT:      -7.1      3.465      5.288
REMARK  Name = 
REMARK  7 active torsions:
REMARK  status: ('A' for Active; 'I' for Inactive)
REMARK    1  A    between atoms: C_2  and  C_3
REMARK    2  A    between atoms: C_3  and  N_4
REMARK    3  A    between atoms: C_11  and  C_12
REMARK    4  A    between atoms: C_11  and  N_14
REMARK    5  A    between atoms: C_12  and  C_13
REMARK    6  A    between atoms: N_14  and  C_15
REMARK    7  A    between atoms: C_19  and  C_20
REMARK                            x       y       z     vdW  Elec       q    Type
REMARK                         _______ _______ _______ _____ _____    ______ ____
ROOT
ATOM      1  N   UNL     1       5.948   4.019  16.429  0.00  0.00    +0.000 N 
ATOM      2  C   UNL     1       6.981   4.365  17.269  0.00  0.00    +0.000 C 
ATOM      3  O   UNL     1       8.174   4.226  17.003  0.00  0.00    +0.000 OA
ATOM      4  N   UNL     1       6.641   4.940  18.454  0.00  0.00    +0.000 N 
ATOM      5  C   UNL     1       5.404   5.350  18.847  0.00  0.00    +0.000 C 
ATOM      6  O   UNL     1       5.286   6.105  19.808  0.00  0.00    +0.000 OA
ATOM      7  C   UNL     1       4.268   4.852  18.020  0.00  0.00    +0.000 C 
ATOM      8  C   UNL     1       2.999   4.944  18.516  0.00  0.00    +0.000 C 
ATOM      9  C   UNL     1       4.599   4.270  16.677  0.00  0.00    +0.000 C 
ATOM     10  O   UNL     1       3.737   4.098  15.817  0.00  0.00    +0.000 OA
ATOM     11  H   UNL     1       7.417   5.267  19.014  0.00  0.00    +0.000 HD
ENDROOT
BRANCH   8  12
ATOM     12  C   UNL     1       1.757   4.396  17.803  0.00  0.00    +0.000 C 
ATOM     13  C   UNL     1       1.235   3.088  18.395  0.00  0.00    +0.000 C 
ENDBRANCH   8  12
BRANCH   8  14
ATOM     14  N   UNL     1       2.663   5.591  19.718  0.00  0.00    +0.000 N 
ATOM     15  H   UNL     1       2.036   5.004  20.284  0.00  0.00    +0.000 HD
BRANCH  14  16
ATOM     16  C   UNL     1       2.134   6.914  19.812  0.00  0.00    +0.000 A 
ATOM     17  C   UNL     1       2.297   7.758  18.700  0.00  0.00    +0.000 A 
ATOM     18  C   UNL     1       1.743   9.037  18.670  0.00  0.00    +0.000 A 
ATOM     19  C   UNL     1       0.998   9.495  19.752  0.00  0.00    +0.000 A 
ATOM     20  C   UNL     1       0.809   8.675  20.875  0.00  0.00    +0.000 A 
ATOM     21  C   UNL     1       1.384   7.386  20.896  0.00  0.00    +0.000 A 
BRANCH  20  22
ATOM     22  C   UNL     1      -0.022   9.152  22.041  0.00  0.00    +0.000 C 
ATOM     23  F   UNL     1      -0.940   8.238  22.467  0.00  0.00    +0.000 F 
ATOM     24  F   UNL     1       0.736   9.450  23.132  0.00  0.00    +0.000 F 
ATOM     25  F   UNL     1      -0.728  10.281  21.756  0.00  0.00    +0.000 F 
ENDBRANCH  20  22
ENDBRANCH  14  16
ENDBRANCH   8  14
BRANCH   1  26
ATOM     26  C   UNL     1       6.307   3.465  15.127  0.00  0.00    +0.000 C 
BRANCH  26  28
ATOM     27  C   UNL     1       7.469   4.918  13.430  0.00  0.00    +0.000 C 
ATOM     28  C   UNL     1       6.366   4.570  14.106  0.00  0.00    +0.000 C 
ENDBRANCH  26  28
ENDBRANCH   1  26
TORSDOF 6
ENDMDL
MODEL 5
REMARK VINA RESULT:      -7.1      4.158      7.619
REMARK  Name = 
REMARK  7 active torsions:
REMARK  status: ('A' for Active; 'I' for Inactive)
REMARK    1  A    between atoms: C_2  and  C_3
REMARK    2  A    between atoms: C_3  and  N_4
REMARK    3  A    between atoms: C_11  and  C_12
REMARK    4  A    between atoms: C_11  and  N_14
REMARK    5  A    between atoms: C_12  and  C_13
REMARK    6  A    between atoms: N_14  and  C_15
REMARK    7  A    between atoms: C_19  and  C_20
REMARK                            x       y       z     vdW  Elec       q    Type
REMARK                         _______ _______ _______ _____ _____    ______ ____
ROOT
ATOM      1  N   UNL     1       0.879  10.479  20.311  0.00  0.00    +0.000 N 
ATOM      2  C   UNL     1       0.798  11.067  19.070  0.00  0.00    +0.000 C 
ATOM      3  O   UNL     1       0.453  12.231  18.871  0.00  0.00    +0.000 OA
ATOM      4  N   UNL     1       1.171  10.306  18.006  0.00  0.00    +0.000 N 
ATOM      5  C   UNL     1       1.757   9.078  18.035  0.00  0.00    +0.000 C 
ATOM      6  O   UNL     1       2.299   8.634  17.026  0.00  0.00    +0.000 OA
ATOM      7  C   UNL     1       1.713   8.376  19.349  0.00  0.00    +0.000 C 
ATOM      8  C   UNL     1       1.982   7.037  19.391  0.00  0.00    +0.000 C 
ATOM      9  C   UNL     1       1.369   9.197  20.556  0.00  0.00    +0.000 C 
ATOM     10  O   UNL     1       1.580   8.788  21.697  0.00  0.00    +0.000 OA
ATOM     11  H   UNL     1       1.189  10.787  17.117  0.00  0.00    +0.000 HD
ENDROOT
BRANCH   8  12
ATOM     12  C   UNL     1       1.891   6.183  20.661  0.00  0.00    +0.000 C 
ATOM     13  C   UNL     1       1.191   4.841  20.452  0.00  0.00    +0.000 C 
ENDBRANCH   8  12
BRANCH   8  14
ATOM     14  N   UNL     1       2.419   6.281  18.290  0.00  0.00    +0.000 N 
ATOM     15  H   UNL     1       1.816   5.460  18.150  0.00  0.00    +0.000 HD
BRANCH  14  16
ATOM     16  C   UNL     1       3.754   5.809  18.101  0.00  0.00    +0.000 A 
ATOM     17  C   UNL     1       3.930   4.430  17.896  0.00  0.00    +0.000 A 
ATOM     18  C   UNL     1       5.186   3.890  17.622  0.00  0.00    +0.000 A 
ATOM     19  C   UNL     1       6.295   4.726  17.533  0.00  0.00    +0.000 A 
ATOM     20  C   UNL     1       6.152   6.108  17.725  0.00  0.00    +0.000 A 
ATOM     21  C   UNL     1       4.877   6.640  18.012  0.00  0.00    +0.000 A 
BRANCH  20  22
ATOM     22  C   UNL     1       7.344   7.026  17.602  0.00  0.00    +0.000 C 
ATOM     23  F   UNL     1       8.025   6.883  16.430  0.00  0.00    +0.000 F 
ATOM     24  F   UNL     1       6.996   8.341  17.669  0.00  0.00    +0.000 F 
ATOM     25  F   UNL     1       8.261   6.831  18.590  0.00  0.00    +0.000 F 
ENDBRANCH  20  22
ENDBRANCH  14  16
ENDBRANCH   8  14
BRANCH   1  26
ATOM     26  C   UNL     1       0.546  11.310  21.464  0.00  0.00    +0.000 C 
BRANCH  26  28
ATOM     27  C   UNL     1      -1.239  10.751  23.151  0.00  0.00    +0.000 C 
ATOM     28  C   UNL     1      -0.871  11.032  21.894  0.00  0.00    +0.000 C 
ENDBRANCH  26  28
ENDBRANCH   1  26
TORSDOF 6
ENDMDL
MODEL 6
REMARK VINA RESULT:      -7.1      4.619      7.906
REMARK  Name = 
REMARK  7 active torsions:
REMARK  status: ('A' for Active; 'I' for Inactive)
REMARK    1  A    between atoms: C_2  and  C_3
REMARK    2  A    between atoms: C_3  and  N_4
REMARK    3  A    between atoms: C_11  and  C_12
REMARK    4  A    between atoms: C_11  and  N_14
REMARK    5  A    between atoms: C_12  and  C_13
REMARK    6  A    between atoms: N_14  and  C_15
REMARK    7  A    between atoms: C_19  and  C_20
REMARK                            x       y       z     vdW  Elec       q    Type
REMARK                         _______ _______ _______ _____ _____    ______ ____
ROOT
ATOM      1  N   UNL     1       1.096   9.908  20.491  0.00  0.00    +0.000 N 
ATOM      2  C   UNL     1       0.993  10.628  19.324  0.00  0.00    +0.000 C 
ATOM      3  O   UNL     1       0.642  11.805  19.259  0.00  0.00    +0.000 OA
ATOM      4  N   UNL     1       1.350   9.990  18.177  0.00  0.00    +0.000 N 
ATOM      5  C   UNL     1       1.939   8.769  18.061  0.00  0.00    +0.000 C 
ATOM      6  O   UNL     1       2.465   8.441  17.001  0.00  0.00    +0.000 OA
ATOM      7  C   UNL     1       1.919   7.926  19.290  0.00  0.00    +0.000 C 
ATOM      8  C   UNL     1       2.192   6.592  19.181  0.00  0.00    +0.000 C 
ATOM      9  C   UNL     1       1.593   8.608  20.586  0.00  0.00    +0.000 C 
ATOM     10  O   UNL     1       1.824   8.078  21.671  0.00  0.00    +0.000 OA
ATOM     11  H   UNL     1       1.352  10.566  17.345  0.00  0.00    +0.000 HD
ENDROOT
BRANCH   8  12
ATOM     12  C   UNL     1       2.124   5.604  20.351  0.00  0.00    +0.000 C 
ATOM     13  C   UNL     1       1.284   4.361  20.059  0.00  0.00    +0.000 C 
ENDBRANCH   8  12
BRANCH   8  14
ATOM     14  N   UNL     1       2.612   5.963  17.996  0.00  0.00    +0.000 N 
ATOM     15  H   UNL     1       1.950   5.227  17.720  0.00  0.00    +0.000 HD
BRANCH  14  16
ATOM     16  C   UNL     1       3.910   5.406  17.784  0.00  0.00    +0.000 A 
ATOM     17  C   UNL     1       4.059   4.499  16.721  0.00  0.00    +0.000 A 
ATOM     18  C   UNL     1       5.304   3.967  16.388  0.00  0.00    +0.000 A 
ATOM     19  C   UNL     1       6.434   4.347  17.105  0.00  0.00    +0.000 A 
ATOM     20  C   UNL     1       6.322   5.257  18.167  0.00  0.00    +0.000 A 
ATOM     21  C   UNL     1       5.053   5.779  18.500  0.00  0.00    +0.000 A 
BRANCH  20  22
ATOM     22  C   UNL     1       7.545   5.697  18.932  0.00  0.00    +0.000 C 
ATOM     23  F   UNL     1       7.987   6.941  18.589  0.00  0.00    +0.000 F 
ATOM     24  F   UNL     1       7.331   5.739  20.277  0.00  0.00    +0.000 F 
ATOM     25  F   UNL     1       8.608   4.865  18.749  0.00  0.00    +0.000 F 
ENDBRANCH  20  22
ENDBRANCH  14  16
ENDBRANCH   8  14
BRANCH   1  26
ATOM     26  C   UNL     1       0.780  10.605  21.734  0.00  0.00    +0.000 C 
BRANCH  26  28
ATOM     27  C   UNL     1      -1.345  11.145  22.973  0.00  0.00    +0.000 C 
ATOM     28  C   UNL     1      -0.683  10.435  22.051  0.00  0.00    +0.000 C 
ENDBRANCH  26  28
ENDBRANCH   1  26
TORSDOF 6
ENDMDL
MODEL 7
REMARK VINA RESULT:      -7.1      3.913      7.661
REMARK  Name = 
REMARK  7 active torsions:
REMARK  status: ('A' for Active; 'I' for Inactive)
REMARK    1  A    between atoms: C_2  and  C_3
REMARK    2  A    between atoms: C_3  and  N_4
REMARK    3  A    between atoms: C_11  and  C_12
REMARK    4  A    between atoms: C_11  and  N_14
REMARK    5  A    between atoms: C_12  and  C_13
REMARK    6  A    between atoms: N_14  and  C_15
REMARK    7  A    between atoms: C_19  and  C_20
REMARK                            x       y       z     vdW  Elec       q    Type
REMARK                         _______ _______ _______ _____ _____    ______ ____
ROOT
ATOM      1  N   UNL     1       0.086  10.907  19.448  0.00  0.00    +0.000 N 
ATOM      2  C   UNL     1       0.061  11.122  20.806  0.00  0.00    +0.000 C 
ATOM      3  O   UNL     1      -0.496  12.074  21.351  0.00  0.00    +0.000 OA
ATOM      4  N   UNL     1       0.661  10.184  21.586  0.00  0.00    +0.000 N 
ATOM      5  C   UNL     1       1.156   8.979  21.194  0.00  0.00    +0.000 C 
ATOM      6  O   UNL     1       1.406   8.116  22.032  0.00  0.00    +0.000 OA
ATOM      7  C   UNL     1       1.323   8.800  19.723  0.00  0.00    +0.000 C 
ATOM      8  C   UNL     1       2.098   7.772  19.267  0.00  0.00    +0.000 C 
ATOM      9  C   UNL     1       0.622   9.779  18.828  0.00  0.00    +0.000 C 
ATOM     10  O   UNL     1       0.463   9.558  17.629  0.00  0.00    +0.000 OA
ATOM     11  H   UNL     1       0.551  10.316  22.583  0.00  0.00    +0.000 HD
ENDROOT
BRANCH   8  12
ATOM     12  C   UNL     1       2.415   7.529  17.786  0.00  0.00    +0.000 C 
ATOM     13  C   UNL     1       3.911   7.477  17.478  0.00  0.00    +0.000 C 
ENDBRANCH   8  12
BRANCH   8  14
ATOM     14  N   UNL     1       2.664   6.781  20.086  0.00  0.00    +0.000 N 
ATOM     15  H   UNL     1       3.689   6.861  20.099  0.00  0.00    +0.000 HD
BRANCH  14  16
ATOM     16  C   UNL     1       2.393   5.382  19.982  0.00  0.00    +0.000 A 
ATOM     17  C   UNL     1       1.363   4.861  20.785  0.00  0.00    +0.000 A 
ATOM     18  C   UNL     1       0.974   3.525  20.692  0.00  0.00    +0.000 A 
ATOM     19  C   UNL     1       1.599   2.684  19.777  0.00  0.00    +0.000 A 
ATOM     20  C   UNL     1       2.625   3.174  18.955  0.00  0.00    +0.000 A 
ATOM     21  C   UNL     1       3.016   4.526  19.068  0.00  0.00    +0.000 A 
BRANCH  20  22
ATOM     22  C   UNL     1       3.290   2.277  17.941  0.00  0.00    +0.000 C 
ATOM     23  F   UNL     1       4.325   2.870  17.281  0.00  0.00    +0.000 F 
ATOM     24  F   UNL     1       3.808   1.150  18.503  0.00  0.00    +0.000 F 
ATOM     25  F   UNL     1       2.431   1.851  16.973  0.00  0.00    +0.000 F 
ENDBRANCH  20  22
ENDBRANCH  14  16
ENDBRANCH   8  14
BRANCH   1  26
ATOM     26  C   UNL     1      -0.614  11.874  18.608  0.00  0.00    +0.000 C 
BRANCH  26  28
ATOM     27  C   UNL     1      -3.108  11.993  18.936  0.00  0.00    +0.000 C 
ATOM     28  C   UNL     1      -2.032  11.417  18.385  0.00  0.00    +0.000 C 
ENDBRANCH  26  28
ENDBRANCH   1  26
TORSDOF 6
ENDMDL
MODEL 8
REMARK VINA RESULT:      -7.1      4.278      7.845
REMARK  Name = 
REMARK  7 active torsions:
REMARK  status: ('A' for Active; 'I' for Inactive)
REMARK    1  A    between atoms: C_2  and  C_3
REMARK    2  A    between atoms: C_3  and  N_4
REMARK    3  A    between atoms: C_11  and  C_12
REMARK    4  A    between atoms: C_11  and  N_14
REMARK    5  A    between atoms: C_12  and  C_13
REMARK    6  A    between atoms: N_14  and  C_15
REMARK    7  A    between atoms: C_19  and  C_20
REMARK                            x       y       z     vdW  Elec       q    Type
REMARK                         _______ _______ _______ _____ _____    ______ ____
ROOT
ATOM      1  N   UNL     1      -0.421  11.295  19.499  0.00  0.00    +0.000 N 
ATOM      2  C   UNL     1      -0.382  11.636  20.831  0.00  0.00    +0.000 C 
ATOM      3  O   UNL     1      -0.946  12.616  21.317  0.00  0.00    +0.000 OA
ATOM      4  N   UNL     1       0.294  10.797  21.659  0.00  0.00    +0.000 N 
ATOM      5  C   UNL     1       0.815   9.577  21.352  0.00  0.00    +0.000 C 
ATOM      6  O   UNL     1       1.142   8.807  22.251  0.00  0.00    +0.000 OA
ATOM      7  C   UNL     1       0.911   9.267  19.898  0.00  0.00    +0.000 C 
ATOM      8  C   UNL     1       1.700   8.227  19.495  0.00  0.00    +0.000 C 
ATOM      9  C   UNL     1       0.125  10.132  18.957  0.00  0.00    +0.000 C 
ATOM     10  O   UNL     1      -0.088   9.794  17.794  0.00  0.00    +0.000 OA
ATOM     11  H   UNL     1       0.232  11.019  22.644  0.00  0.00    +0.000 HD
ENDROOT
BRANCH   8  12
ATOM     12  C   UNL     1       1.948   7.856  18.028  0.00  0.00    +0.000 C 
ATOM     13  C   UNL     1       3.390   8.072  17.574  0.00  0.00    +0.000 C 
ENDBRANCH   8  12
BRANCH   8  14
ATOM     14  N   UNL     1       2.346   7.337  20.369  0.00  0.00    +0.000 N 
ATOM     15  H   UNL     1       3.345   7.567  20.449  0.00  0.00    +0.000 HD
BRANCH  14  16
ATOM     16  C   UNL     1       2.289   5.913  20.275  0.00  0.00    +0.000 A 
ATOM     17  C   UNL     1       1.058   5.295  20.554  0.00  0.00    +0.000 A 
ATOM     18  C   UNL     1       0.886   3.918  20.408  0.00  0.00    +0.000 A 
ATOM     19  C   UNL     1       1.944   3.131  19.963  0.00  0.00    +0.000 A 
ATOM     20  C   UNL     1       3.184   3.718  19.668  0.00  0.00    +0.000 A 
ATOM     21  C   UNL     1       3.347   5.111  19.831  0.00  0.00    +0.000 A 
BRANCH  20  22
ATOM     22  C   UNL     1       4.328   2.878  19.158  0.00  0.00    +0.000 C 
ATOM     23  F   UNL     1       5.437   3.602  18.835  0.00  0.00    +0.000 F 
ATOM     24  F   UNL     1       4.742   1.955  20.070  0.00  0.00    +0.000 F 
ATOM     25  F   UNL     1       4.005   2.176  18.036  0.00  0.00    +0.000 F 
ENDBRANCH  20  22
ENDBRANCH  14  16
ENDBRANCH   8  14
BRANCH   1  26
ATOM     26  C   UNL     1      -1.202  12.155  18.614  0.00  0.00    +0.000 C 
BRANCH  26  28
ATOM     27  C   UNL     1      -3.314  11.388  17.477  0.00  0.00    +0.000 C 
ATOM     28  C   UNL     1      -2.633  11.688  18.591  0.00  0.00    +0.000 C 
ENDBRANCH  26  28
ENDBRANCH   1  26
TORSDOF 6
ENDMDL
MODEL 9
REMARK VINA RESULT:      -7.1      1.737      2.309
REMARK  Name = 
REMARK  7 active torsions:
REMARK  status: ('A' for Active; 'I' for Inactive)
REMARK    1  A    between atoms: C_2  and  C_3
REMARK    2  A    between atoms: C_3  and  N_4
REMARK    3  A    between atoms: C_11  and  C_12
REMARK    4  A    between atoms: C_11  and  N_14
REMARK    5  A    between atoms: C_12  and  C_13
REMARK    6  A    between atoms: N_14  and  C_15
REMARK    7  A    between atoms: C_19  and  C_20
REMARK                            x       y       z     vdW  Elec       q    Type
REMARK                         _______ _______ _______ _____ _____    ______ ____
ROOT
ATOM      1  N   UNL     1       3.259   5.419  19.190  0.00  0.00    +0.000 N 
ATOM      2  C   UNL     1       3.985   5.774  18.077  0.00  0.00    +0.000 C 
ATOM      3  O   UNL     1       4.766   5.029  17.487  0.00  0.00    +0.000 OA
ATOM      4  N   UNL     1       3.779   7.025  17.584  0.00  0.00    +0.000 N 
ATOM      5  C   UNL     1       2.829   7.918  17.972  0.00  0.00    +0.000 C 
ATOM      6  O   UNL     1       2.570   8.884  17.260  0.00  0.00    +0.000 OA
ATOM      7  C   UNL     1       2.143   7.609  19.259  0.00  0.00    +0.000 C 
ATOM      8  C   UNL     1       1.423   8.592  19.877  0.00  0.00    +0.000 C 
ATOM      9  C   UNL     1       2.294   6.219  19.802  0.00  0.00    +0.000 C 
ATOM     10  O   UNL     1       1.555   5.786  20.684  0.00  0.00    +0.000 OA
ATOM     11  H   UNL     1       4.255   7.230  16.716  0.00  0.00    +0.000 HD
ENDROOT
BRANCH   8  12
ATOM     12  C   UNL     1       0.741   8.428  21.240  0.00  0.00    +0.000 C 
ATOM     13  C   UNL     1       1.379   9.259  22.352  0.00  0.00    +0.000 C 
ENDBRANCH   8  12
BRANCH   8  14
ATOM     14  N   UNL     1       1.177   9.861  19.324  0.00  0.00    +0.000 N 
ATOM     15  H   UNL     1       1.607  10.597  19.899  0.00  0.00    +0.000 HD
BRANCH  14  16
ATOM     16  C   UNL     1      -0.113  10.360  18.968  0.00  0.00    +0.000 A 
ATOM     17  C   UNL     1      -0.747   9.778  17.857  0.00  0.00    +0.000 A 
ATOM     18  C   UNL     1      -2.041  10.143  17.484  0.00  0.00    +0.000 A 
ATOM     19  C   UNL     1      -2.734  11.092  18.229  0.00  0.00    +0.000 A 
ATOM     20  C   UNL     1      -2.133  11.686  19.348  0.00  0.00    +0.000 A 
ATOM     21  C   UNL     1      -0.819  11.315  19.708  0.00  0.00    +0.000 A 
BRANCH  20  22
ATOM     22  C   UNL     1      -2.887  12.695  20.178  0.00  0.00    +0.000 C 
ATOM     23  F   UNL     1      -4.152  12.937  19.729  0.00  0.00    +0.000 F 
ATOM     24  F   UNL     1      -3.025  12.303  21.476  0.00  0.00    +0.000 F 
ATOM     25  F   UNL     1      -2.271  13.909  20.218  0.00  0.00    +0.000 F 
ENDBRANCH  20  22
ENDBRANCH  14  16
ENDBRANCH   8  14
BRANCH   1  26
ATOM     26  C   UNL     1       3.423   4.055  19.685  0.00  0.00    +0.000 C 
BRANCH  26  28
ATOM     27  C   UNL     1       2.904   2.090  18.198  0.00  0.00    +0.000 C 
ATOM     28  C   UNL     1       2.498   3.132  18.936  0.00  0.00    +0.000 C 
ENDBRANCH  26  28
ENDBRANCH   1  26
TORSDOF 6
ENDMDL
