MODEL 1
REMARK VINA RESULT:      -6.6      0.000      0.000
REMARK  Name = 
REMARK  1 active torsions:
REMARK  status: ('A' for Active; 'I' for Inactive)
REMARK    1  A    between atoms: C_5  and  C_6
REMARK                            x       y       z     vdW  Elec       q    Type
REMARK                         _______ _______ _______ _____ _____    ______ ____
ROOT
ATOM      1 CL   UNL     1       1.405   2.571  21.749  0.00  0.00    +0.000 Cl
ATOM      2  C   UNL     1       2.422   3.167  20.488  0.00  0.00    +0.000 A 
ATOM      3  C   UNL     1       3.273   2.254  19.861  0.00  0.00    +0.000 A 
ATOM      4  C   UNL     1       4.105   2.680  18.826  0.00  0.00    +0.000 A 
ATOM      5  C   UNL     1       4.099   4.017  18.404  0.00  0.00    +0.000 A 
ATOM      6  C   UNL     1       3.255   4.933  19.039  0.00  0.00    +0.000 A 
ATOM      7  C   UNL     1       2.418   4.507  20.083  0.00  0.00    +0.000 A 
ATOM      8 CL   UNL     1       1.399   5.689  20.825  0.00  0.00    +0.000 Cl
ENDROOT
BRANCH   5   9
ATOM      9  C   UNL     1       4.994   4.392  17.316  0.00  0.00    +0.000 C 
ATOM     10  C   UNL     1       4.872   3.948  16.048  0.00  0.00    +0.000 C 
ATOM     11  S   UNL     1       5.958   4.812  14.950  0.00  0.00    +0.000 S 
ATOM     12  C   UNL     1       6.611   5.700  16.305  0.00  0.00    +0.000 C 
ATOM     13  N   UNL     1       7.603   6.532  16.338  0.00  0.00    +0.000 NA
ATOM     14  C   UNL     1       7.743   6.775  17.824  0.00  0.00    +0.000 C 
ATOM     15  C   UNL     1       6.608   6.002  18.556  0.00  0.00    +0.000 C 
ATOM     16  N   UNL     1       5.958   5.367  17.453  0.00  0.00    +0.000 N 
ENDBRANCH   5   9
TORSDOF 1
ENDMDL
MODEL 2
REMARK VINA RESULT:      -6.4      1.698      2.566
REMARK  Name = 
REMARK  1 active torsions:
REMARK  status: ('A' for Active; 'I' for Inactive)
REMARK    1  A    between atoms: C_5  and  C_6
REMARK                            x       y       z     vdW  Elec       q    Type
REMARK                         _______ _______ _______ _____ _____    ______ ____
ROOT
ATOM      1 CL   UNL     1       0.343   2.554  19.638  0.00  0.00    +0.000 Cl
ATOM      2  C   UNL     1       1.792   3.327  19.104  0.00  0.00    +0.000 A 
ATOM      3  C   UNL     1       1.742   4.029  17.898  0.00  0.00    +0.000 A 
ATOM      4  C   UNL     1       2.880   4.683  17.429  0.00  0.00    +0.000 A 
ATOM      5  C   UNL     1       4.079   4.648  18.155  0.00  0.00    +0.000 A 
ATOM      6  C   UNL     1       4.133   3.936  19.357  0.00  0.00    +0.000 A 
ATOM      7  C   UNL     1       2.989   3.274  19.830  0.00  0.00    +0.000 A 
ATOM      8 CL   UNL     1       3.122   2.413  21.322  0.00  0.00    +0.000 Cl
ENDROOT
BRANCH   5   9
ATOM      9  C   UNL     1       5.229   5.356  17.605  0.00  0.00    +0.000 C 
ATOM     10  C   UNL     1       5.862   6.371  18.228  0.00  0.00    +0.000 C 
ATOM     11  S   UNL     1       7.364   6.807  17.400  0.00  0.00    +0.000 S 
ATOM     12  C   UNL     1       7.017   5.623  16.163  0.00  0.00    +0.000 C 
ATOM     13  N   UNL     1       7.649   5.382  15.059  0.00  0.00    +0.000 NA
ATOM     14  C   UNL     1       6.723   4.391  14.391  0.00  0.00    +0.000 C 
ATOM     15  C   UNL     1       5.547   4.086  15.364  0.00  0.00    +0.000 C 
ATOM     16  N   UNL     1       5.876   4.942  16.461  0.00  0.00    +0.000 N 
ENDBRANCH   5   9
TORSDOF 1
ENDMDL
MODEL 3
REMARK VINA RESULT:      -6.4      1.132      1.664
REMARK  Name = 
REMARK  1 active torsions:
REMARK  status: ('A' for Active; 'I' for Inactive)
REMARK    1  A    between atoms: C_5  and  C_6
REMARK                            x       y       z     vdW  Elec       q    Type
REMARK                         _______ _______ _______ _____ _____    ______ ____
ROOT
ATOM      1 CL   UNL     1       0.358   3.137  20.334  0.00  0.00    +0.000 Cl
ATOM      2  C   UNL     1       1.782   3.431  19.402  0.00  0.00    +0.000 A 
ATOM      3  C   UNL     1       1.625   4.057  18.164  0.00  0.00    +0.000 A 
ATOM      4  C   UNL     1       2.743   4.330  17.378  0.00  0.00    +0.000 A 
ATOM      5  C   UNL     1       4.030   3.986  17.816  0.00  0.00    +0.000 A 
ATOM      6  C   UNL     1       4.187   3.348  19.051  0.00  0.00    +0.000 A 
ATOM      7  C   UNL     1       3.061   3.070  19.843  0.00  0.00    +0.000 A 
ATOM      8 CL   UNL     1       3.324   2.281  21.358  0.00  0.00    +0.000 Cl
ENDROOT
BRANCH   5   9
ATOM      9  C   UNL     1       5.154   4.303  16.944  0.00  0.00    +0.000 C 
ATOM     10  C   UNL     1       5.405   3.677  15.775  0.00  0.00    +0.000 C 
ATOM     11  S   UNL     1       6.681   4.494  14.861  0.00  0.00    +0.000 S 
ATOM     12  C   UNL     1       6.887   5.627  16.175  0.00  0.00    +0.000 C 
ATOM     13  N   UNL     1       7.774   6.559  16.322  0.00  0.00    +0.000 NA
ATOM     14  C   UNL     1       7.497   7.019  17.736  0.00  0.00    +0.000 C 
ATOM     15  C   UNL     1       6.264   6.235  18.273  0.00  0.00    +0.000 C 
ATOM     16  N   UNL     1       5.977   5.387  17.159  0.00  0.00    +0.000 N 
ENDBRANCH   5   9
TORSDOF 1
ENDMDL
MODEL 4
REMARK VINA RESULT:      -6.3      3.266      5.049
REMARK  Name = 
REMARK  1 active torsions:
REMARK  status: ('A' for Active; 'I' for Inactive)
REMARK    1  A    between atoms: C_5  and  C_6
REMARK                            x       y       z     vdW  Elec       q    Type
REMARK                         _______ _______ _______ _____ _____    ______ ____
ROOT
ATOM      1 CL   UNL     1       0.595  10.907  19.552  0.00  0.00    +0.000 Cl
ATOM      2  C   UNL     1       1.394   9.429  19.152  0.00  0.00    +0.000 A 
ATOM      3  C   UNL     1       1.867   9.285  17.846  0.00  0.00    +0.000 A 
ATOM      4  C   UNL     1       2.532   8.118  17.474  0.00  0.00    +0.000 A 
ATOM      5  C   UNL     1       2.735   7.083  18.397  0.00  0.00    +0.000 A 
ATOM      6  C   UNL     1       2.251   7.221  19.702  0.00  0.00    +0.000 A 
ATOM      7  C   UNL     1       1.579   8.395  20.078  0.00  0.00    +0.000 A 
ATOM      8 CL   UNL     1       1.008   8.504  21.705  0.00  0.00    +0.000 Cl
ENDROOT
BRANCH   5   9
ATOM      9  C   UNL     1       3.439   5.891  17.940  0.00  0.00    +0.000 C 
ATOM     10  C   UNL     1       4.696   5.896  17.448  0.00  0.00    +0.000 C 
ATOM     11  S   UNL     1       5.321   4.252  17.246  0.00  0.00    +0.000 S 
ATOM     12  C   UNL     1       3.782   3.610  17.767  0.00  0.00    +0.000 C 
ATOM     13  N   UNL     1       3.376   2.381  17.801  0.00  0.00    +0.000 NA
ATOM     14  C   UNL     1       1.918   2.554  18.165  0.00  0.00    +0.000 C 
ATOM     15  C   UNL     1       1.650   4.069  18.402  0.00  0.00    +0.000 C 
ATOM     16  N   UNL     1       2.938   4.620  18.118  0.00  0.00    +0.000 N 
ENDBRANCH   5   9
TORSDOF 1
ENDMDL
MODEL 5
REMARK VINA RESULT:      -6.3      3.707      5.691
REMARK  Name = 
REMARK  1 active torsions:
REMARK  status: ('A' for Active; 'I' for Inactive)
REMARK    1  A    between atoms: C_5  and  C_6
REMARK                            x       y       z     vdW  Elec       q    Type
REMARK                         _______ _______ _______ _____ _____    ______ ____
ROOT
ATOM      1 CL   UNL     1       0.361  11.223  19.017  0.00  0.00    +0.000 Cl
ATOM      2  C   UNL     1       1.091   9.664  19.159  0.00  0.00    +0.000 A 
ATOM      3  C   UNL     1       1.656   9.110  18.008  0.00  0.00    +0.000 A 
ATOM      4  C   UNL     1       2.271   7.860  18.071  0.00  0.00    +0.000 A 
ATOM      5  C   UNL     1       2.332   7.150  19.279  0.00  0.00    +0.000 A 
ATOM      6  C   UNL     1       1.756   7.699  20.428  0.00  0.00    +0.000 A 
ATOM      7  C   UNL     1       1.134   8.957  20.367  0.00  0.00    +0.000 A 
ATOM      8 CL   UNL     1       0.443   9.580  21.823  0.00  0.00    +0.000 Cl
ENDROOT
BRANCH   5   9
ATOM      9  C   UNL     1       2.991   5.849  19.271  0.00  0.00    +0.000 C 
ATOM     10  C   UNL     1       4.203   5.618  18.726  0.00  0.00    +0.000 C 
ATOM     11  S   UNL     1       4.802   4.004  19.135  0.00  0.00    +0.000 S 
ATOM     12  C   UNL     1       3.308   3.670  19.976  0.00  0.00    +0.000 C 
ATOM     13  N   UNL     1       2.901   2.566  20.516  0.00  0.00    +0.000 NA
ATOM     14  C   UNL     1       1.479   2.919  20.890  0.00  0.00    +0.000 C 
ATOM     15  C   UNL     1       1.237   4.416  20.537  0.00  0.00    +0.000 C 
ATOM     16  N   UNL     1       2.500   4.766  19.967  0.00  0.00    +0.000 N 
ENDBRANCH   5   9
TORSDOF 1
ENDMDL
MODEL 6
REMARK VINA RESULT:      -6.3      3.662      5.645
REMARK  Name = 
REMARK  1 active torsions:
REMARK  status: ('A' for Active; 'I' for Inactive)
REMARK    1  A    between atoms: C_5  and  C_6
REMARK                            x       y       z     vdW  Elec       q    Type
REMARK                         _______ _______ _______ _____ _____    ______ ____
ROOT
ATOM      1 CL   UNL     1       8.023   8.138  17.424  0.00  0.00    +0.000 Cl
ATOM      2  C   UNL     1       6.815   6.934  17.699  0.00  0.00    +0.000 A 
ATOM      3  C   UNL     1       5.665   6.983  16.908  0.00  0.00    +0.000 A 
ATOM      4  C   UNL     1       4.665   6.026  17.079  0.00  0.00    +0.000 A 
ATOM      5  C   UNL     1       4.800   5.010  18.036  0.00  0.00    +0.000 A 
ATOM      6  C   UNL     1       5.946   4.968  18.836  0.00  0.00    +0.000 A 
ATOM      7  C   UNL     1       6.953   5.932  18.667  0.00  0.00    +0.000 A 
ATOM      8 CL   UNL     1       8.344   5.823  19.687  0.00  0.00    +0.000 Cl
ENDROOT
BRANCH   5   9
ATOM      9  C   UNL     1       3.716   4.043  18.160  0.00  0.00    +0.000 C 
ATOM     10  C   UNL     1       3.623   2.912  17.430  0.00  0.00    +0.000 C 
ATOM     11  S   UNL     1       2.336   1.856  18.029  0.00  0.00    +0.000 S 
ATOM     12  C   UNL     1       1.909   3.062  19.219  0.00  0.00    +0.000 C 
ATOM     13  N   UNL     1       0.917   3.078  20.051  0.00  0.00    +0.000 NA
ATOM     14  C   UNL     1       1.035   4.467  20.636  0.00  0.00    +0.000 C 
ATOM     15  C   UNL     1       2.304   5.144  20.038  0.00  0.00    +0.000 C 
ATOM     16  N   UNL     1       2.764   4.120  19.154  0.00  0.00    +0.000 N 
ENDBRANCH   5   9
TORSDOF 1
ENDMDL
MODEL 7
REMARK VINA RESULT:      -6.3      1.266      2.048
REMARK  Name = 
REMARK  1 active torsions:
REMARK  status: ('A' for Active; 'I' for Inactive)
REMARK    1  A    between atoms: C_5  and  C_6
REMARK                            x       y       z     vdW  Elec       q    Type
REMARK                         _______ _______ _______ _____ _____    ______ ____
ROOT
ATOM      1 CL   UNL     1       1.517   2.509  21.466  0.00  0.00    +0.000 Cl
ATOM      2  C   UNL     1       2.645   3.395  20.503  0.00  0.00    +0.000 A 
ATOM      3  C   UNL     1       3.759   2.707  20.017  0.00  0.00    +0.000 A 
ATOM      4  C   UNL     1       4.692   3.371  19.224  0.00  0.00    +0.000 A 
ATOM      5  C   UNL     1       4.527   4.726  18.902  0.00  0.00    +0.000 A 
ATOM      6  C   UNL     1       3.419   5.418  19.398  0.00  0.00    +0.000 A 
ATOM      7  C   UNL     1       2.478   4.752  20.200  0.00  0.00    +0.000 A 
ATOM      8 CL   UNL     1       1.130   5.665  20.780  0.00  0.00    +0.000 Cl
ENDROOT
BRANCH   5   9
ATOM      9  C   UNL     1       5.542   5.356  18.067  0.00  0.00    +0.000 C 
ATOM     10  C   UNL     1       6.317   6.386  18.465  0.00  0.00    +0.000 C 
ATOM     11  S   UNL     1       7.609   6.715  17.301  0.00  0.00    +0.000 S 
ATOM     12  C   UNL     1       6.975   5.468  16.255  0.00  0.00    +0.000 C 
ATOM     13  N   UNL     1       7.344   5.135  15.059  0.00  0.00    +0.000 NA
ATOM     14  C   UNL     1       6.274   4.135  14.680  0.00  0.00    +0.000 C 
ATOM     15  C   UNL     1       5.335   3.935  15.906  0.00  0.00    +0.000 C 
ATOM     16  N   UNL     1       5.914   4.847  16.841  0.00  0.00    +0.000 N 
ENDBRANCH   5   9
TORSDOF 1
ENDMDL
MODEL 8
REMARK VINA RESULT:      -6.1      4.061      5.822
REMARK  Name = 
REMARK  1 active torsions:
REMARK  status: ('A' for Active; 'I' for Inactive)
REMARK    1  A    between atoms: C_5  and  C_6
REMARK                            x       y       z     vdW  Elec       q    Type
REMARK                         _______ _______ _______ _____ _____    ______ ____
ROOT
ATOM      1 CL   UNL     1       7.109   4.901  14.623  0.00  0.00    +0.000 Cl
ATOM      2  C   UNL     1       6.071   5.051  15.995  0.00  0.00    +0.000 A 
ATOM      3  C   UNL     1       4.957   4.212  16.056  0.00  0.00    +0.000 A 
ATOM      4  C   UNL     1       4.095   4.282  17.149  0.00  0.00    +0.000 A 
ATOM      5  C   UNL     1       4.332   5.186  18.194  0.00  0.00    +0.000 A 
ATOM      6  C   UNL     1       5.441   6.035  18.128  0.00  0.00    +0.000 A 
ATOM      7  C   UNL     1       6.310   5.968  17.027  0.00  0.00    +0.000 A 
ATOM      8 CL   UNL     1       7.663   7.043  17.008  0.00  0.00    +0.000 Cl
ENDROOT
BRANCH   5   9
ATOM      9  C   UNL     1       3.390   5.204  19.306  0.00  0.00    +0.000 C 
ATOM     10  C   UNL     1       2.594   6.252  19.606  0.00  0.00    +0.000 C 
ATOM     11  S   UNL     1       1.399   5.827  20.840  0.00  0.00    +0.000 S 
ATOM     12  C   UNL     1       2.103   4.233  20.964  0.00  0.00    +0.000 C 
ATOM     13  N   UNL     1       1.825   3.276  21.790  0.00  0.00    +0.000 NA
ATOM     14  C   UNL     1       2.914   2.276  21.471  0.00  0.00    +0.000 C 
ATOM     15  C   UNL     1       3.753   2.828  20.283  0.00  0.00    +0.000 C 
ATOM     16  N   UNL     1       3.111   4.085  20.059  0.00  0.00    +0.000 N 
ENDBRANCH   5   9
TORSDOF 1
ENDMDL
MODEL 9
REMARK VINA RESULT:      -6.1      3.090      4.347
REMARK  Name = 
REMARK  1 active torsions:
REMARK  status: ('A' for Active; 'I' for Inactive)
REMARK    1  A    between atoms: C_5  and  C_6
REMARK                            x       y       z     vdW  Elec       q    Type
REMARK                         _______ _______ _______ _____ _____    ______ ____
ROOT
ATOM      1 CL   UNL     1       0.502  10.962  19.588  0.00  0.00    +0.000 Cl
ATOM      2  C   UNL     1       1.273   9.458  19.236  0.00  0.00    +0.000 A 
ATOM      3  C   UNL     1       1.667   9.228  17.916  0.00  0.00    +0.000 A 
ATOM      4  C   UNL     1       2.307   8.036  17.581  0.00  0.00    +0.000 A 
ATOM      5  C   UNL     1       2.563   7.060  18.555  0.00  0.00    +0.000 A 
ATOM      6  C   UNL     1       2.158   7.284  19.874  0.00  0.00    +0.000 A 
ATOM      7  C   UNL     1       1.511   8.484  20.214  0.00  0.00    +0.000 A 
ATOM      8 CL   UNL     1       1.038   8.699  21.862  0.00  0.00    +0.000 Cl
ENDROOT
BRANCH   5   9
ATOM      9  C   UNL     1       3.237   5.838  18.133  0.00  0.00    +0.000 C 
ATOM     10  C   UNL     1       2.689   4.607  18.209  0.00  0.00    +0.000 C 
ATOM     11  S   UNL     1       3.676   3.404  17.368  0.00  0.00    +0.000 S 
ATOM     12  C   UNL     1       4.864   4.635  17.014  0.00  0.00    +0.000 C 
ATOM     13  N   UNL     1       6.029   4.515  16.462  0.00  0.00    +0.000 NA
ATOM     14  C   UNL     1       6.589   5.910  16.633  0.00  0.00    +0.000 C 
ATOM     15  C   UNL     1       5.493   6.801  17.288  0.00  0.00    +0.000 C 
ATOM     16  N   UNL     1       4.442   5.849  17.466  0.00  0.00    +0.000 N 
ENDBRANCH   5   9
TORSDOF 1
ENDMDL
