MODEL 1
REMARK VINA RESULT:      -8.5      0.000      0.000
REMARK  Name = 
REMARK  12 active torsions:
REMARK  status: ('A' for Active; 'I' for Inactive)
REMARK    1  A    between atoms: C_1  and  C_2
REMARK    2  A    between atoms: C_2  and  C_3
REMARK    3  A    between atoms: C_6  and  C_7
REMARK    4  A    between atoms: C_7  and  C_8
REMARK    5  A    between atoms: C_9  and  C_10
REMARK    6  A    between atoms: C_10  and  C_11
REMARK    7  A    between atoms: C_11  and  C_12
REMARK    8  A    between atoms: C_12  and  C_13
REMARK    9  A    between atoms: C_13  and  O_15
REMARK   10  A    between atoms: C_16  and  N_17
REMARK   11  A    between atoms: C_18  and  C_20
REMARK   12  A    between atoms: C_25  and  O_26
REMARK                            x       y       z     vdW  Elec       q    Type
REMARK                         _______ _______ _______ _____ _____    ______ ____
ROOT
ATOM      1  C   UNL     1       2.033   2.705  21.852  0.00  0.00    +0.000 C 
ATOM      2  C   UNL     1       2.084   3.198  20.394  0.00  0.00    +0.000 C 
ATOM      3  C   UNL     1       0.657   3.547  19.967  0.00  0.00    +0.000 C 
ATOM      4  C   UNL     1       2.913   2.264  19.441  0.00  0.00    +0.000 C 
ATOM      5  C   UNL     1       2.747   2.511  17.945  0.00  0.00    +0.000 C 
ATOM      6  C   UNL     1       2.835   4.018  17.575  0.00  0.00    +0.000 C 
ATOM      7  C   UNL     1       3.278   4.954  18.739  0.00  0.00    +0.000 C 
ATOM      8  C   UNL     1       3.252   4.231  20.090  0.00  0.00    +0.000 C 
ATOM      9  C   UNL     1       4.184   2.991  19.957  0.00  0.00    +0.000 C 
ENDROOT
BRANCH   7  10
ATOM     10  N   UNL     1       2.401   6.110  18.876  0.00  0.00    +0.000 N 
ATOM     11  C   UNL     1       2.814   7.402  18.605  0.00  0.00    +0.000 C 
ATOM     12  O   UNL     1       3.946   7.670  18.220  0.00  0.00    +0.000 OA
ATOM     13  H   UNL     1       1.424   5.950  19.075  0.00  0.00    +0.000 HD
BRANCH  11  14
ATOM     14  C   UNL     1       1.768   8.417  18.750  0.00  0.00    +0.000 A 
ATOM     15  C   UNL     1       1.169   9.074  17.690  0.00  0.00    +0.000 A 
ATOM     16  S   UNL     1       0.012  10.222  18.177  0.00  0.00    +0.000 S 
ATOM     17  C   UNL     1       0.269   9.880  19.843  0.00  0.00    +0.000 A 
ATOM     18  C   UNL     1      -0.355  10.517  20.938  0.00  0.00    +0.000 A 
ATOM     19  C   UNL     1      -0.014  10.108  22.224  0.00  0.00    +0.000 A 
ATOM     20  C   UNL     1       0.891   9.085  22.436  0.00  0.00    +0.000 A 
ATOM     21  C   UNL     1       1.502   8.460  21.346  0.00  0.00    +0.000 A 
ATOM     22  C   UNL     1       1.209   8.862  20.016  0.00  0.00    +0.000 A 
BRANCH  19  23
ATOM     23  O   UNL     1      -0.556  10.706  23.324  0.00  0.00    +0.000 OA
ATOM     24  H   UNL     1      -0.112  11.559  23.466  0.00  0.00    +0.000 HD
ENDBRANCH  19  23
ENDBRANCH  11  14
ENDBRANCH   7  10
BRANCH   6  25
ATOM     25  C   UNL     1       3.771   4.204  16.364  0.00  0.00    +0.000 C 
BRANCH  25  26
ATOM     26  C   UNL     1       4.477   5.536  16.409  0.00  0.00    +0.000 C 
ATOM     27  C   UNL     1       5.793   5.738  16.258  0.00  0.00    +0.000 C 
BRANCH  27  28
ATOM     28  C   UNL     1       6.802   4.667  15.988  0.00  0.00    +0.000 C 
BRANCH  28  29
ATOM     29  C   UNL     1       7.737   4.440  17.169  0.00  0.00    +0.000 C 
BRANCH  29  30
ATOM     30  C   UNL     1       7.028   4.838  18.462  0.00  0.00    +0.000 C 
BRANCH  30  31
ATOM     31  C   UNL     1       7.832   5.845  19.247  0.00  0.00    +0.000 C 
ATOM     32  O   UNL     1       8.273   6.899  18.812  0.00  0.00    +0.000 OA
BRANCH  31  33
ATOM     33  O   UNL     1       8.030   5.451  20.522  0.00  0.00    +0.000 OA
ATOM     34  H   UNL     1       7.670   6.066  21.189  0.00  0.00    +0.000 HD
ENDBRANCH  31  33
ENDBRANCH  30  31
ENDBRANCH  29  30
ENDBRANCH  28  29
ENDBRANCH  27  28
ENDBRANCH  25  26
ENDBRANCH   6  25
TORSDOF 10
ENDMDL
MODEL 2
REMARK VINA RESULT:      -8.5      2.680      3.427
REMARK  Name = 
REMARK  12 active torsions:
REMARK  status: ('A' for Active; 'I' for Inactive)
REMARK    1  A    between atoms: C_1  and  C_2
REMARK    2  A    between atoms: C_2  and  C_3
REMARK    3  A    between atoms: C_6  and  C_7
REMARK    4  A    between atoms: C_7  and  C_8
REMARK    5  A    between atoms: C_9  and  C_10
REMARK    6  A    between atoms: C_10  and  C_11
REMARK    7  A    between atoms: C_11  and  C_12
REMARK    8  A    between atoms: C_12  and  C_13
REMARK    9  A    between atoms: C_13  and  O_15
REMARK   10  A    between atoms: C_16  and  N_17
REMARK   11  A    between atoms: C_18  and  C_20
REMARK   12  A    between atoms: C_25  and  O_26
REMARK                            x       y       z     vdW  Elec       q    Type
REMARK                         _______ _______ _______ _____ _____    ______ ____
ROOT
ATOM      1  C   UNL     1       2.010   2.566  21.106  0.00  0.00    +0.000 C 
ATOM      2  C   UNL     1       2.308   3.373  19.829  0.00  0.00    +0.000 C 
ATOM      3  C   UNL     1       0.973   3.711  19.164  0.00  0.00    +0.000 C 
ATOM      4  C   UNL     1       3.421   2.732  18.924  0.00  0.00    +0.000 C 
ATOM      5  C   UNL     1       3.547   3.294  17.511  0.00  0.00    +0.000 C 
ATOM      6  C   UNL     1       3.536   4.848  17.483  0.00  0.00    +0.000 C 
ATOM      7  C   UNL     1       3.614   5.529  18.882  0.00  0.00    +0.000 C 
ATOM      8  C   UNL     1       3.388   4.524  20.016  0.00  0.00    +0.000 C 
ATOM      9  C   UNL     1       4.463   3.410  19.854  0.00  0.00    +0.000 C 
ENDROOT
BRANCH   7  10
ATOM     10  N   UNL     1       2.600   6.564  19.044  0.00  0.00    +0.000 N 
ATOM     11  C   UNL     1       2.715   7.823  18.481  0.00  0.00    +0.000 C 
ATOM     12  O   UNL     1       3.675   8.157  17.795  0.00  0.00    +0.000 OA
ATOM     13  H   UNL     1       1.732   6.319  19.497  0.00  0.00    +0.000 HD
BRANCH  11  14
ATOM     14  C   UNL     1       1.565   8.699  18.713  0.00  0.00    +0.000 A 
ATOM     15  C   UNL     1       0.824   9.294  17.708  0.00  0.00    +0.000 A 
ATOM     16  S   UNL     1      -0.429  10.285  18.292  0.00  0.00    +0.000 S 
ATOM     17  C   UNL     1      -0.027   9.952  19.930  0.00  0.00    +0.000 A 
ATOM     18  C   UNL     1      -0.651  10.490  21.076  0.00  0.00    +0.000 A 
ATOM     19  C   UNL     1      -0.181  10.107  22.330  0.00  0.00    +0.000 A 
ATOM     20  C   UNL     1       0.854   9.199  22.461  0.00  0.00    +0.000 A 
ATOM     21  C   UNL     1       1.464   8.671  21.322  0.00  0.00    +0.000 A 
ATOM     22  C   UNL     1       1.040   9.054  20.022  0.00  0.00    +0.000 A 
BRANCH  19  23
ATOM     23  O   UNL     1      -0.719  10.618  23.474  0.00  0.00    +0.000 OA
ATOM     24  H   UNL     1      -1.632  10.897  23.293  0.00  0.00    +0.000 HD
ENDBRANCH  19  23
ENDBRANCH  11  14
ENDBRANCH   7  10
BRANCH   6  25
ATOM     25  C   UNL     1       4.677   5.361  16.583  0.00  0.00    +0.000 C 
BRANCH  25  26
ATOM     26  C   UNL     1       5.884   4.459  16.650  0.00  0.00    +0.000 C 
ATOM     27  C   UNL     1       6.726   4.190  15.643  0.00  0.00    +0.000 C 
BRANCH  27  28
ATOM     28  C   UNL     1       6.631   4.766  14.266  0.00  0.00    +0.000 C 
BRANCH  28  29
ATOM     29  C   UNL     1       6.420   3.696  13.203  0.00  0.00    +0.000 C 
BRANCH  29  30
ATOM     30  C   UNL     1       5.005   3.808  12.641  0.00  0.00    +0.000 C 
BRANCH  30  31
ATOM     31  C   UNL     1       4.767   2.808  11.537  0.00  0.00    +0.000 C 
ATOM     32  O   UNL     1       5.459   1.828  11.301  0.00  0.00    +0.000 OA
BRANCH  31  33
ATOM     33  O   UNL     1       3.677   3.115  10.802  0.00  0.00    +0.000 OA
ATOM     34  H   UNL     1       2.836   2.807  11.189  0.00  0.00    +0.000 HD
ENDBRANCH  31  33
ENDBRANCH  30  31
ENDBRANCH  29  30
ENDBRANCH  28  29
ENDBRANCH  27  28
ENDBRANCH  25  26
ENDBRANCH   6  25
TORSDOF 10
ENDMDL
MODEL 3
REMARK VINA RESULT:      -8.4      0.879      1.061
REMARK  Name = 
REMARK  12 active torsions:
REMARK  status: ('A' for Active; 'I' for Inactive)
REMARK    1  A    between atoms: C_1  and  C_2
REMARK    2  A    between atoms: C_2  and  C_3
REMARK    3  A    between atoms: C_6  and  C_7
REMARK    4  A    between atoms: C_7  and  C_8
REMARK    5  A    between atoms: C_9  and  C_10
REMARK    6  A    between atoms: C_10  and  C_11
REMARK    7  A    between atoms: C_11  and  C_12
REMARK    8  A    between atoms: C_12  and  C_13
REMARK    9  A    between atoms: C_13  and  O_15
REMARK   10  A    between atoms: C_16  and  N_17
REMARK   11  A    between atoms: C_18  and  C_20
REMARK   12  A    between atoms: C_25  and  O_26
REMARK                            x       y       z     vdW  Elec       q    Type
REMARK                         _______ _______ _______ _____ _____    ______ ____
ROOT
ATOM      1  C   UNL     1       1.427   2.508  21.713  0.00  0.00    +0.000 C 
ATOM      2  C   UNL     1       1.648   3.075  20.298  0.00  0.00    +0.000 C 
ATOM      3  C   UNL     1       0.309   3.616  19.795  0.00  0.00    +0.000 C 
ATOM      4  C   UNL     1       2.436   2.105  19.346  0.00  0.00    +0.000 C 
ATOM      5  C   UNL     1       2.418   2.456  17.862  0.00  0.00    +0.000 C 
ATOM      6  C   UNL     1       2.707   3.961  17.600  0.00  0.00    +0.000 C 
ATOM      7  C   UNL     1       3.163   4.768  18.853  0.00  0.00    +0.000 C 
ATOM      8  C   UNL     1       2.948   3.976  20.147  0.00  0.00    +0.000 C 
ATOM      9  C   UNL     1       3.738   2.644  19.998  0.00  0.00    +0.000 C 
ENDROOT
BRANCH   7  10
ATOM     10  N   UNL     1       2.417   6.011  19.004  0.00  0.00    +0.000 N 
ATOM     11  C   UNL     1       2.822   7.205  18.434  0.00  0.00    +0.000 C 
ATOM     12  O   UNL     1       3.836   7.303  17.752  0.00  0.00    +0.000 OA
ATOM     13  H   UNL     1       1.514   5.977  19.454  0.00  0.00    +0.000 HD
BRANCH  11  14
ATOM     14  C   UNL     1       1.907   8.326  18.656  0.00  0.00    +0.000 A 
ATOM     15  C   UNL     1       1.429   9.150  17.654  0.00  0.00    +0.000 A 
ATOM     16  S   UNL     1       0.409  10.385  18.228  0.00  0.00    +0.000 S 
ATOM     17  C   UNL     1       0.568   9.858  19.857  0.00  0.00    +0.000 A 
ATOM     18  C   UNL     1      -0.007  10.463  20.996  0.00  0.00    +0.000 A 
ATOM     19  C   UNL     1       0.240   9.895  22.243  0.00  0.00    +0.000 A 
ATOM     20  C   UNL     1       1.004   8.750  22.372  0.00  0.00    +0.000 A 
ATOM     21  C   UNL     1       1.567   8.158  21.239  0.00  0.00    +0.000 A 
ATOM     22  C   UNL     1       1.368   8.718  19.949  0.00  0.00    +0.000 A 
BRANCH  19  23
ATOM     23  O   UNL     1      -0.258  10.452  23.385  0.00  0.00    +0.000 OA
ATOM     24  H   UNL     1      -1.065   9.974  23.639  0.00  0.00    +0.000 HD
ENDBRANCH  19  23
ENDBRANCH  11  14
ENDBRANCH   7  10
BRANCH   6  25
ATOM     25  C   UNL     1       3.750   4.103  16.474  0.00  0.00    +0.000 C 
BRANCH  25  26
ATOM     26  C   UNL     1       5.115   3.643  16.921  0.00  0.00    +0.000 C 
ATOM     27  C   UNL     1       6.290   4.060  16.430  0.00  0.00    +0.000 C 
BRANCH  27  28
ATOM     28  C   UNL     1       6.456   5.090  15.358  0.00  0.00    +0.000 C 
BRANCH  28  29
ATOM     29  C   UNL     1       6.964   6.418  15.904  0.00  0.00    +0.000 C 
BRANCH  29  30
ATOM     30  C   UNL     1       6.999   6.361  17.430  0.00  0.00    +0.000 C 
BRANCH  30  31
ATOM     31  C   UNL     1       7.806   7.497  18.008  0.00  0.00    +0.000 C 
ATOM     32  O   UNL     1       7.833   8.642  17.580  0.00  0.00    +0.000 OA
BRANCH  31  33
ATOM     33  O   UNL     1       8.528   7.111  19.080  0.00  0.00    +0.000 OA
ATOM     34  H   UNL     1       9.361   7.605  19.199  0.00  0.00    +0.000 HD
ENDBRANCH  31  33
ENDBRANCH  30  31
ENDBRANCH  29  30
ENDBRANCH  28  29
ENDBRANCH  27  28
ENDBRANCH  25  26
ENDBRANCH   6  25
TORSDOF 10
ENDMDL
MODEL 4
REMARK VINA RESULT:      -8.3      2.044      2.670
REMARK  Name = 
REMARK  12 active torsions:
REMARK  status: ('A' for Active; 'I' for Inactive)
REMARK    1  A    between atoms: C_1  and  C_2
REMARK    2  A    between atoms: C_2  and  C_3
REMARK    3  A    between atoms: C_6  and  C_7
REMARK    4  A    between atoms: C_7  and  C_8
REMARK    5  A    between atoms: C_9  and  C_10
REMARK    6  A    between atoms: C_10  and  C_11
REMARK    7  A    between atoms: C_11  and  C_12
REMARK    8  A    between atoms: C_12  and  C_13
REMARK    9  A    between atoms: C_13  and  O_15
REMARK   10  A    between atoms: C_16  and  N_17
REMARK   11  A    between atoms: C_18  and  C_20
REMARK   12  A    between atoms: C_25  and  O_26
REMARK                            x       y       z     vdW  Elec       q    Type
REMARK                         _______ _______ _______ _____ _____    ______ ____
ROOT
ATOM      1  C   UNL     1       1.703   2.556  21.859  0.00  0.00    +0.000 C 
ATOM      2  C   UNL     1       1.861   3.108  20.431  0.00  0.00    +0.000 C 
ATOM      3  C   UNL     1       0.481   3.559  19.946  0.00  0.00    +0.000 C 
ATOM      4  C   UNL     1       2.686   2.169  19.479  0.00  0.00    +0.000 C 
ATOM      5  C   UNL     1       2.617   2.490  17.990  0.00  0.00    +0.000 C 
ATOM      6  C   UNL     1       2.810   4.004  17.695  0.00  0.00    +0.000 C 
ATOM      7  C   UNL     1       3.241   4.861  18.923  0.00  0.00    +0.000 C 
ATOM      8  C   UNL     1       3.101   4.082  20.235  0.00  0.00    +0.000 C 
ATOM      9  C   UNL     1       3.966   2.796  20.093  0.00  0.00    +0.000 C 
ENDROOT
BRANCH   7  10
ATOM     10  N   UNL     1       2.425   6.059  19.068  0.00  0.00    +0.000 N 
ATOM     11  C   UNL     1       2.765   7.273  18.498  0.00  0.00    +0.000 C 
ATOM     12  O   UNL     1       3.774   7.427  17.819  0.00  0.00    +0.000 OA
ATOM     13  H   UNL     1       1.524   5.975  19.514  0.00  0.00    +0.000 HD
BRANCH  11  14
ATOM     14  C   UNL     1       1.786   8.340  18.713  0.00  0.00    +0.000 A 
ATOM     15  C   UNL     1       1.215   9.088  17.699  0.00  0.00    +0.000 A 
ATOM     16  S   UNL     1       0.139  10.278  18.266  0.00  0.00    +0.000 S 
ATOM     17  C   UNL     1       0.397   9.833  19.906  0.00  0.00    +0.000 A 
ATOM     18  C   UNL     1      -0.171  10.448  21.044  0.00  0.00    +0.000 A 
ATOM     19  C   UNL     1       0.162   9.952  22.301  0.00  0.00    +0.000 A 
ATOM     20  C   UNL     1       1.006   8.865  22.443  0.00  0.00    +0.000 A 
ATOM     21  C   UNL     1       1.561   8.263  21.313  0.00  0.00    +0.000 A 
ATOM     22  C   UNL     1       1.275   8.752  20.010  0.00  0.00    +0.000 A 
BRANCH  19  23
ATOM     23  O   UNL     1      -0.325  10.523  23.440  0.00  0.00    +0.000 OA
ATOM     24  H   UNL     1       0.253  10.282  24.183  0.00  0.00    +0.000 HD
ENDBRANCH  19  23
ENDBRANCH  11  14
ENDBRANCH   7  10
BRANCH   6  25
ATOM     25  C   UNL     1       3.819   4.187  16.545  0.00  0.00    +0.000 C 
BRANCH  25  26
ATOM     26  C   UNL     1       5.167   3.607  16.892  0.00  0.00    +0.000 C 
ATOM     27  C   UNL     1       6.354   4.199  16.707  0.00  0.00    +0.000 C 
BRANCH  27  28
ATOM     28  C   UNL     1       6.552   5.570  16.142  0.00  0.00    +0.000 C 
BRANCH  28  29
ATOM     29  C   UNL     1       6.185   5.646  14.665  0.00  0.00    +0.000 C 
BRANCH  29  30
ATOM     30  C   UNL     1       7.072   4.691  13.870  0.00  0.00    +0.000 C 
BRANCH  30  31
ATOM     31  C   UNL     1       6.259   3.822  12.943  0.00  0.00    +0.000 C 
ATOM     32  O   UNL     1       5.075   3.546  13.080  0.00  0.00    +0.000 OA
BRANCH  31  33
ATOM     33  O   UNL     1       6.994   3.356  11.911  0.00  0.00    +0.000 OA
ATOM     34  H   UNL     1       7.566   4.027  11.495  0.00  0.00    +0.000 HD
ENDBRANCH  31  33
ENDBRANCH  30  31
ENDBRANCH  29  30
ENDBRANCH  28  29
ENDBRANCH  27  28
ENDBRANCH  25  26
ENDBRANCH   6  25
TORSDOF 10
ENDMDL
MODEL 5
REMARK VINA RESULT:      -8.2      2.240      2.986
REMARK  Name = 
REMARK  12 active torsions:
REMARK  status: ('A' for Active; 'I' for Inactive)
REMARK    1  A    between atoms: C_1  and  C_2
REMARK    2  A    between atoms: C_2  and  C_3
REMARK    3  A    between atoms: C_6  and  C_7
REMARK    4  A    between atoms: C_7  and  C_8
REMARK    5  A    between atoms: C_9  and  C_10
REMARK    6  A    between atoms: C_10  and  C_11
REMARK    7  A    between atoms: C_11  and  C_12
REMARK    8  A    between atoms: C_12  and  C_13
REMARK    9  A    between atoms: C_13  and  O_15
REMARK   10  A    between atoms: C_16  and  N_17
REMARK   11  A    between atoms: C_18  and  C_20
REMARK   12  A    between atoms: C_25  and  O_26
REMARK                            x       y       z     vdW  Elec       q    Type
REMARK                         _______ _______ _______ _____ _____    ______ ____
ROOT
ATOM      1  C   UNL     1       0.739   2.350  18.928  0.00  0.00    +0.000 C 
ATOM      2  C   UNL     1       1.873   3.357  18.666  0.00  0.00    +0.000 C 
ATOM      3  C   UNL     1       1.405   4.317  17.570  0.00  0.00    +0.000 C 
ATOM      4  C   UNL     1       3.282   2.687  18.481  0.00  0.00    +0.000 C 
ATOM      5  C   UNL     1       4.382   3.578  17.912  0.00  0.00    +0.000 C 
ATOM      6  C   UNL     1       4.438   4.971  18.599  0.00  0.00    +0.000 C 
ATOM      7  C   UNL     1       3.526   5.120  19.854  0.00  0.00    +0.000 C 
ATOM      8  C   UNL     1       2.539   3.955  19.979  0.00  0.00    +0.000 C 
ATOM      9  C   UNL     1       3.384   2.649  20.029  0.00  0.00    +0.000 C 
ENDROOT
BRANCH   7  10
ATOM     10  N   UNL     1       2.723   6.335  19.805  0.00  0.00    +0.000 N 
ATOM     11  C   UNL     1       2.755   7.215  18.738  0.00  0.00    +0.000 C 
ATOM     12  O   UNL     1       3.456   7.032  17.749  0.00  0.00    +0.000 OA
ATOM     13  H   UNL     1       2.038   6.486  20.531  0.00  0.00    +0.000 HD
BRANCH  11  14
ATOM     14  C   UNL     1       1.833   8.346  18.856  0.00  0.00    +0.000 A 
ATOM     15  C   UNL     1       1.382   9.097  17.785  0.00  0.00    +0.000 A 
ATOM     16  S   UNL     1       0.346  10.367  18.243  0.00  0.00    +0.000 S 
ATOM     17  C   UNL     1       0.460   9.956  19.909  0.00  0.00    +0.000 A 
ATOM     18  C   UNL     1      -0.146  10.637  20.986  0.00  0.00    +0.000 A 
ATOM     19  C   UNL     1       0.066  10.159  22.277  0.00  0.00    +0.000 A 
ATOM     20  C   UNL     1       0.827   9.028  22.506  0.00  0.00    +0.000 A 
ATOM     21  C   UNL     1       1.421   8.359  21.434  0.00  0.00    +0.000 A 
ATOM     22  C   UNL     1       1.258   8.826  20.102  0.00  0.00    +0.000 A 
BRANCH  19  23
ATOM     23  O   UNL     1      -0.463  10.793  23.363  0.00  0.00    +0.000 OA
ATOM     24  H   UNL     1      -0.675  10.128  24.039  0.00  0.00    +0.000 HD
ENDBRANCH  19  23
ENDBRANCH  11  14
ENDBRANCH   7  10
BRANCH   6  25
ATOM     25  C   UNL     1       5.896   5.315  18.964  0.00  0.00    +0.000 C 
BRANCH  25  26
ATOM     26  C   UNL     1       6.485   6.319  18.007  0.00  0.00    +0.000 C 
ATOM     27  C   UNL     1       7.049   6.046  16.822  0.00  0.00    +0.000 C 
BRANCH  27  28
ATOM     28  C   UNL     1       7.170   4.682  16.222  0.00  0.00    +0.000 C 
BRANCH  28  29
ATOM     29  C   UNL     1       7.156   4.715  14.699  0.00  0.00    +0.000 C 
BRANCH  29  30
ATOM     30  C   UNL     1       5.931   3.963  14.184  0.00  0.00    +0.000 C 
BRANCH  30  31
ATOM     31  C   UNL     1       6.051   3.649  12.714  0.00  0.00    +0.000 C 
ATOM     32  O   UNL     1       5.269   2.973  12.062  0.00  0.00    +0.000 OA
BRANCH  31  33
ATOM     33  O   UNL     1       7.154   4.204  12.167  0.00  0.00    +0.000 OA
ATOM     34  H   UNL     1       7.360   3.880  11.270  0.00  0.00    +0.000 HD
ENDBRANCH  31  33
ENDBRANCH  30  31
ENDBRANCH  29  30
ENDBRANCH  28  29
ENDBRANCH  27  28
ENDBRANCH  25  26
ENDBRANCH   6  25
TORSDOF 10
ENDMDL
MODEL 6
REMARK VINA RESULT:      -8.2      2.239      2.978
REMARK  Name = 
REMARK  12 active torsions:
REMARK  status: ('A' for Active; 'I' for Inactive)
REMARK    1  A    between atoms: C_1  and  C_2
REMARK    2  A    between atoms: C_2  and  C_3
REMARK    3  A    between atoms: C_6  and  C_7
REMARK    4  A    between atoms: C_7  and  C_8
REMARK    5  A    between atoms: C_9  and  C_10
REMARK    6  A    between atoms: C_10  and  C_11
REMARK    7  A    between atoms: C_11  and  C_12
REMARK    8  A    between atoms: C_12  and  C_13
REMARK    9  A    between atoms: C_13  and  O_15
REMARK   10  A    between atoms: C_16  and  N_17
REMARK   11  A    between atoms: C_18  and  C_20
REMARK   12  A    between atoms: C_25  and  O_26
REMARK                            x       y       z     vdW  Elec       q    Type
REMARK                         _______ _______ _______ _____ _____    ______ ____
ROOT
ATOM      1  C   UNL     1       0.546   2.719  19.020  0.00  0.00    +0.000 C 
ATOM      2  C   UNL     1       1.821   3.539  18.752  0.00  0.00    +0.000 C 
ATOM      3  C   UNL     1       1.555   4.439  17.544  0.00  0.00    +0.000 C 
ATOM      4  C   UNL     1       3.134   2.676  18.731  0.00  0.00    +0.000 C 
ATOM      5  C   UNL     1       4.378   3.355  18.167  0.00  0.00    +0.000 C 
ATOM      6  C   UNL     1       4.582   4.790  18.729  0.00  0.00    +0.000 C 
ATOM      7  C   UNL     1       3.625   5.180  19.895  0.00  0.00    +0.000 C 
ATOM      8  C   UNL     1       2.482   4.171  20.052  0.00  0.00    +0.000 C 
ATOM      9  C   UNL     1       3.136   2.778  20.280  0.00  0.00    +0.000 C 
ENDROOT
BRANCH   7  10
ATOM     10  N   UNL     1       2.999   6.478  19.680  0.00  0.00    +0.000 N 
ATOM     11  C   UNL     1       1.885   6.900  20.381  0.00  0.00    +0.000 C 
ATOM     12  O   UNL     1       1.345   6.216  21.244  0.00  0.00    +0.000 OA
ATOM     13  H   UNL     1       3.460   7.137  19.070  0.00  0.00    +0.000 HD
BRANCH  11  14
ATOM     14  C   UNL     1       1.442   8.258  20.059  0.00  0.00    +0.000 A 
ATOM     15  C   UNL     1       1.649   8.875  18.837  0.00  0.00    +0.000 A 
ATOM     16  S   UNL     1       1.049  10.466  18.777  0.00  0.00    +0.000 S 
ATOM     17  C   UNL     1       0.483  10.391  20.399  0.00  0.00    +0.000 A 
ATOM     18  C   UNL     1      -0.142  11.432  21.120  0.00  0.00    +0.000 A 
ATOM     19  C   UNL     1      -0.529  11.187  22.435  0.00  0.00    +0.000 A 
ATOM     20  C   UNL     1      -0.337   9.950  23.021  0.00  0.00    +0.000 A 
ATOM     21  C   UNL     1       0.281   8.926  22.299  0.00  0.00    +0.000 A 
ATOM     22  C   UNL     1       0.720   9.137  20.965  0.00  0.00    +0.000 A 
BRANCH  19  23
ATOM     23  O   UNL     1      -1.106  12.161  23.196  0.00  0.00    +0.000 OA
ATOM     24  H   UNL     1      -1.207  12.962  22.654  0.00  0.00    +0.000 HD
ENDBRANCH  19  23
ENDBRANCH  11  14
ENDBRANCH   7  10
BRANCH   6  25
ATOM     25  C   UNL     1       6.048   4.975  19.167  0.00  0.00    +0.000 C 
BRANCH  25  26
ATOM     26  C   UNL     1       6.712   6.104  18.420  0.00  0.00    +0.000 C 
ATOM     27  C   UNL     1       7.215   6.043  17.179  0.00  0.00    +0.000 C 
BRANCH  27  28
ATOM     28  C   UNL     1       7.182   4.836  16.297  0.00  0.00    +0.000 C 
BRANCH  28  29
ATOM     29  C   UNL     1       6.144   4.957  15.188  0.00  0.00    +0.000 C 
BRANCH  29  30
ATOM     30  C   UNL     1       6.482   3.978  14.066  0.00  0.00    +0.000 C 
BRANCH  30  31
ATOM     31  C   UNL     1       7.271   4.646  12.968  0.00  0.00    +0.000 C 
ATOM     32  O   UNL     1       7.242   4.345  11.783  0.00  0.00    +0.000 OA
BRANCH  31  33
ATOM     33  O   UNL     1       8.049   5.644  13.439  0.00  0.00    +0.000 OA
ATOM     34  H   UNL     1       8.905   5.345  13.800  0.00  0.00    +0.000 HD
ENDBRANCH  31  33
ENDBRANCH  30  31
ENDBRANCH  29  30
ENDBRANCH  28  29
ENDBRANCH  27  28
ENDBRANCH  25  26
ENDBRANCH   6  25
TORSDOF 10
ENDMDL
MODEL 7
REMARK VINA RESULT:      -8.2      1.834      2.365
REMARK  Name = 
REMARK  12 active torsions:
REMARK  status: ('A' for Active; 'I' for Inactive)
REMARK    1  A    between atoms: C_1  and  C_2
REMARK    2  A    between atoms: C_2  and  C_3
REMARK    3  A    between atoms: C_6  and  C_7
REMARK    4  A    between atoms: C_7  and  C_8
REMARK    5  A    between atoms: C_9  and  C_10
REMARK    6  A    between atoms: C_10  and  C_11
REMARK    7  A    between atoms: C_11  and  C_12
REMARK    8  A    between atoms: C_12  and  C_13
REMARK    9  A    between atoms: C_13  and  O_15
REMARK   10  A    between atoms: C_16  and  N_17
REMARK   11  A    between atoms: C_18  and  C_20
REMARK   12  A    between atoms: C_25  and  O_26
REMARK                            x       y       z     vdW  Elec       q    Type
REMARK                         _______ _______ _______ _____ _____    ______ ____
ROOT
ATOM      1  C   UNL     1       0.639   2.483  19.084  0.00  0.00    +0.000 C 
ATOM      2  C   UNL     1       1.811   3.448  18.827  0.00  0.00    +0.000 C 
ATOM      3  C   UNL     1       1.396   4.402  17.705  0.00  0.00    +0.000 C 
ATOM      4  C   UNL     1       3.200   2.729  18.683  0.00  0.00    +0.000 C 
ATOM      5  C   UNL     1       4.340   3.572  18.121  0.00  0.00    +0.000 C 
ATOM      6  C   UNL     1       4.428   4.975  18.784  0.00  0.00    +0.000 C 
ATOM      7  C   UNL     1       3.497   5.178  20.016  0.00  0.00    +0.000 C 
ATOM      8  C   UNL     1       2.470   4.048  20.142  0.00  0.00    +0.000 C 
ATOM      9  C   UNL     1       3.270   2.717  20.233  0.00  0.00    +0.000 C 
ENDROOT
BRANCH   7  10
ATOM     10  N   UNL     1       2.735   6.417  19.929  0.00  0.00    +0.000 N 
ATOM     11  C   UNL     1       2.750   7.231  18.811  0.00  0.00    +0.000 C 
ATOM     12  O   UNL     1       3.399   6.965  17.806  0.00  0.00    +0.000 OA
ATOM     13  H   UNL     1       2.089   6.636  20.674  0.00  0.00    +0.000 HD
BRANCH  11  14
ATOM     14  C   UNL     1       1.874   8.401  18.900  0.00  0.00    +0.000 A 
ATOM     15  C   UNL     1       1.503   9.180  17.819  0.00  0.00    +0.000 A 
ATOM     16  S   UNL     1       0.505  10.490  18.244  0.00  0.00    +0.000 S 
ATOM     17  C   UNL     1       0.529  10.062  19.909  0.00  0.00    +0.000 A 
ATOM     18  C   UNL     1      -0.093  10.761  20.966  0.00  0.00    +0.000 A 
ATOM     19  C   UNL     1       0.042  10.263  22.260  0.00  0.00    +0.000 A 
ATOM     20  C   UNL     1       0.742   9.098  22.511  0.00  0.00    +0.000 A 
ATOM     21  C   UNL     1       1.353   8.412  21.458  0.00  0.00    +0.000 A 
ATOM     22  C   UNL     1       1.268   8.896  20.126  0.00  0.00    +0.000 A 
BRANCH  19  23
ATOM     23  O   UNL     1      -0.505  10.911  23.328  0.00  0.00    +0.000 OA
ATOM     24  H   UNL     1      -1.423  10.610  23.439  0.00  0.00    +0.000 HD
ENDBRANCH  19  23
ENDBRANCH  11  14
ENDBRANCH   7  10
BRANCH   6  25
ATOM     25  C   UNL     1       5.889   5.278  19.172  0.00  0.00    +0.000 C 
BRANCH  25  26
ATOM     26  C   UNL     1       6.839   4.967  18.042  0.00  0.00    +0.000 C 
ATOM     27  C   UNL     1       7.381   5.855  17.198  0.00  0.00    +0.000 C 
BRANCH  27  28
ATOM     28  C   UNL     1       7.159   7.333  17.246  0.00  0.00    +0.000 C 
BRANCH  28  29
ATOM     29  C   UNL     1       8.185   8.046  18.117  0.00  0.00    +0.000 C 
BRANCH  29  30
ATOM     30  C   UNL     1       8.068   9.555  17.911  0.00  0.00    +0.000 C 
BRANCH  30  31
ATOM     31  C   UNL     1       9.256  10.285  18.486  0.00  0.00    +0.000 C 
ATOM     32  O   UNL     1       9.996  11.038  17.870  0.00  0.00    +0.000 OA
BRANCH  31  33
ATOM     33  O   UNL     1       9.433  10.011  19.796  0.00  0.00    +0.000 OA
ATOM     34  H   UNL     1      10.369   9.946  20.066  0.00  0.00    +0.000 HD
ENDBRANCH  31  33
ENDBRANCH  30  31
ENDBRANCH  29  30
ENDBRANCH  28  29
ENDBRANCH  27  28
ENDBRANCH  25  26
ENDBRANCH   6  25
TORSDOF 10
ENDMDL
MODEL 8
REMARK VINA RESULT:      -8.1      2.644      3.408
REMARK  Name = 
REMARK  12 active torsions:
REMARK  status: ('A' for Active; 'I' for Inactive)
REMARK    1  A    between atoms: C_1  and  C_2
REMARK    2  A    between atoms: C_2  and  C_3
REMARK    3  A    between atoms: C_6  and  C_7
REMARK    4  A    between atoms: C_7  and  C_8
REMARK    5  A    between atoms: C_9  and  C_10
REMARK    6  A    between atoms: C_10  and  C_11
REMARK    7  A    between atoms: C_11  and  C_12
REMARK    8  A    between atoms: C_12  and  C_13
REMARK    9  A    between atoms: C_13  and  O_15
REMARK   10  A    between atoms: C_16  and  N_17
REMARK   11  A    between atoms: C_18  and  C_20
REMARK   12  A    between atoms: C_25  and  O_26
REMARK                            x       y       z     vdW  Elec       q    Type
REMARK                         _______ _______ _______ _____ _____    ______ ____
ROOT
ATOM      1  C   UNL     1       2.079   2.298  20.892  0.00  0.00    +0.000 C 
ATOM      2  C   UNL     1       2.230   3.443  19.873  0.00  0.00    +0.000 C 
ATOM      3  C   UNL     1       0.844   4.044  19.633  0.00  0.00    +0.000 C 
ATOM      4  C   UNL     1       3.075   3.054  18.607  0.00  0.00    +0.000 C 
ATOM      5  C   UNL     1       3.004   4.018  17.427  0.00  0.00    +0.000 C 
ATOM      6  C   UNL     1       3.169   5.502  17.857  0.00  0.00    +0.000 C 
ATOM      7  C   UNL     1       3.582   5.712  19.345  0.00  0.00    +0.000 C 
ATOM      8  C   UNL     1       3.453   4.418  20.157  0.00  0.00    +0.000 C 
ATOM      9  C   UNL     1       4.342   3.353  19.454  0.00  0.00    +0.000 C 
ENDROOT
BRANCH   7  10
ATOM     10  N   UNL     1       2.743   6.700  20.012  0.00  0.00    +0.000 N 
ATOM     11  C   UNL     1       2.215   7.799  19.360  0.00  0.00    +0.000 C 
ATOM     12  O   UNL     1       2.406   8.020  18.169  0.00  0.00    +0.000 OA
ATOM     13  H   UNL     1       2.450   6.518  20.960  0.00  0.00    +0.000 HD
BRANCH  11  14
ATOM     14  C   UNL     1       1.353   8.642  20.191  0.00  0.00    +0.000 A 
ATOM     15  C   UNL     1       1.302   8.580  21.572  0.00  0.00    +0.000 A 
ATOM     16  S   UNL     1       0.179   9.662  22.253  0.00  0.00    +0.000 S 
ATOM     17  C   UNL     1      -0.287  10.263  20.711  0.00  0.00    +0.000 A 
ATOM     18  C   UNL     1      -1.279  11.233  20.451  0.00  0.00    +0.000 A 
ATOM     19  C   UNL     1      -1.525  11.591  19.128  0.00  0.00    +0.000 A 
ATOM     20  C   UNL     1      -0.800  11.039  18.088  0.00  0.00    +0.000 A 
ATOM     21  C   UNL     1       0.181  10.081  18.355  0.00  0.00    +0.000 A 
ATOM     22  C   UNL     1       0.447   9.661  19.686  0.00  0.00    +0.000 A 
BRANCH  19  23
ATOM     23  O   UNL     1      -2.494  12.497  18.808  0.00  0.00    +0.000 OA
ATOM     24  H   UNL     1      -2.081  13.369  18.695  0.00  0.00    +0.000 HD
ENDBRANCH  19  23
ENDBRANCH  11  14
ENDBRANCH   7  10
BRANCH   6  25
ATOM     25  C   UNL     1       4.178   6.205  16.927  0.00  0.00    +0.000 C 
BRANCH  25  26
ATOM     26  C   UNL     1       5.557   6.248  17.536  0.00  0.00    +0.000 C 
ATOM     27  C   UNL     1       6.580   5.439  17.234  0.00  0.00    +0.000 C 
BRANCH  27  28
ATOM     28  C   UNL     1       6.542   4.353  16.205  0.00  0.00    +0.000 C 
BRANCH  28  29
ATOM     29  C   UNL     1       6.678   4.894  14.787  0.00  0.00    +0.000 C 
BRANCH  29  30
ATOM     30  C   UNL     1       5.820   4.058  13.839  0.00  0.00    +0.000 C 
BRANCH  30  31
ATOM     31  C   UNL     1       6.572   3.703  12.581  0.00  0.00    +0.000 C 
ATOM     32  O   UNL     1       7.352   4.433  11.986  0.00  0.00    +0.000 OA
BRANCH  31  33
ATOM     33  O   UNL     1       6.285   2.455  12.155  0.00  0.00    +0.000 OA
ATOM     34  H   UNL     1       6.382   2.331  11.192  0.00  0.00    +0.000 HD
ENDBRANCH  31  33
ENDBRANCH  30  31
ENDBRANCH  29  30
ENDBRANCH  28  29
ENDBRANCH  27  28
ENDBRANCH  25  26
ENDBRANCH   6  25
TORSDOF 10
ENDMDL
MODEL 9
REMARK VINA RESULT:      -8.1      2.777      3.458
REMARK  Name = 
REMARK  12 active torsions:
REMARK  status: ('A' for Active; 'I' for Inactive)
REMARK    1  A    between atoms: C_1  and  C_2
REMARK    2  A    between atoms: C_2  and  C_3
REMARK    3  A    between atoms: C_6  and  C_7
REMARK    4  A    between atoms: C_7  and  C_8
REMARK    5  A    between atoms: C_9  and  C_10
REMARK    6  A    between atoms: C_10  and  C_11
REMARK    7  A    between atoms: C_11  and  C_12
REMARK    8  A    between atoms: C_12  and  C_13
REMARK    9  A    between atoms: C_13  and  O_15
REMARK   10  A    between atoms: C_16  and  N_17
REMARK   11  A    between atoms: C_18  and  C_20
REMARK   12  A    between atoms: C_25  and  O_26
REMARK                            x       y       z     vdW  Elec       q    Type
REMARK                         _______ _______ _______ _____ _____    ______ ____
ROOT
ATOM      1  C   UNL     1       0.979   2.495  19.798  0.00  0.00    +0.000 C 
ATOM      2  C   UNL     1       1.996   3.285  18.954  0.00  0.00    +0.000 C 
ATOM      3  C   UNL     1       1.225   4.015  17.852  0.00  0.00    +0.000 C 
ATOM      4  C   UNL     1       3.246   2.439  18.518  0.00  0.00    +0.000 C 
ATOM      5  C   UNL     1       4.127   3.050  17.433  0.00  0.00    +0.000 C 
ATOM      6  C   UNL     1       4.447   4.548  17.695  0.00  0.00    +0.000 C 
ATOM      7  C   UNL     1       3.999   5.079  19.090  0.00  0.00    +0.000 C 
ATOM      8  C   UNL     1       3.072   4.090  19.803  0.00  0.00    +0.000 C 
ATOM      9  C   UNL     1       3.847   2.745  19.916  0.00  0.00    +0.000 C 
ENDROOT
BRANCH   7  10
ATOM     10  N   UNL     1       3.262   6.332  18.988  0.00  0.00    +0.000 N 
ATOM     11  C   UNL     1       2.343   6.742  19.937  0.00  0.00    +0.000 C 
ATOM     12  O   UNL     1       2.087   6.085  20.940  0.00  0.00    +0.000 OA
ATOM     13  H   UNL     1       3.508   6.975  18.250  0.00  0.00    +0.000 HD
BRANCH  11  14
ATOM     14  C   UNL     1       1.750   8.056  19.681  0.00  0.00    +0.000 A 
ATOM     15  C   UNL     1       1.798   8.707  18.461  0.00  0.00    +0.000 A 
ATOM     16  S   UNL     1       1.049  10.235  18.484  0.00  0.00    +0.000 S 
ATOM     17  C   UNL     1       0.626  10.082  20.143  0.00  0.00    +0.000 A 
ATOM     18  C   UNL     1      -0.034  11.048  20.935  0.00  0.00    +0.000 A 
ATOM     19  C   UNL     1      -0.288  10.748  22.271  0.00  0.00    +0.000 A 
ATOM     20  C   UNL     1       0.067   9.526  22.812  0.00  0.00    +0.000 A 
ATOM     21  C   UNL     1       0.717   8.577  22.021  0.00  0.00    +0.000 A 
ATOM     22  C   UNL     1       1.025   8.848  20.661  0.00  0.00    +0.000 A 
BRANCH  19  23
ATOM     23  O   UNL     1      -0.891  11.652  23.097  0.00  0.00    +0.000 OA
ATOM     24  H   UNL     1      -1.475  12.218  22.566  0.00  0.00    +0.000 HD
ENDBRANCH  19  23
ENDBRANCH  11  14
ENDBRANCH   7  10
BRANCH   6  25
ATOM     25  C   UNL     1       5.954   4.804  17.493  0.00  0.00    +0.000 C 
BRANCH  25  26
ATOM     26  C   UNL     1       6.202   5.835  16.422  0.00  0.00    +0.000 C 
ATOM     27  C   UNL     1       6.038   5.662  15.104  0.00  0.00    +0.000 C 
BRANCH  27  28
ATOM     28  C   UNL     1       5.546   4.406  14.457  0.00  0.00    +0.000 C 
BRANCH  28  29
ATOM     29  C   UNL     1       6.637   3.694  13.668  0.00  0.00    +0.000 C 
BRANCH  29  30
ATOM     30  C   UNL     1       6.353   3.826  12.173  0.00  0.00    +0.000 C 
BRANCH  30  31
ATOM     31  C   UNL     1       5.315   2.830  11.717  0.00  0.00    +0.000 C 
ATOM     32  O   UNL     1       4.164   3.094  11.402  0.00  0.00    +0.000 OA
BRANCH  31  33
ATOM     33  O   UNL     1       5.798   1.570  11.698  0.00  0.00    +0.000 OA
ATOM     34  H   UNL     1       5.498   1.017  12.443  0.00  0.00    +0.000 HD
ENDBRANCH  31  33
ENDBRANCH  30  31
ENDBRANCH  29  30
ENDBRANCH  28  29
ENDBRANCH  27  28
ENDBRANCH  25  26
ENDBRANCH   6  25
TORSDOF 10
ENDMDL
