MODEL 1
REMARK VINA RESULT:      -6.1      0.000      0.000
REMARK  Name = 
REMARK  4 active torsions:
REMARK  status: ('A' for Active; 'I' for Inactive)
REMARK    1  A    between atoms: C_1  and  C_2
REMARK    2  A    between atoms: C_2  and  C_3
REMARK    3  A    between atoms: C_3  and  C_4
REMARK    4  A    between atoms: N_20  and  C_21
REMARK                            x       y       z     vdW  Elec       q    Type
REMARK                         _______ _______ _______ _____ _____    ______ ____
ROOT
ATOM      1  C   UNL     1       7.283   6.296  17.538  0.00  0.00    +0.000 A 
ATOM      2  N   UNL     1       6.510   5.462  18.260  0.00  0.00    +0.000 NA
ATOM      3  C   UNL     1       5.857   4.393  17.694  0.00  0.00    +0.000 A 
ATOM      4  N   UNL     1       4.991   3.664  18.514  0.00  0.00    +0.000 N 
ATOM      5  C   UNL     1       4.018   2.708  18.005  0.00  0.00    +0.000 C 
ATOM      6  C   UNL     1       2.951   3.267  17.065  0.00  0.00    +0.000 C 
ATOM      7  C   UNL     1       2.261   4.595  17.394  0.00  0.00    +0.000 C 
ATOM      8  N   UNL     1       2.217   5.004  18.802  0.00  0.00    +0.000 NA
ATOM      9  C   UNL     1       1.266   6.115  19.005  0.00  0.00    +0.000 C 
ATOM     10  C   UNL     1       2.037   7.241  19.669  0.00  0.00    +0.000 C 
ATOM     11  C   UNL     1       3.183   6.513  20.339  0.00  0.00    +0.000 C 
ATOM     12  C   UNL     1       3.542   5.523  19.248  0.00  0.00    +0.000 C 
ATOM     13  C   UNL     1       4.518   4.424  19.696  0.00  0.00    +0.000 C 
ATOM     14  C   UNL     1       6.117   4.192  16.322  0.00  0.00    +0.000 A 
ATOM     15  C   UNL     1       5.824   3.269  15.295  0.00  0.00    +0.000 A 
ATOM     16  N   UNL     1       6.285   3.633  14.094  0.00  0.00    +0.000 NA
ATOM     17  N   UNL     1       6.924   4.791  14.359  0.00  0.00    +0.000 N 
ATOM     18  C   UNL     1       7.616   5.499  13.311  0.00  0.00    +0.000 C 
ATOM     19  C   UNL     1       6.881   5.151  15.679  0.00  0.00    +0.000 A 
ATOM     20  N   UNL     1       7.474   6.230  16.213  0.00  0.00    +0.000 NA
ENDROOT
BRANCH   1  21
ATOM     21  C   UNL     1       8.048   7.350  18.301  0.00  0.00    +0.000 C 
BRANCH  21  23
ATOM     22  C   UNL     1       8.779   9.788  18.482  0.00  0.00    +0.000 C 
ATOM     23  C   UNL     1       7.937   8.763  17.737  0.00  0.00    +0.000 C 
ENDBRANCH  21  23
ENDBRANCH   1  21
TORSDOF 2
ENDMDL
MODEL 2
REMARK VINA RESULT:      -6.1      6.765     10.122
REMARK  Name = 
REMARK  4 active torsions:
REMARK  status: ('A' for Active; 'I' for Inactive)
REMARK    1  A    between atoms: C_1  and  C_2
REMARK    2  A    between atoms: C_2  and  C_3
REMARK    3  A    between atoms: C_3  and  C_4
REMARK    4  A    between atoms: N_20  and  C_21
REMARK                            x       y       z     vdW  Elec       q    Type
REMARK                         _______ _______ _______ _____ _____    ______ ____
ROOT
ATOM      1  C   UNL     1       0.915  10.317  18.367  0.00  0.00    +0.000 A 
ATOM      2  N   UNL     1       1.239  11.254  19.278  0.00  0.00    +0.000 NA
ATOM      3  C   UNL     1       0.298  12.079  19.848  0.00  0.00    +0.000 A 
ATOM      4  N   UNL     1       0.761  13.091  20.693  0.00  0.00    +0.000 N 
ATOM      5  C   UNL     1      -0.060  14.210  21.131  0.00  0.00    +0.000 C 
ATOM      6  C   UNL     1      -0.599  15.123  20.031  0.00  0.00    +0.000 C 
ATOM      7  C   UNL     1       0.318  15.562  18.884  0.00  0.00    +0.000 C 
ATOM      8  N   UNL     1       1.762  15.572  19.138  0.00  0.00    +0.000 NA
ATOM      9  C   UNL     1       2.485  16.303  18.078  0.00  0.00    +0.000 C 
ATOM     10  C   UNL     1       3.532  15.356  17.523  0.00  0.00    +0.000 C 
ATOM     11  C   UNL     1       3.749  14.388  18.667  0.00  0.00    +0.000 C 
ATOM     12  C   UNL     1       2.316  14.188  19.120  0.00  0.00    +0.000 C 
ATOM     13  C   UNL     1       2.181  13.450  20.462  0.00  0.00    +0.000 C 
ATOM     14  C   UNL     1      -1.035  11.818  19.466  0.00  0.00    +0.000 A 
ATOM     15  C   UNL     1      -2.345  12.247  19.771  0.00  0.00    +0.000 A 
ATOM     16  N   UNL     1      -3.287  11.688  19.004  0.00  0.00    +0.000 NA
ATOM     17  N   UNL     1      -2.576  10.852  18.221  0.00  0.00    +0.000 N 
ATOM     18  C   UNL     1      -3.243  10.007  17.262  0.00  0.00    +0.000 C 
ATOM     19  C   UNL     1      -1.233  10.868  18.479  0.00  0.00    +0.000 A 
ATOM     20  N   UNL     1      -0.312  10.100  17.875  0.00  0.00    +0.000 NA
ENDROOT
BRANCH   1  21
ATOM     21  C   UNL     1       2.020   9.391  17.917  0.00  0.00    +0.000 C 
BRANCH  21  23
ATOM     22  C   UNL     1       3.075   7.072  18.061  0.00  0.00    +0.000 C 
ATOM     23  C   UNL     1       2.102   8.069  18.673  0.00  0.00    +0.000 C 
ENDBRANCH  21  23
ENDBRANCH   1  21
TORSDOF 2
ENDMDL
MODEL 3
REMARK VINA RESULT:      -6.0      8.209     11.851
REMARK  Name = 
REMARK  4 active torsions:
REMARK  status: ('A' for Active; 'I' for Inactive)
REMARK    1  A    between atoms: C_1  and  C_2
REMARK    2  A    between atoms: C_2  and  C_3
REMARK    3  A    between atoms: C_3  and  C_4
REMARK    4  A    between atoms: N_20  and  C_21
REMARK                            x       y       z     vdW  Elec       q    Type
REMARK                         _______ _______ _______ _____ _____    ______ ____
ROOT
ATOM      1  C   UNL     1      -2.567  11.318  18.644  0.00  0.00    +0.000 A 
ATOM      2  N   UNL     1      -2.946  12.457  19.253  0.00  0.00    +0.000 NA
ATOM      3  C   UNL     1      -2.289  12.953  20.355  0.00  0.00    +0.000 A 
ATOM      4  N   UNL     1      -2.839  14.079  20.976  0.00  0.00    +0.000 N 
ATOM      5  C   UNL     1      -2.444  14.539  22.299  0.00  0.00    +0.000 C 
ATOM      6  C   UNL     1      -2.678  13.563  23.450  0.00  0.00    +0.000 C 
ATOM      7  C   UNL     1      -3.996  12.784  23.537  0.00  0.00    +0.000 C 
ATOM      8  N   UNL     1      -5.170  13.367  22.880  0.00  0.00    +0.000 NA
ATOM      9  C   UNL     1      -6.411  12.687  23.306  0.00  0.00    +0.000 C 
ATOM     10  C   UNL     1      -7.104  12.205  22.046  0.00  0.00    +0.000 C 
ATOM     11  C   UNL     1      -6.557  13.135  20.984  0.00  0.00    +0.000 C 
ATOM     12  C   UNL     1      -5.100  13.185  21.402  0.00  0.00    +0.000 C 
ATOM     13  C   UNL     1      -4.280  14.269  20.684  0.00  0.00    +0.000 C 
ATOM     14  C   UNL     1      -1.149  12.222  20.751  0.00  0.00    +0.000 A 
ATOM     15  C   UNL     1      -0.096  12.294  21.688  0.00  0.00    +0.000 A 
ATOM     16  N   UNL     1       0.709  11.227  21.679  0.00  0.00    +0.000 NA
ATOM     17  N   UNL     1       0.192  10.473  20.687  0.00  0.00    +0.000 N 
ATOM     18  C   UNL     1       0.815   9.227  20.317  0.00  0.00    +0.000 C 
ATOM     19  C   UNL     1      -0.897  11.037  20.080  0.00  0.00    +0.000 A 
ATOM     20  N   UNL     1      -1.569  10.516  19.041  0.00  0.00    +0.000 NA
ENDROOT
BRANCH   1  21
ATOM     21  C   UNL     1      -3.287  10.954  17.368  0.00  0.00    +0.000 C 
BRANCH  21  23
ATOM     22  C   UNL     1      -2.935  10.256  14.939  0.00  0.00    +0.000 C 
ATOM     23  C   UNL     1      -2.473  10.122  16.383  0.00  0.00    +0.000 C 
ENDBRANCH  21  23
ENDBRANCH   1  21
TORSDOF 2
ENDMDL
MODEL 4
REMARK VINA RESULT:      -6.0      8.481     12.052
REMARK  Name = 
REMARK  4 active torsions:
REMARK  status: ('A' for Active; 'I' for Inactive)
REMARK    1  A    between atoms: C_1  and  C_2
REMARK    2  A    between atoms: C_2  and  C_3
REMARK    3  A    between atoms: C_3  and  C_4
REMARK    4  A    between atoms: N_20  and  C_21
REMARK                            x       y       z     vdW  Elec       q    Type
REMARK                         _______ _______ _______ _____ _____    ______ ____
ROOT
ATOM      1  C   UNL     1      -2.403  10.789  18.518  0.00  0.00    +0.000 A 
ATOM      2  N   UNL     1      -3.232  11.816  18.789  0.00  0.00    +0.000 NA
ATOM      3  C   UNL     1      -3.039  12.649  19.865  0.00  0.00    +0.000 A 
ATOM      4  N   UNL     1      -4.024  13.609  20.117  0.00  0.00    +0.000 N 
ATOM      5  C   UNL     1      -4.118  14.356  21.363  0.00  0.00    +0.000 C 
ATOM      6  C   UNL     1      -4.340  13.530  22.629  0.00  0.00    +0.000 C 
ATOM      7  C   UNL     1      -5.357  12.383  22.625  0.00  0.00    +0.000 C 
ATOM      8  N   UNL     1      -6.449  12.450  21.649  0.00  0.00    +0.000 NA
ATOM      9  C   UNL     1      -7.508  11.470  21.964  0.00  0.00    +0.000 C 
ATOM     10  C   UNL     1      -7.699  10.614  20.726  0.00  0.00    +0.000 C 
ATOM     11  C   UNL     1      -7.197  11.512  19.616  0.00  0.00    +0.000 C 
ATOM     12  C   UNL     1      -5.966  12.095  20.283  0.00  0.00    +0.000 C 
ATOM     13  C   UNL     1      -5.340  13.274  19.522  0.00  0.00    +0.000 C 
ATOM     14  C   UNL     1      -1.872  12.395  20.617  0.00  0.00    +0.000 A 
ATOM     15  C   UNL     1      -1.150  12.940  21.701  0.00  0.00    +0.000 A 
ATOM     16  N   UNL     1      -0.097  12.204  22.071  0.00  0.00    +0.000 NA
ATOM     17  N   UNL     1      -0.114  11.191  21.182  0.00  0.00    +0.000 N 
ATOM     18  C   UNL     1       0.912  10.178  21.210  0.00  0.00    +0.000 C 
ATOM     19  C   UNL     1      -1.133  11.276  20.273  0.00  0.00    +0.000 A 
ATOM     20  N   UNL     1      -1.349  10.423  19.259  0.00  0.00    +0.000 NA
ENDROOT
BRANCH   1  21
ATOM     21  C   UNL     1      -2.650  10.033  17.235  0.00  0.00    +0.000 C 
BRANCH  21  23
ATOM     22  C   UNL     1      -3.028  10.112  14.713  0.00  0.00    +0.000 C 
ATOM     23  C   UNL     1      -2.758  10.901  15.986  0.00  0.00    +0.000 C 
ENDBRANCH  21  23
ENDBRANCH   1  21
TORSDOF 2
ENDMDL
MODEL 5
REMARK VINA RESULT:      -5.9      1.797      5.756
REMARK  Name = 
REMARK  4 active torsions:
REMARK  status: ('A' for Active; 'I' for Inactive)
REMARK    1  A    between atoms: C_1  and  C_2
REMARK    2  A    between atoms: C_2  and  C_3
REMARK    3  A    between atoms: C_3  and  C_4
REMARK    4  A    between atoms: N_20  and  C_21
REMARK                            x       y       z     vdW  Elec       q    Type
REMARK                         _______ _______ _______ _____ _____    ______ ____
ROOT
ATOM      1  C   UNL     1       2.518   6.601  19.368  0.00  0.00    +0.000 A 
ATOM      2  N   UNL     1       3.161   6.553  18.185  0.00  0.00    +0.000 NA
ATOM      3  C   UNL     1       3.714   5.392  17.698  0.00  0.00    +0.000 A 
ATOM      4  N   UNL     1       4.457   5.483  16.517  0.00  0.00    +0.000 N 
ATOM      5  C   UNL     1       5.337   4.427  16.039  0.00  0.00    +0.000 C 
ATOM      6  C   UNL     1       6.499   4.050  16.958  0.00  0.00    +0.000 C 
ATOM      7  C   UNL     1       7.319   5.148  17.643  0.00  0.00    +0.000 C 
ATOM      8  N   UNL     1       7.348   6.469  17.006  0.00  0.00    +0.000 NA
ATOM      9  C   UNL     1       8.409   7.318  17.585  0.00  0.00    +0.000 C 
ATOM     10  C   UNL     1       7.741   8.594  18.063  0.00  0.00    +0.000 C 
ATOM     11  C   UNL     1       6.493   8.660  17.208  0.00  0.00    +0.000 C 
ATOM     12  C   UNL     1       6.072   7.203  17.242  0.00  0.00    +0.000 C 
ATOM     13  C   UNL     1       4.961   6.850  16.241  0.00  0.00    +0.000 C 
ATOM     14  C   UNL     1       3.492   4.246  18.490  0.00  0.00    +0.000 A 
ATOM     15  C   UNL     1       3.723   2.853  18.456  0.00  0.00    +0.000 A 
ATOM     16  N   UNL     1       3.357   2.219  19.575  0.00  0.00    +0.000 NA
ATOM     17  N   UNL     1       2.841   3.213  20.326  0.00  0.00    +0.000 N 
ATOM     18  C   UNL     1       2.278   2.932  21.623  0.00  0.00    +0.000 C 
ATOM     19  C   UNL     1       2.868   4.435  19.711  0.00  0.00    +0.000 A 
ATOM     20  N   UNL     1       2.378   5.577  20.220  0.00  0.00    +0.000 NA
ENDROOT
BRANCH   1  21
ATOM     21  C   UNL     1       1.844   7.903  19.726  0.00  0.00    +0.000 C 
BRANCH  21  23
ATOM     22  C   UNL     1       0.050   8.740  21.336  0.00  0.00    +0.000 C 
ATOM     23  C   UNL     1       1.375   8.010  21.173  0.00  0.00    +0.000 C 
ENDBRANCH  21  23
ENDBRANCH   1  21
TORSDOF 2
ENDMDL
MODEL 6
REMARK VINA RESULT:      -5.8      7.919     11.160
REMARK  Name = 
REMARK  4 active torsions:
REMARK  status: ('A' for Active; 'I' for Inactive)
REMARK    1  A    between atoms: C_1  and  C_2
REMARK    2  A    between atoms: C_2  and  C_3
REMARK    3  A    between atoms: C_3  and  C_4
REMARK    4  A    between atoms: N_20  and  C_21
REMARK                            x       y       z     vdW  Elec       q    Type
REMARK                         _______ _______ _______ _____ _____    ______ ____
ROOT
ATOM      1  C   UNL     1       6.244  14.274  22.132  0.00  0.00    +0.000 A 
ATOM      2  N   UNL     1       7.558  14.284  21.841  0.00  0.00    +0.000 NA
ATOM      3  C   UNL     1       8.088  15.102  20.871  0.00  0.00    +0.000 A 
ATOM      4  N   UNL     1       9.445  14.946  20.573  0.00  0.00    +0.000 N 
ATOM      5  C   UNL     1      10.078  15.512  19.390  0.00  0.00    +0.000 C 
ATOM      6  C   UNL     1       9.539  15.035  18.043  0.00  0.00    +0.000 C 
ATOM      7  C   UNL     1       9.245  13.547  17.820  0.00  0.00    +0.000 C 
ATOM      8  N   UNL     1       9.975  12.582  18.649  0.00  0.00    +0.000 NA
ATOM      9  C   UNL     1       9.834  11.211  18.119  0.00  0.00    +0.000 C 
ATOM     10  C   UNL     1       9.288  10.356  19.247  0.00  0.00    +0.000 C 
ATOM     11  C   UNL     1       9.712  11.120  20.483  0.00  0.00    +0.000 C 
ATOM     12  C   UNL     1       9.419  12.537  20.031  0.00  0.00    +0.000 C 
ATOM     13  C   UNL     1       9.986  13.622  20.962  0.00  0.00    +0.000 C 
ATOM     14  C   UNL     1       7.167  15.979  20.260  0.00  0.00    +0.000 A 
ATOM     15  C   UNL     1       7.146  17.038  19.327  0.00  0.00    +0.000 A 
ATOM     16  N   UNL     1       5.917  17.479  19.038  0.00  0.00    +0.000 NA
ATOM     17  N   UNL     1       5.135  16.719  19.832  0.00  0.00    +0.000 N 
ATOM     18  C   UNL     1       3.707  16.918  19.855  0.00  0.00    +0.000 C 
ATOM     19  C   UNL     1       5.834  15.832  20.604  0.00  0.00    +0.000 A 
ATOM     20  N   UNL     1       5.302  14.994  21.508  0.00  0.00    +0.000 NA
ENDROOT
BRANCH   1  21
ATOM     21  C   UNL     1       5.811  13.429  23.306  0.00  0.00    +0.000 C 
BRANCH  21  23
ATOM     22  C   UNL     1       7.337  11.806  24.550  0.00  0.00    +0.000 C 
ATOM     23  C   UNL     1       6.421  12.033  23.356  0.00  0.00    +0.000 C 
ENDBRANCH  21  23
ENDBRANCH   1  21
TORSDOF 2
ENDMDL
MODEL 7
REMARK VINA RESULT:      -5.8      8.709     11.657
REMARK  Name = 
REMARK  4 active torsions:
REMARK  status: ('A' for Active; 'I' for Inactive)
REMARK    1  A    between atoms: C_1  and  C_2
REMARK    2  A    between atoms: C_2  and  C_3
REMARK    3  A    between atoms: C_3  and  C_4
REMARK    4  A    between atoms: N_20  and  C_21
REMARK                            x       y       z     vdW  Elec       q    Type
REMARK                         _______ _______ _______ _____ _____    ______ ____
ROOT
ATOM      1  C   UNL     1      -2.204  10.979  18.239  0.00  0.00    +0.000 A 
ATOM      2  N   UNL     1      -1.271  11.142  19.196  0.00  0.00    +0.000 NA
ATOM      3  C   UNL     1      -1.500  11.897  20.322  0.00  0.00    +0.000 A 
ATOM      4  N   UNL     1      -0.423  12.093  21.192  0.00  0.00    +0.000 N 
ATOM      5  C   UNL     1      -0.418  13.092  22.252  0.00  0.00    +0.000 C 
ATOM      6  C   UNL     1      -0.561  14.546  21.808  0.00  0.00    +0.000 C 
ATOM      7  C   UNL     1       0.229  15.059  20.599  0.00  0.00    +0.000 C 
ATOM      8  N   UNL     1       1.468  14.354  20.252  0.00  0.00    +0.000 NA
ATOM      9  C   UNL     1       2.272  15.132  19.289  0.00  0.00    +0.000 C 
ATOM     10  C   UNL     1       2.524  14.230  18.095  0.00  0.00    +0.000 C 
ATOM     11  C   UNL     1       2.381  12.844  18.685  0.00  0.00    +0.000 C 
ATOM     12  C   UNL     1       1.173  13.059  19.575  0.00  0.00    +0.000 C 
ATOM     13  C   UNL     1       0.898  11.900  20.548  0.00  0.00    +0.000 C 
ATOM     14  C   UNL     1      -2.805  12.423  20.435  0.00  0.00    +0.000 A 
ATOM     15  C   UNL     1      -3.598  13.148  21.351  0.00  0.00    +0.000 A 
ATOM     16  N   UNL     1      -4.809  13.464  20.882  0.00  0.00    +0.000 NA
ATOM     17  N   UNL     1      -4.814  12.895  19.660  0.00  0.00    +0.000 N 
ATOM     18  C   UNL     1      -5.987  12.968  18.825  0.00  0.00    +0.000 C 
ATOM     19  C   UNL     1      -3.655  12.234  19.358  0.00  0.00    +0.000 A 
ATOM     20  N   UNL     1      -3.418  11.548  18.229  0.00  0.00    +0.000 NA
ENDROOT
BRANCH   1  21
ATOM     21  C   UNL     1      -1.874  10.021  17.120  0.00  0.00    +0.000 C 
BRANCH  21  23
ATOM     22  C   UNL     1      -2.941  10.292  14.818  0.00  0.00    +0.000 C 
ATOM     23  C   UNL     1      -3.043   9.672  16.204  0.00  0.00    +0.000 C 
ENDBRANCH  21  23
ENDBRANCH   1  21
TORSDOF 2
ENDMDL
MODEL 8
REMARK VINA RESULT:      -5.8      7.182     10.714
REMARK  Name = 
REMARK  4 active torsions:
REMARK  status: ('A' for Active; 'I' for Inactive)
REMARK    1  A    between atoms: C_1  and  C_2
REMARK    2  A    between atoms: C_2  and  C_3
REMARK    3  A    between atoms: C_3  and  C_4
REMARK    4  A    between atoms: N_20  and  C_21
REMARK                            x       y       z     vdW  Elec       q    Type
REMARK                         _______ _______ _______ _____ _____    ______ ____
ROOT
ATOM      1  C   UNL     1      -0.456  10.449  18.376  0.00  0.00    +0.000 A 
ATOM      2  N   UNL     1       0.105  11.193  19.348  0.00  0.00    +0.000 NA
ATOM      3  C   UNL     1      -0.618  12.103  20.084  0.00  0.00    +0.000 A 
ATOM      4  N   UNL     1       0.089  12.903  20.987  0.00  0.00    +0.000 N 
ATOM      5  C   UNL     1      -0.468  14.093  21.612  0.00  0.00    +0.000 C 
ATOM      6  C   UNL     1      -0.892  15.216  20.667  0.00  0.00    +0.000 C 
ATOM      7  C   UNL     1       0.013  15.613  19.495  0.00  0.00    +0.000 C 
ATOM      8  N   UNL     1       1.446  15.324  19.620  0.00  0.00    +0.000 NA
ATOM      9  C   UNL     1       2.224  16.032  18.583  0.00  0.00    +0.000 C 
ATOM     10  C   UNL     1       3.027  14.981  17.840  0.00  0.00    +0.000 C 
ATOM     11  C   UNL     1       3.129  13.859  18.851  0.00  0.00    +0.000 C 
ATOM     12  C   UNL     1       1.718  13.874  19.406  0.00  0.00    +0.000 C 
ATOM     13  C   UNL     1       1.533  13.017  20.669  0.00  0.00    +0.000 C 
ATOM     14  C   UNL     1      -1.999  12.142  19.796  0.00  0.00    +0.000 A 
ATOM     15  C   UNL     1      -3.177  12.766  20.260  0.00  0.00    +0.000 A 
ATOM     16  N   UNL     1      -4.259  12.489  19.525  0.00  0.00    +0.000 NA
ATOM     17  N   UNL     1      -3.779  11.636  18.598  0.00  0.00    +0.000 N 
ATOM     18  C   UNL     1      -4.660  11.051  17.618  0.00  0.00    +0.000 C 
ATOM     19  C   UNL     1      -2.443  11.371  18.736  0.00  0.00    +0.000 A 
ATOM     20  N   UNL     1      -1.732  10.525  17.974  0.00  0.00    +0.000 NA
ENDROOT
BRANCH   1  21
ATOM     21  C   UNL     1       0.415   9.396  17.734  0.00  0.00    +0.000 C 
BRANCH  21  23
ATOM     22  C   UNL     1       2.702   8.274  17.876  0.00  0.00    +0.000 C 
ATOM     23  C   UNL     1       1.913   9.572  17.961  0.00  0.00    +0.000 C 
ENDBRANCH  21  23
ENDBRANCH   1  21
TORSDOF 2
ENDMDL
MODEL 9
REMARK VINA RESULT:      -5.6     10.131     12.867
REMARK  Name = 
REMARK  4 active torsions:
REMARK  status: ('A' for Active; 'I' for Inactive)
REMARK    1  A    between atoms: C_1  and  C_2
REMARK    2  A    between atoms: C_2  and  C_3
REMARK    3  A    between atoms: C_3  and  C_4
REMARK    4  A    between atoms: N_20  and  C_21
REMARK                            x       y       z     vdW  Elec       q    Type
REMARK                         _______ _______ _______ _____ _____    ______ ____
ROOT
ATOM      1  C   UNL     1      -2.938  11.664  18.048  0.00  0.00    +0.000 A 
ATOM      2  N   UNL     1      -2.204  12.151  19.068  0.00  0.00    +0.000 NA
ATOM      3  C   UNL     1      -2.778  12.621  20.225  0.00  0.00    +0.000 A 
ATOM      4  N   UNL     1      -1.931  13.209  21.168  0.00  0.00    +0.000 N 
ATOM      5  C   UNL     1      -2.406  14.008  22.289  0.00  0.00    +0.000 C 
ATOM      6  C   UNL     1      -3.188  15.271  21.933  0.00  0.00    +0.000 C 
ATOM      7  C   UNL     1      -2.691  16.187  20.809  0.00  0.00    +0.000 C 
ATOM      8  N   UNL     1      -1.260  16.153  20.491  0.00  0.00    +0.000 NA
ATOM      9  C   UNL     1      -0.878  17.290  19.630  0.00  0.00    +0.000 C 
ATOM     10  C   UNL     1      -0.215  16.706  18.396  0.00  0.00    +0.000 C 
ATOM     11  C   UNL     1       0.278  15.361  18.885  0.00  0.00    +0.000 C 
ATOM     12  C   UNL     1      -0.915  14.928  19.715  0.00  0.00    +0.000 C 
ATOM     13  C   UNL     1      -0.653  13.693  20.592  0.00  0.00    +0.000 C 
ATOM     14  C   UNL     1      -4.181  12.486  20.294  0.00  0.00    +0.000 A 
ATOM     15  C   UNL     1      -5.239  12.692  21.207  0.00  0.00    +0.000 A 
ATOM     16  N   UNL     1      -6.450  12.463  20.689  0.00  0.00    +0.000 NA
ATOM     17  N   UNL     1      -6.166  12.060  19.434  0.00  0.00    +0.000 N 
ATOM     18  C   UNL     1      -7.224  11.663  18.538  0.00  0.00    +0.000 C 
ATOM     19  C   UNL     1      -4.826  12.025  19.159  0.00  0.00    +0.000 A 
ATOM     20  N   UNL     1      -4.276  11.620  18.003  0.00  0.00    +0.000 NA
ENDROOT
BRANCH   1  21
ATOM     21  C   UNL     1      -2.181  11.059  16.891  0.00  0.00    +0.000 C 
BRANCH  21  23
ATOM     22  C   UNL     1      -3.097  10.070  14.724  0.00  0.00    +0.000 C 
ATOM     23  C   UNL     1      -2.870   9.878  16.217  0.00  0.00    +0.000 C 
ENDBRANCH  21  23
ENDBRANCH   1  21
TORSDOF 2
ENDMDL
