MODEL 1
REMARK VINA RESULT:      -7.3      0.000      0.000
REMARK  Name = 
REMARK  6 active torsions:
REMARK  status: ('A' for Active; 'I' for Inactive)
REMARK    1  A    between atoms: C_1  and  C_2
REMARK    2  A    between atoms: C_2  and  C_3
REMARK    3  A    between atoms: C_5  and  C_6
REMARK    4  A    between atoms: N_11  and  C_12
REMARK    5  A    between atoms: C_14  and  C_15
REMARK    6  A    between atoms: N_17  and  C_18
REMARK                            x       y       z     vdW  Elec       q    Type
REMARK                         _______ _______ _______ _____ _____    ______ ____
ROOT
ATOM      1  C   UNL     1       1.183   8.535  20.070  0.00  0.00    +0.000 A 
ATOM      2  N   UNL     1       2.166   7.665  19.935  0.00  0.00    +0.000 NA
ATOM      3  C   UNL     1       2.501   7.719  18.600  0.00  0.00    +0.000 A 
ATOM      4  N   UNL     1       1.775   8.624  17.923  0.00  0.00    +0.000 NA
ATOM      5  N   UNL     1       0.939   9.138  18.843  0.00  0.00    +0.000 N 
ENDROOT
BRANCH   3   6
ATOM      6  C   UNL     1       3.498   6.855  17.914  0.00  0.00    +0.000 C 
ATOM      7  O   UNL     1       4.488   7.358  17.373  0.00  0.00    +0.000 OA
ATOM      8  N   UNL     1       3.318   5.460  17.882  0.00  0.00    +0.000 N 
ATOM      9  C   UNL     1       4.345   4.641  17.226  0.00  0.00    +0.000 C 
ATOM     10  C   UNL     1       5.031   3.688  18.225  0.00  0.00    +0.000 C 
ATOM     11  N   UNL     1       4.104   2.846  19.008  0.00  0.00    +0.000 NA
ATOM     12  C   UNL     1       3.619   1.701  18.250  0.00  0.00    +0.000 C 
ATOM     13  C   UNL     1       3.026   3.668  19.585  0.00  0.00    +0.000 C 
ATOM     14  C   UNL     1       2.321   4.698  18.655  0.00  0.00    +0.000 C 
ATOM     15  C   UNL     1       1.273   4.075  17.731  0.00  0.00    +0.000 C 
ENDBRANCH   3   6
BRANCH   5  16
ATOM     16  C   UNL     1       0.030  10.172  18.504  0.00  0.00    +0.000 A 
ATOM     17  C   UNL     1      -1.135   9.858  17.779  0.00  0.00    +0.000 A 
ATOM     18  C   UNL     1      -2.036  10.860  17.411  0.00  0.00    +0.000 A 
ATOM     19  C   UNL     1      -1.795  12.181  17.774  0.00  0.00    +0.000 A 
ATOM     20  C   UNL     1      -0.657  12.500  18.512  0.00  0.00    +0.000 A 
ATOM     21  C   UNL     1       0.259  11.507  18.884  0.00  0.00    +0.000 A 
ATOM     22 CL   UNL     1       1.691  12.073  19.673  0.00  0.00    +0.000 Cl
ENDBRANCH   5  16
BRANCH   1  24
ATOM     23  C   UNL     1       1.231   9.309  22.450  0.00  0.00    +0.000 C 
ATOM     24  C   UNL     1       0.385   8.752  21.315  0.00  0.00    +0.000 C 
ENDBRANCH   1  24
TORSDOF 3
ENDMDL
MODEL 2
REMARK VINA RESULT:      -7.3      2.509      4.042
REMARK  Name = 
REMARK  6 active torsions:
REMARK  status: ('A' for Active; 'I' for Inactive)
REMARK    1  A    between atoms: C_1  and  C_2
REMARK    2  A    between atoms: C_2  and  C_3
REMARK    3  A    between atoms: C_5  and  C_6
REMARK    4  A    between atoms: N_11  and  C_12
REMARK    5  A    between atoms: C_14  and  C_15
REMARK    6  A    between atoms: N_17  and  C_18
REMARK                            x       y       z     vdW  Elec       q    Type
REMARK                         _______ _______ _______ _____ _____    ______ ____
ROOT
ATOM      1  C   UNL     1       2.280   5.229  20.081  0.00  0.00    +0.000 A 
ATOM      2  N   UNL     1       3.399   4.594  19.788  0.00  0.00    +0.000 NA
ATOM      3  C   UNL     1       4.282   5.587  19.424  0.00  0.00    +0.000 A 
ATOM      4  N   UNL     1       3.746   6.814  19.521  0.00  0.00    +0.000 NA
ATOM      5  N   UNL     1       2.482   6.595  19.930  0.00  0.00    +0.000 N 
ENDROOT
BRANCH   3   6
ATOM      6  C   UNL     1       5.663   5.383  18.912  0.00  0.00    +0.000 C 
ATOM      7  O   UNL     1       6.584   5.124  19.695  0.00  0.00    +0.000 OA
ATOM      8  N   UNL     1       5.926   5.481  17.534  0.00  0.00    +0.000 N 
ATOM      9  C   UNL     1       7.297   5.236  17.068  0.00  0.00    +0.000 C 
ATOM     10  C   UNL     1       7.366   4.006  16.141  0.00  0.00    +0.000 C 
ATOM     11  N   UNL     1       6.419   4.033  15.008  0.00  0.00    +0.000 NA
ATOM     12  C   UNL     1       6.882   4.879  13.917  0.00  0.00    +0.000 C 
ATOM     13  C   UNL     1       5.065   4.371  15.479  0.00  0.00    +0.000 C 
ATOM     14  C   UNL     1       4.915   5.565  16.464  0.00  0.00    +0.000 C 
ATOM     15  C   UNL     1       4.956   6.934  15.781  0.00  0.00    +0.000 C 
ENDBRANCH   3   6
BRANCH   5  16
ATOM     16  C   UNL     1       1.602   7.677  20.187  0.00  0.00    +0.000 A 
ATOM     17  C   UNL     1       0.938   7.748  21.426  0.00  0.00    +0.000 A 
ATOM     18  C   UNL     1       0.047   8.789  21.697  0.00  0.00    +0.000 A 
ATOM     19  C   UNL     1      -0.180   9.777  20.745  0.00  0.00    +0.000 A 
ATOM     20  C   UNL     1       0.490   9.730  19.524  0.00  0.00    +0.000 A 
ATOM     21  C   UNL     1       1.383   8.689  19.235  0.00  0.00    +0.000 A 
ATOM     22 CL   UNL     1       2.029   8.687  17.630  0.00  0.00    +0.000 Cl
ENDBRANCH   5  16
BRANCH   1  24
ATOM     23  C   UNL     1       1.161   3.201  21.026  0.00  0.00    +0.000 C 
ATOM     24  C   UNL     1       0.976   4.579  20.408  0.00  0.00    +0.000 C 
ENDBRANCH   1  24
TORSDOF 3
ENDMDL
MODEL 3
REMARK VINA RESULT:      -7.0      1.103      1.541
REMARK  Name = 
REMARK  6 active torsions:
REMARK  status: ('A' for Active; 'I' for Inactive)
REMARK    1  A    between atoms: C_1  and  C_2
REMARK    2  A    between atoms: C_2  and  C_3
REMARK    3  A    between atoms: C_5  and  C_6
REMARK    4  A    between atoms: N_11  and  C_12
REMARK    5  A    between atoms: C_14  and  C_15
REMARK    6  A    between atoms: N_17  and  C_18
REMARK                            x       y       z     vdW  Elec       q    Type
REMARK                         _______ _______ _______ _____ _____    ______ ____
ROOT
ATOM      1  C   UNL     1       1.203   8.663  20.033  0.00  0.00    +0.000 A 
ATOM      2  N   UNL     1       1.992   7.629  19.813  0.00  0.00    +0.000 NA
ATOM      3  C   UNL     1       2.553   7.872  18.579  0.00  0.00    +0.000 A 
ATOM      4  N   UNL     1       2.158   9.043  18.054  0.00  0.00    +0.000 NA
ATOM      5  N   UNL     1       1.302   9.545  18.964  0.00  0.00    +0.000 N 
ENDROOT
BRANCH   3   6
ATOM      6  C   UNL     1       3.451   6.952  17.831  0.00  0.00    +0.000 C 
ATOM      7  O   UNL     1       4.380   7.405  17.154  0.00  0.00    +0.000 OA
ATOM      8  N   UNL     1       3.247   5.562  17.894  0.00  0.00    +0.000 N 
ATOM      9  C   UNL     1       4.179   4.688  17.169  0.00  0.00    +0.000 C 
ATOM     10  C   UNL     1       4.960   3.773  18.134  0.00  0.00    +0.000 C 
ATOM     11  N   UNL     1       4.116   2.993  19.062  0.00  0.00    +0.000 NA
ATOM     12  C   UNL     1       3.529   1.821  18.427  0.00  0.00    +0.000 C 
ATOM     13  C   UNL     1       3.124   3.867  19.713  0.00  0.00    +0.000 C 
ATOM     14  C   UNL     1       2.334   4.862  18.816  0.00  0.00    +0.000 C 
ATOM     15  C   UNL     1       1.177   4.215  18.053  0.00  0.00    +0.000 C 
ENDBRANCH   3   6
BRANCH   5  16
ATOM     16  C   UNL     1       0.699  10.814  18.775  0.00  0.00    +0.000 A 
ATOM     17  C   UNL     1       1.446  11.979  19.035  0.00  0.00    +0.000 A 
ATOM     18  C   UNL     1       0.870  13.243  18.880  0.00  0.00    +0.000 A 
ATOM     19  C   UNL     1      -0.448  13.359  18.451  0.00  0.00    +0.000 A 
ATOM     20  C   UNL     1      -1.189  12.213  18.169  0.00  0.00    +0.000 A 
ATOM     21  C   UNL     1      -0.627  10.939  18.324  0.00  0.00    +0.000 A 
ATOM     22 CL   UNL     1      -1.710   9.612  18.073  0.00  0.00    +0.000 Cl
ENDBRANCH   5  16
BRANCH   1  24
ATOM     23  C   UNL     1       0.984   9.249  22.456  0.00  0.00    +0.000 C 
ATOM     24  C   UNL     1       0.268   8.807  21.189  0.00  0.00    +0.000 C 
ENDBRANCH   1  24
TORSDOF 3
ENDMDL
MODEL 4
REMARK VINA RESULT:      -7.0      1.033      2.680
REMARK  Name = 
REMARK  6 active torsions:
REMARK  status: ('A' for Active; 'I' for Inactive)
REMARK    1  A    between atoms: C_1  and  C_2
REMARK    2  A    between atoms: C_2  and  C_3
REMARK    3  A    between atoms: C_5  and  C_6
REMARK    4  A    between atoms: N_11  and  C_12
REMARK    5  A    between atoms: C_14  and  C_15
REMARK    6  A    between atoms: N_17  and  C_18
REMARK                            x       y       z     vdW  Elec       q    Type
REMARK                         _______ _______ _______ _____ _____    ______ ____
ROOT
ATOM      1  C   UNL     1       0.925   9.380  18.190  0.00  0.00    +0.000 A 
ATOM      2  N   UNL     1       1.699   8.658  17.401  0.00  0.00    +0.000 NA
ATOM      3  C   UNL     1       2.465   7.901  18.260  0.00  0.00    +0.000 A 
ATOM      4  N   UNL     1       2.156   8.113  19.550  0.00  0.00    +0.000 NA
ATOM      5  N   UNL     1       1.189   9.047  19.512  0.00  0.00    +0.000 N 
ENDROOT
BRANCH   3   6
ATOM      6  C   UNL     1       3.569   6.985  17.868  0.00  0.00    +0.000 C 
ATOM      7  O   UNL     1       4.632   7.443  17.434  0.00  0.00    +0.000 OA
ATOM      8  N   UNL     1       3.408   5.594  17.992  0.00  0.00    +0.000 N 
ATOM      9  C   UNL     1       4.536   4.727  17.628  0.00  0.00    +0.000 C 
ATOM     10  C   UNL     1       5.052   3.932  18.844  0.00  0.00    +0.000 C 
ATOM     11  N   UNL     1       4.014   3.172  19.570  0.00  0.00    +0.000 NA
ATOM     12  C   UNL     1       3.671   1.924  18.902  0.00  0.00    +0.000 C 
ATOM     13  C   UNL     1       2.849   4.030  19.847  0.00  0.00    +0.000 C 
ATOM     14  C   UNL     1       2.302   4.909  18.686  0.00  0.00    +0.000 C 
ATOM     15  C   UNL     1       1.427   4.140  17.694  0.00  0.00    +0.000 C 
ENDBRANCH   3   6
BRANCH   5  16
ATOM     16  C   UNL     1       0.571   9.505  20.704  0.00  0.00    +0.000 A 
ATOM     17  C   UNL     1      -0.117   8.588  21.521  0.00  0.00    +0.000 A 
ATOM     18  C   UNL     1      -0.755   9.015  22.688  0.00  0.00    +0.000 A 
ATOM     19  C   UNL     1      -0.701  10.354  23.062  0.00  0.00    +0.000 A 
ATOM     20  C   UNL     1      -0.003  11.265  22.272  0.00  0.00    +0.000 A 
ATOM     21  C   UNL     1       0.637  10.853  21.096  0.00  0.00    +0.000 A 
ATOM     22 CL   UNL     1       1.342  12.120  20.150  0.00  0.00    +0.000 Cl
ENDBRANCH   5  16
BRANCH   1  24
ATOM     23  C   UNL     1      -1.461  10.033  17.808  0.00  0.00    +0.000 C 
ATOM     24  C   UNL     1      -0.003  10.460  17.738  0.00  0.00    +0.000 C 
ENDBRANCH   1  24
TORSDOF 3
ENDMDL
MODEL 5
REMARK VINA RESULT:      -6.9      2.700      7.183
REMARK  Name = 
REMARK  6 active torsions:
REMARK  status: ('A' for Active; 'I' for Inactive)
REMARK    1  A    between atoms: C_1  and  C_2
REMARK    2  A    between atoms: C_2  and  C_3
REMARK    3  A    between atoms: C_5  and  C_6
REMARK    4  A    between atoms: N_11  and  C_12
REMARK    5  A    between atoms: C_14  and  C_15
REMARK    6  A    between atoms: N_17  and  C_18
REMARK                            x       y       z     vdW  Elec       q    Type
REMARK                         _______ _______ _______ _____ _____    ______ ____
ROOT
ATOM      1  C   UNL     1       1.498   5.519  20.531  0.00  0.00    +0.000 A 
ATOM      2  N   UNL     1       0.874   6.497  21.160  0.00  0.00    +0.000 NA
ATOM      3  C   UNL     1       1.567   7.636  20.812  0.00  0.00    +0.000 A 
ATOM      4  N   UNL     1       2.574   7.386  19.959  0.00  0.00    +0.000 NA
ATOM      5  N   UNL     1       2.539   6.053  19.782  0.00  0.00    +0.000 N 
ENDROOT
BRANCH   3   6
ATOM      6  C   UNL     1       1.318   9.005  21.337  0.00  0.00    +0.000 C 
ATOM      7  O   UNL     1       1.522   9.259  22.528  0.00  0.00    +0.000 OA
ATOM      8  N   UNL     1       0.852  10.015  20.477  0.00  0.00    +0.000 N 
ATOM      9  C   UNL     1       0.654  11.362  21.029  0.00  0.00    +0.000 C 
ATOM     10  C   UNL     1       1.592  12.388  20.362  0.00  0.00    +0.000 C 
ATOM     11  N   UNL     1       1.534  12.408  18.886  0.00  0.00    +0.000 NA
ATOM     12  C   UNL     1       0.378  13.140  18.386  0.00  0.00    +0.000 C 
ATOM     13  C   UNL     1       1.640  11.040  18.350  0.00  0.00    +0.000 C 
ATOM     14  C   UNL     1       0.769   9.932  19.007  0.00  0.00    +0.000 C 
ATOM     15  C   UNL     1      -0.688   9.939  18.541  0.00  0.00    +0.000 C 
ENDBRANCH   3   6
BRANCH   5  16
ATOM     16  C   UNL     1       3.443   5.411  18.897  0.00  0.00    +0.000 A 
ATOM     17  C   UNL     1       4.828   5.517  19.129  0.00  0.00    +0.000 A 
ATOM     18  C   UNL     1       5.742   4.915  18.260  0.00  0.00    +0.000 A 
ATOM     19  C   UNL     1       5.288   4.190  17.164  0.00  0.00    +0.000 A 
ATOM     20  C   UNL     1       3.919   4.059  16.939  0.00  0.00    +0.000 A 
ATOM     21  C   UNL     1       2.989   4.661  17.798  0.00  0.00    +0.000 A 
ATOM     22 CL   UNL     1       1.333   4.531  17.312  0.00  0.00    +0.000 Cl
ENDBRANCH   5  16
BRANCH   1  24
ATOM     23  C   UNL     1       2.193   3.376  21.621  0.00  0.00    +0.000 C 
ATOM     24  C   UNL     1       1.205   4.063  20.690  0.00  0.00    +0.000 C 
ENDBRANCH   1  24
TORSDOF 3
ENDMDL
MODEL 6
REMARK VINA RESULT:      -6.6      2.490      7.502
REMARK  Name = 
REMARK  6 active torsions:
REMARK  status: ('A' for Active; 'I' for Inactive)
REMARK    1  A    between atoms: C_1  and  C_2
REMARK    2  A    between atoms: C_2  and  C_3
REMARK    3  A    between atoms: C_5  and  C_6
REMARK    4  A    between atoms: N_11  and  C_12
REMARK    5  A    between atoms: C_14  and  C_15
REMARK    6  A    between atoms: N_17  and  C_18
REMARK                            x       y       z     vdW  Elec       q    Type
REMARK                         _______ _______ _______ _____ _____    ______ ____
ROOT
ATOM      1  C   UNL     1       2.961   7.001  18.237  0.00  0.00    +0.000 A 
ATOM      2  N   UNL     1       2.582   8.137  18.792  0.00  0.00    +0.000 NA
ATOM      3  C   UNL     1       1.842   7.760  19.892  0.00  0.00    +0.000 A 
ATOM      4  N   UNL     1       1.788   6.427  20.045  0.00  0.00    +0.000 NA
ATOM      5  N   UNL     1       2.488   5.943  19.002  0.00  0.00    +0.000 N 
ENDROOT
BRANCH   3   6
ATOM      6  C   UNL     1       1.108   8.675  20.806  0.00  0.00    +0.000 C 
ATOM      7  O   UNL     1       1.128   8.481  22.026  0.00  0.00    +0.000 OA
ATOM      8  N   UNL     1       0.390   9.766  20.285  0.00  0.00    +0.000 N 
ATOM      9  C   UNL     1      -0.290  10.665  21.226  0.00  0.00    +0.000 C 
ATOM     10  C   UNL     1       0.291  12.092  21.162  0.00  0.00    +0.000 C 
ATOM     11  N   UNL     1       0.335  12.680  19.808  0.00  0.00    +0.000 NA
ATOM     12  C   UNL     1      -0.961  13.189  19.380  0.00  0.00    +0.000 C 
ATOM     13  C   UNL     1       0.936  11.730  18.855  0.00  0.00    +0.000 C 
ATOM     14  C   UNL     1       0.446  10.254  18.894  0.00  0.00    +0.000 C 
ATOM     15  C   UNL     1      -0.890  10.032  18.183  0.00  0.00    +0.000 C 
ENDBRANCH   3   6
BRANCH   5  16
ATOM     16  C   UNL     1       2.689   4.547  18.844  0.00  0.00    +0.000 A 
ATOM     17  C   UNL     1       1.614   3.736  18.434  0.00  0.00    +0.000 A 
ATOM     18  C   UNL     1       1.778   2.356  18.294  0.00  0.00    +0.000 A 
ATOM     19  C   UNL     1       3.015   1.772  18.545  0.00  0.00    +0.000 A 
ATOM     20  C   UNL     1       4.092   2.569  18.929  0.00  0.00    +0.000 A 
ATOM     21  C   UNL     1       3.942   3.954  19.079  0.00  0.00    +0.000 A 
ATOM     22 CL   UNL     1       5.326   4.790  19.697  0.00  0.00    +0.000 Cl
ENDBRANCH   5  16
BRANCH   1  24
ATOM     23  C   UNL     1       5.192   6.940  17.106  0.00  0.00    +0.000 C 
ATOM     24  C   UNL     1       3.682   6.874  16.935  0.00  0.00    +0.000 C 
ENDBRANCH   1  24
TORSDOF 3
ENDMDL
MODEL 7
REMARK VINA RESULT:      -6.5      2.498      7.592
REMARK  Name = 
REMARK  6 active torsions:
REMARK  status: ('A' for Active; 'I' for Inactive)
REMARK    1  A    between atoms: C_1  and  C_2
REMARK    2  A    between atoms: C_2  and  C_3
REMARK    3  A    between atoms: C_5  and  C_6
REMARK    4  A    between atoms: N_11  and  C_12
REMARK    5  A    between atoms: C_14  and  C_15
REMARK    6  A    between atoms: N_17  and  C_18
REMARK                            x       y       z     vdW  Elec       q    Type
REMARK                         _______ _______ _______ _____ _____    ______ ____
ROOT
ATOM      1  C   UNL     1       3.289   6.839  18.287  0.00  0.00    +0.000 A 
ATOM      2  N   UNL     1       2.859   7.983  18.785  0.00  0.00    +0.000 NA
ATOM      3  C   UNL     1       2.074   7.624  19.858  0.00  0.00    +0.000 A 
ATOM      4  N   UNL     1       2.040   6.296  20.052  0.00  0.00    +0.000 NA
ATOM      5  N   UNL     1       2.801   5.795  19.061  0.00  0.00    +0.000 N 
ENDROOT
BRANCH   3   6
ATOM      6  C   UNL     1       1.276   8.551  20.705  0.00  0.00    +0.000 C 
ATOM      7  O   UNL     1       1.196   8.365  21.924  0.00  0.00    +0.000 OA
ATOM      8  N   UNL     1       0.612   9.644  20.121  0.00  0.00    +0.000 N 
ATOM      9  C   UNL     1      -0.134  10.555  20.999  0.00  0.00    +0.000 C 
ATOM     10  C   UNL     1       0.462  11.977  20.974  0.00  0.00    +0.000 C 
ATOM     11  N   UNL     1       0.620  12.556  19.624  0.00  0.00    +0.000 NA
ATOM     12  C   UNL     1      -0.632  13.072  19.091  0.00  0.00    +0.000 C 
ATOM     13  C   UNL     1       1.288  11.595  18.729  0.00  0.00    +0.000 C 
ATOM     14  C   UNL     1       0.784  10.123  18.737  0.00  0.00    +0.000 C 
ATOM     15  C   UNL     1      -0.492   9.907  17.922  0.00  0.00    +0.000 C 
ENDBRANCH   3   6
BRANCH   5  16
ATOM     16  C   UNL     1       3.039   4.400  18.959  0.00  0.00    +0.000 A 
ATOM     17  C   UNL     1       4.114   3.830  19.667  0.00  0.00    +0.000 A 
ATOM     18  C   UNL     1       4.386   2.463  19.566  0.00  0.00    +0.000 A 
ATOM     19  C   UNL     1       3.583   1.649  18.774  0.00  0.00    +0.000 A 
ATOM     20  C   UNL     1       2.502   2.200  18.088  0.00  0.00    +0.000 A 
ATOM     21  C   UNL     1       2.219   3.569  18.175  0.00  0.00    +0.000 A 
ATOM     22 CL   UNL     1       0.936   4.130  17.158  0.00  0.00    +0.000 Cl
ENDBRANCH   5  16
BRANCH   1  24
ATOM     23  C   UNL     1       5.577   6.695  17.282  0.00  0.00    +0.000 C 
ATOM     24  C   UNL     1       4.077   6.686  17.027  0.00  0.00    +0.000 C 
ENDBRANCH   1  24
TORSDOF 3
ENDMDL
MODEL 8
REMARK VINA RESULT:      -6.5      2.536      7.209
REMARK  Name = 
REMARK  6 active torsions:
REMARK  status: ('A' for Active; 'I' for Inactive)
REMARK    1  A    between atoms: C_1  and  C_2
REMARK    2  A    between atoms: C_2  and  C_3
REMARK    3  A    between atoms: C_5  and  C_6
REMARK    4  A    between atoms: N_11  and  C_12
REMARK    5  A    between atoms: C_14  and  C_15
REMARK    6  A    between atoms: N_17  and  C_18
REMARK                            x       y       z     vdW  Elec       q    Type
REMARK                         _______ _______ _______ _____ _____    ______ ____
ROOT
ATOM      1  C   UNL     1       2.840   5.614  18.405  0.00  0.00    +0.000 A 
ATOM      2  N   UNL     1       1.974   6.549  18.749  0.00  0.00    +0.000 NA
ATOM      3  C   UNL     1       2.506   7.719  18.253  0.00  0.00    +0.000 A 
ATOM      4  N   UNL     1       3.654   7.522  17.585  0.00  0.00    +0.000 NA
ATOM      5  N   UNL     1       3.872   6.197  17.681  0.00  0.00    +0.000 N 
ENDROOT
BRANCH   3   6
ATOM      6  C   UNL     1       1.953   9.085  18.458  0.00  0.00    +0.000 C 
ATOM      7  O   UNL     1       1.944   9.896  17.526  0.00  0.00    +0.000 OA
ATOM      8  N   UNL     1       1.437   9.456  19.712  0.00  0.00    +0.000 N 
ATOM      9  C   UNL     1       0.868  10.802  19.859  0.00  0.00    +0.000 C 
ATOM     10  C   UNL     1      -0.637  10.745  20.192  0.00  0.00    +0.000 C 
ATOM     11  N   UNL     1      -0.980   9.896  21.351  0.00  0.00    +0.000 NA
ATOM     12  C   UNL     1      -0.725  10.561  22.622  0.00  0.00    +0.000 C 
ATOM     13  C   UNL     1      -0.327   8.581  21.235  0.00  0.00    +0.000 C 
ATOM     14  C   UNL     1       1.179   8.549  20.845  0.00  0.00    +0.000 C 
ATOM     15  C   UNL     1       2.122   8.849  22.011  0.00  0.00    +0.000 C 
ENDBRANCH   3   6
BRANCH   5  16
ATOM     16  C   UNL     1       4.992   5.596  17.051  0.00  0.00    +0.000 A 
ATOM     17  C   UNL     1       4.951   5.341  15.667  0.00  0.00    +0.000 A 
ATOM     18  C   UNL     1       6.030   4.728  15.025  0.00  0.00    +0.000 A 
ATOM     19  C   UNL     1       7.164   4.377  15.750  0.00  0.00    +0.000 A 
ATOM     20  C   UNL     1       7.224   4.646  17.116  0.00  0.00    +0.000 A 
ATOM     21  C   UNL     1       6.148   5.255  17.775  0.00  0.00    +0.000 A 
ATOM     22 CL   UNL     1       6.311   5.396  19.492  0.00  0.00    +0.000 Cl
ENDBRANCH   5  16
BRANCH   1  24
ATOM     23  C   UNL     1       2.226   3.284  17.728  0.00  0.00    +0.000 C 
ATOM     24  C   UNL     1       2.779   4.182  18.825  0.00  0.00    +0.000 C 
ENDBRANCH   1  24
TORSDOF 3
ENDMDL
MODEL 9
REMARK VINA RESULT:      -6.5      1.891      2.830
REMARK  Name = 
REMARK  6 active torsions:
REMARK  status: ('A' for Active; 'I' for Inactive)
REMARK    1  A    between atoms: C_1  and  C_2
REMARK    2  A    between atoms: C_2  and  C_3
REMARK    3  A    between atoms: C_5  and  C_6
REMARK    4  A    between atoms: N_11  and  C_12
REMARK    5  A    between atoms: C_14  and  C_15
REMARK    6  A    between atoms: N_17  and  C_18
REMARK                            x       y       z     vdW  Elec       q    Type
REMARK                         _______ _______ _______ _____ _____    ______ ____
ROOT
ATOM      1  C   UNL     1       1.621   8.305  20.320  0.00  0.00    +0.000 A 
ATOM      2  N   UNL     1       2.015   7.061  20.124  0.00  0.00    +0.000 NA
ATOM      3  C   UNL     1       2.154   6.950  18.758  0.00  0.00    +0.000 A 
ATOM      4  N   UNL     1       1.891   8.100  18.117  0.00  0.00    +0.000 NA
ATOM      5  N   UNL     1       1.550   8.958  19.096  0.00  0.00    +0.000 N 
ENDROOT
BRANCH   3   6
ATOM      6  C   UNL     1       2.491   5.708  18.013  0.00  0.00    +0.000 C 
ATOM      7  O   UNL     1       1.592   4.991  17.562  0.00  0.00    +0.000 OA
ATOM      8  N   UNL     1       3.836   5.346  17.817  0.00  0.00    +0.000 N 
ATOM      9  C   UNL     1       4.125   4.131  17.044  0.00  0.00    +0.000 C 
ATOM     10  C   UNL     1       4.896   4.455  15.749  0.00  0.00    +0.000 C 
ATOM     11  N   UNL     1       6.119   5.260  15.945  0.00  0.00    +0.000 NA
ATOM     12  C   UNL     1       7.242   4.459  16.412  0.00  0.00    +0.000 C 
ATOM     13  C   UNL     1       5.835   6.426  16.799  0.00  0.00    +0.000 C 
ATOM     14  C   UNL     1       5.010   6.193  18.097  0.00  0.00    +0.000 C 
ATOM     15  C   UNL     1       5.833   5.620  19.253  0.00  0.00    +0.000 C 
ENDBRANCH   3   6
BRANCH   5  16
ATOM     16  C   UNL     1       1.238  10.310  18.805  0.00  0.00    +0.000 A 
ATOM     17  C   UNL     1       2.281  11.246  18.668  0.00  0.00    +0.000 A 
ATOM     18  C   UNL     1       2.002  12.589  18.404  0.00  0.00    +0.000 A 
ATOM     19  C   UNL     1       0.684  13.011  18.259  0.00  0.00    +0.000 A 
ATOM     20  C   UNL     1      -0.355  12.089  18.369  0.00  0.00    +0.000 A 
ATOM     21  C   UNL     1      -0.091  10.739  18.639  0.00  0.00    +0.000 A 
ATOM     22 CL   UNL     1      -1.485   9.744  18.888  0.00  0.00    +0.000 Cl
ENDBRANCH   5  16
BRANCH   1  24
ATOM     23  C   UNL     1      -0.260   8.620  21.942  0.00  0.00    +0.000 C 
ATOM     24  C   UNL     1       1.207   8.884  21.634  0.00  0.00    +0.000 C 
ENDBRANCH   1  24
TORSDOF 3
ENDMDL
