MODEL 1
REMARK VINA RESULT:      -8.2      0.000      0.000
REMARK  Name = 
REMARK  6 active torsions:
REMARK  status: ('A' for Active; 'I' for Inactive)
REMARK    1  A    between atoms: C_5  and  C_6
REMARK    2  A    between atoms: C_6  and  C_7
REMARK    3  A    between atoms: C_7  and  C_8
REMARK    4  A    between atoms: C_16  and  C_17
REMARK    5  A    between atoms: C_17  and  C_18
REMARK    6  A    between atoms: C_18  and  C_19
REMARK                            x       y       z     vdW  Elec       q    Type
REMARK                         _______ _______ _______ _____ _____    ______ ____
ROOT
ATOM      1  N   UNL     1       6.913   4.943  19.478  0.00  0.00    +0.000 NA
ATOM      2  C   UNL     1       6.953   4.815  18.205  0.00  0.00    +0.000 C 
ATOM      3  N   UNL     1       8.158   4.271  17.670  0.00  0.00    +0.000 N 
ATOM      4  N   UNL     1       5.812   5.246  17.393  0.00  0.00    +0.000 N 
ATOM      5  C   UNL     1       5.451   4.819  16.034  0.00  0.00    +0.000 C 
ATOM      6  C   UNL     1       5.205   6.138  15.313  0.00  0.00    +0.000 C 
ATOM      7  C   UNL     1       4.374   6.854  16.347  0.00  0.00    +0.000 C 
ATOM      8  C   UNL     1       5.090   6.503  17.674  0.00  0.00    +0.000 C 
ATOM      9  H   UNL     1       7.680   4.640  20.095  0.00  0.00    +0.000 HD
ATOM     10  H   UNL     1       8.868   3.877  18.307  0.00  0.00    +0.000 HD
ATOM     11  H   UNL     1       8.438   4.353  16.696  0.00  0.00    +0.000 HD
ENDROOT
BRANCH   5  12
ATOM     12  C   UNL     1       6.377   3.911  15.228  0.00  0.00    +0.000 C 
BRANCH  12  13
ATOM     13  C   UNL     1       6.819   4.493  13.864  0.00  0.00    +0.000 C 
BRANCH  13  14
ATOM     14  C   UNL     1       6.166   3.675  12.786  0.00  0.00    +0.000 A 
ATOM     15  C   UNL     1       4.822   3.874  12.427  0.00  0.00    +0.000 A 
ATOM     16  C   UNL     1       4.225   3.053  11.464  0.00  0.00    +0.000 A 
ATOM     17  C   UNL     1       4.971   2.043  10.846  0.00  0.00    +0.000 A 
ATOM     18  C   UNL     1       6.305   1.855  11.195  0.00  0.00    +0.000 A 
ATOM     19  C   UNL     1       6.899   2.657  12.159  0.00  0.00    +0.000 A 
ENDBRANCH  13  14
ENDBRANCH  12  13
ENDBRANCH   5  12
BRANCH   8  20
ATOM     20  C   UNL     1       3.987   6.468  18.768  0.00  0.00    +0.000 C 
BRANCH  20  21
ATOM     21  C   UNL     1       2.561   6.184  18.309  0.00  0.00    +0.000 C 
BRANCH  21  22
ATOM     22  C   UNL     1       2.134   4.782  18.634  0.00  0.00    +0.000 A 
ATOM     23  C   UNL     1       2.405   3.752  17.714  0.00  0.00    +0.000 A 
ATOM     24  C   UNL     1       2.001   2.449  17.979  0.00  0.00    +0.000 A 
ATOM     25  C   UNL     1       1.324   2.158  19.165  0.00  0.00    +0.000 A 
ATOM     26  C   UNL     1       1.058   3.172  20.090  0.00  0.00    +0.000 A 
ATOM     27  C   UNL     1       1.466   4.482  19.830  0.00  0.00    +0.000 A 
ENDBRANCH  21  22
ENDBRANCH  20  21
ENDBRANCH   8  20
TORSDOF 6
ENDMDL
MODEL 2
REMARK VINA RESULT:      -8.2      0.200      1.007
REMARK  Name = 
REMARK  6 active torsions:
REMARK  status: ('A' for Active; 'I' for Inactive)
REMARK    1  A    between atoms: C_5  and  C_6
REMARK    2  A    between atoms: C_6  and  C_7
REMARK    3  A    between atoms: C_7  and  C_8
REMARK    4  A    between atoms: C_16  and  C_17
REMARK    5  A    between atoms: C_17  and  C_18
REMARK    6  A    between atoms: C_18  and  C_19
REMARK                            x       y       z     vdW  Elec       q    Type
REMARK                         _______ _______ _______ _____ _____    ______ ____
ROOT
ATOM      1  N   UNL     1       6.889   4.942  19.519  0.00  0.00    +0.000 NA
ATOM      2  C   UNL     1       6.931   4.803  18.248  0.00  0.00    +0.000 C 
ATOM      3  N   UNL     1       8.117   4.210  17.724  0.00  0.00    +0.000 N 
ATOM      4  N   UNL     1       5.812   5.271  17.426  0.00  0.00    +0.000 N 
ATOM      5  C   UNL     1       5.443   4.849  16.068  0.00  0.00    +0.000 C 
ATOM      6  C   UNL     1       5.252   6.171  15.336  0.00  0.00    +0.000 C 
ATOM      7  C   UNL     1       4.443   6.926  16.361  0.00  0.00    +0.000 C 
ATOM      8  C   UNL     1       5.137   6.557  17.694  0.00  0.00    +0.000 C 
ATOM      9  H   UNL     1       7.640   4.614  20.143  0.00  0.00    +0.000 HD
ATOM     10  H   UNL     1       8.808   3.793  18.367  0.00  0.00    +0.000 HD
ATOM     11  H   UNL     1       8.406   4.273  16.751  0.00  0.00    +0.000 HD
ENDROOT
BRANCH   5  12
ATOM     12  C   UNL     1       6.338   3.900  15.274  0.00  0.00    +0.000 C 
BRANCH  12  13
ATOM     13  C   UNL     1       6.775   4.437  13.891  0.00  0.00    +0.000 C 
BRANCH  13  14
ATOM     14  C   UNL     1       6.099   3.601  12.841  0.00  0.00    +0.000 A 
ATOM     15  C   UNL     1       6.786   2.577  12.165  0.00  0.00    +0.000 A 
ATOM     16  C   UNL     1       6.147   1.860  11.147  0.00  0.00    +0.000 A 
ATOM     17  C   UNL     1       4.820   2.150  10.813  0.00  0.00    +0.000 A 
ATOM     18  C   UNL     1       4.139   3.157  11.491  0.00  0.00    +0.000 A 
ATOM     19  C   UNL     1       4.770   3.882  12.491  0.00  0.00    +0.000 A 
ENDBRANCH  13  14
ENDBRANCH  12  13
ENDBRANCH   5  12
BRANCH   8  20
ATOM     20  C   UNL     1       4.028   6.573  18.782  0.00  0.00    +0.000 C 
BRANCH  20  21
ATOM     21  C   UNL     1       2.599   6.306  18.321  0.00  0.00    +0.000 C 
BRANCH  21  22
ATOM     22  C   UNL     1       2.113   4.951  18.747  0.00  0.00    +0.000 A 
ATOM     23  C   UNL     1       2.170   3.884  17.831  0.00  0.00    +0.000 A 
ATOM     24  C   UNL     1       1.707   2.624  18.191  0.00  0.00    +0.000 A 
ATOM     25  C   UNL     1       1.183   2.414  19.467  0.00  0.00    +0.000 A 
ATOM     26  C   UNL     1       1.131   3.465  20.389  0.00  0.00    +0.000 A 
ATOM     27  C   UNL     1       1.600   4.732  20.033  0.00  0.00    +0.000 A 
ENDBRANCH  21  22
ENDBRANCH  20  21
ENDBRANCH   8  20
TORSDOF 6
ENDMDL
MODEL 3
REMARK VINA RESULT:      -8.1      3.916      7.767
REMARK  Name = 
REMARK  6 active torsions:
REMARK  status: ('A' for Active; 'I' for Inactive)
REMARK    1  A    between atoms: C_5  and  C_6
REMARK    2  A    between atoms: C_6  and  C_7
REMARK    3  A    between atoms: C_7  and  C_8
REMARK    4  A    between atoms: C_16  and  C_17
REMARK    5  A    between atoms: C_17  and  C_18
REMARK    6  A    between atoms: C_18  and  C_19
REMARK                            x       y       z     vdW  Elec       q    Type
REMARK                         _______ _______ _______ _____ _____    ______ ____
ROOT
ATOM      1  N   UNL     1       7.440   5.264  20.287  0.00  0.00    +0.000 NA
ATOM      2  C   UNL     1       6.581   5.165  19.344  0.00  0.00    +0.000 C 
ATOM      3  N   UNL     1       5.784   3.982  19.345  0.00  0.00    +0.000 N 
ATOM      4  N   UNL     1       6.486   6.220  18.331  0.00  0.00    +0.000 N 
ATOM      5  C   UNL     1       5.350   6.541  17.456  0.00  0.00    +0.000 C 
ATOM      6  C   UNL     1       5.993   6.636  16.078  0.00  0.00    +0.000 C 
ATOM      7  C   UNL     1       7.210   7.460  16.411  0.00  0.00    +0.000 C 
ATOM      8  C   UNL     1       7.689   6.849  17.751  0.00  0.00    +0.000 C 
ATOM      9  H   UNL     1       7.534   4.560  21.033  0.00  0.00    +0.000 HD
ATOM     10  H   UNL     1       5.819   3.344  20.155  0.00  0.00    +0.000 HD
ATOM     11  H   UNL     1       5.263   3.644  18.540  0.00  0.00    +0.000 HD
ENDROOT
BRANCH   5  12
ATOM     12  C   UNL     1       4.109   5.651  17.428  0.00  0.00    +0.000 C 
BRANCH  12  13
ATOM     13  C   UNL     1       2.934   6.160  18.295  0.00  0.00    +0.000 C 
BRANCH  13  14
ATOM     14  C   UNL     1       2.229   4.959  18.859  0.00  0.00    +0.000 A 
ATOM     15  C   UNL     1       1.819   3.895  18.037  0.00  0.00    +0.000 A 
ATOM     16  C   UNL     1       1.108   2.822  18.583  0.00  0.00    +0.000 A 
ATOM     17  C   UNL     1       0.816   2.798  19.951  0.00  0.00    +0.000 A 
ATOM     18  C   UNL     1       1.232   3.848  20.766  0.00  0.00    +0.000 A 
ATOM     19  C   UNL     1       1.926   4.923  20.228  0.00  0.00    +0.000 A 
ENDBRANCH  13  14
ENDBRANCH  12  13
ENDBRANCH   5  12
BRANCH   8  20
ATOM     20  C   UNL     1       8.348   8.009  18.547  0.00  0.00    +0.000 C 
BRANCH  20  21
ATOM     21  C   UNL     1       8.239   9.410  17.954  0.00  0.00    +0.000 C 
BRANCH  21  22
ATOM     22  C   UNL     1       9.207  10.367  18.587  0.00  0.00    +0.000 A 
ATOM     23  C   UNL     1       9.230  10.489  19.989  0.00  0.00    +0.000 A 
ATOM     24  C   UNL     1      10.100  11.383  20.601  0.00  0.00    +0.000 A 
ATOM     25  C   UNL     1      10.957  12.165  19.824  0.00  0.00    +0.000 A 
ATOM     26  C   UNL     1      10.949  12.043  18.430  0.00  0.00    +0.000 A 
ATOM     27  C   UNL     1      10.079  11.143  17.811  0.00  0.00    +0.000 A 
ENDBRANCH  21  22
ENDBRANCH  20  21
ENDBRANCH   8  20
TORSDOF 6
ENDMDL
MODEL 4
REMARK VINA RESULT:      -7.9      0.785      1.023
REMARK  Name = 
REMARK  6 active torsions:
REMARK  status: ('A' for Active; 'I' for Inactive)
REMARK    1  A    between atoms: C_5  and  C_6
REMARK    2  A    between atoms: C_6  and  C_7
REMARK    3  A    between atoms: C_7  and  C_8
REMARK    4  A    between atoms: C_16  and  C_17
REMARK    5  A    between atoms: C_17  and  C_18
REMARK    6  A    between atoms: C_18  and  C_19
REMARK                            x       y       z     vdW  Elec       q    Type
REMARK                         _______ _______ _______ _____ _____    ______ ____
ROOT
ATOM      1  N   UNL     1       6.065   4.596  19.370  0.00  0.00    +0.000 NA
ATOM      2  C   UNL     1       6.442   4.698  18.152  0.00  0.00    +0.000 C 
ATOM      3  N   UNL     1       7.760   4.236  17.865  0.00  0.00    +0.000 N 
ATOM      4  N   UNL     1       5.542   5.290  17.158  0.00  0.00    +0.000 N 
ATOM      5  C   UNL     1       5.564   5.122  15.699  0.00  0.00    +0.000 C 
ATOM      6  C   UNL     1       5.478   6.554  15.186  0.00  0.00    +0.000 C 
ATOM      7  C   UNL     1       4.384   7.088  16.075  0.00  0.00    +0.000 C 
ATOM      8  C   UNL     1       4.735   6.489  17.459  0.00  0.00    +0.000 C 
ATOM      9  H   UNL     1       6.651   4.171  20.104  0.00  0.00    +0.000 HD
ATOM     10  H   UNL     1       8.289   3.720  18.585  0.00  0.00    +0.000 HD
ATOM     11  H   UNL     1       8.284   4.486  17.030  0.00  0.00    +0.000 HD
ENDROOT
BRANCH   5  12
ATOM     12  C   UNL     1       6.695   4.357  15.016  0.00  0.00    +0.000 C 
BRANCH  12  13
ATOM     13  C   UNL     1       7.016   4.830  13.579  0.00  0.00    +0.000 C 
BRANCH  13  14
ATOM     14  C   UNL     1       6.490   3.792  12.628  0.00  0.00    +0.000 A 
ATOM     15  C   UNL     1       5.111   3.622  12.418  0.00  0.00    +0.000 A 
ATOM     16  C   UNL     1       4.651   2.603  11.575  0.00  0.00    +0.000 A 
ATOM     17  C   UNL     1       5.565   1.764  10.929  0.00  0.00    +0.000 A 
ATOM     18  C   UNL     1       6.931   1.941  11.131  0.00  0.00    +0.000 A 
ATOM     19  C   UNL     1       7.393   2.940  11.976  0.00  0.00    +0.000 A 
ENDBRANCH  13  14
ENDBRANCH  12  13
ENDBRANCH   5  12
BRANCH   8  20
ATOM     20  C   UNL     1       3.385   6.279  18.199  0.00  0.00    +0.000 C 
BRANCH  20  21
ATOM     21  C   UNL     1       2.574   5.043  17.827  0.00  0.00    +0.000 C 
BRANCH  21  22
ATOM     22  C   UNL     1       2.154   4.260  19.037  0.00  0.00    +0.000 A 
ATOM     23  C   UNL     1       1.336   3.127  18.869  0.00  0.00    +0.000 A 
ATOM     24  C   UNL     1       0.914   2.397  19.973  0.00  0.00    +0.000 A 
ATOM     25  C   UNL     1       1.302   2.787  21.257  0.00  0.00    +0.000 A 
ATOM     26  C   UNL     1       2.123   3.906  21.433  0.00  0.00    +0.000 A 
ATOM     27  C   UNL     1       2.553   4.640  20.326  0.00  0.00    +0.000 A 
ENDBRANCH  21  22
ENDBRANCH  20  21
ENDBRANCH   8  20
TORSDOF 6
ENDMDL
MODEL 5
REMARK VINA RESULT:      -7.8      0.758      1.585
REMARK  Name = 
REMARK  6 active torsions:
REMARK  status: ('A' for Active; 'I' for Inactive)
REMARK    1  A    between atoms: C_5  and  C_6
REMARK    2  A    between atoms: C_6  and  C_7
REMARK    3  A    between atoms: C_7  and  C_8
REMARK    4  A    between atoms: C_16  and  C_17
REMARK    5  A    between atoms: C_17  and  C_18
REMARK    6  A    between atoms: C_18  and  C_19
REMARK                            x       y       z     vdW  Elec       q    Type
REMARK                         _______ _______ _______ _____ _____    ______ ____
ROOT
ATOM      1  N   UNL     1       5.686   4.653  19.708  0.00  0.00    +0.000 NA
ATOM      2  C   UNL     1       6.080   4.671  18.491  0.00  0.00    +0.000 C 
ATOM      3  N   UNL     1       7.346   4.067  18.235  0.00  0.00    +0.000 N 
ATOM      4  N   UNL     1       5.253   5.316  17.467  0.00  0.00    +0.000 N 
ATOM      5  C   UNL     1       5.266   5.093  16.015  0.00  0.00    +0.000 C 
ATOM      6  C   UNL     1       5.332   6.507  15.451  0.00  0.00    +0.000 C 
ATOM      7  C   UNL     1       4.292   7.182  16.309  0.00  0.00    +0.000 C 
ATOM      8  C   UNL     1       4.571   6.602  17.717  0.00  0.00    +0.000 C 
ATOM      9  H   UNL     1       6.221   4.198  20.462  0.00  0.00    +0.000 HD
ATOM     10  H   UNL     1       7.814   3.526  18.978  0.00  0.00    +0.000 HD
ATOM     11  H   UNL     1       7.898   4.231  17.397  0.00  0.00    +0.000 HD
ENDROOT
BRANCH   5  12
ATOM     12  C   UNL     1       6.318   4.191  15.372  0.00  0.00    +0.000 C 
BRANCH  12  13
ATOM     13  C   UNL     1       6.792   4.653  13.974  0.00  0.00    +0.000 C 
BRANCH  13  14
ATOM     14  C   UNL     1       6.144   3.759  12.954  0.00  0.00    +0.000 A 
ATOM     15  C   UNL     1       6.874   2.763  12.284  0.00  0.00    +0.000 A 
ATOM     16  C   UNL     1       6.258   1.990  11.292  0.00  0.00    +0.000 A 
ATOM     17  C   UNL     1       4.910   2.199  10.979  0.00  0.00    +0.000 A 
ATOM     18  C   UNL     1       4.187   3.180  11.651  0.00  0.00    +0.000 A 
ATOM     19  C   UNL     1       4.796   3.959  12.626  0.00  0.00    +0.000 A 
ENDBRANCH  13  14
ENDBRANCH  12  13
ENDBRANCH   5  12
BRANCH   8  20
ATOM     20  C   UNL     1       3.202   6.558  18.450  0.00  0.00    +0.000 C 
BRANCH  20  21
ATOM     21  C   UNL     1       2.211   5.487  18.008  0.00  0.00    +0.000 C 
BRANCH  21  22
ATOM     22  C   UNL     1       2.027   4.425  19.053  0.00  0.00    +0.000 A 
ATOM     23  C   UNL     1       2.200   4.761  20.408  0.00  0.00    +0.000 A 
ATOM     24  C   UNL     1       2.058   3.793  21.396  0.00  0.00    +0.000 A 
ATOM     25  C   UNL     1       1.740   2.480  21.043  0.00  0.00    +0.000 A 
ATOM     26  C   UNL     1       1.555   2.138  19.699  0.00  0.00    +0.000 A 
ATOM     27  C   UNL     1       1.693   3.109  18.704  0.00  0.00    +0.000 A 
ENDBRANCH  21  22
ENDBRANCH  20  21
ENDBRANCH   8  20
TORSDOF 6
ENDMDL
MODEL 6
REMARK VINA RESULT:      -7.7      5.299      7.937
REMARK  Name = 
REMARK  6 active torsions:
REMARK  status: ('A' for Active; 'I' for Inactive)
REMARK    1  A    between atoms: C_5  and  C_6
REMARK    2  A    between atoms: C_6  and  C_7
REMARK    3  A    between atoms: C_7  and  C_8
REMARK    4  A    between atoms: C_16  and  C_17
REMARK    5  A    between atoms: C_17  and  C_18
REMARK    6  A    between atoms: C_18  and  C_19
REMARK                            x       y       z     vdW  Elec       q    Type
REMARK                         _______ _______ _______ _____ _____    ______ ____
ROOT
ATOM      1  N   UNL     1       0.473  10.710  22.078  0.00  0.00    +0.000 NA
ATOM      2  C   UNL     1       1.141   9.737  21.584  0.00  0.00    +0.000 C 
ATOM      3  N   UNL     1       1.903   8.966  22.510  0.00  0.00    +0.000 N 
ATOM      4  N   UNL     1       1.112   9.494  20.138  0.00  0.00    +0.000 N 
ATOM      5  C   UNL     1       1.415   8.249  19.420  0.00  0.00    +0.000 C 
ATOM      6  C   UNL     1       2.378   8.705  18.331  0.00  0.00    +0.000 C 
ATOM      7  C   UNL     1       1.665   9.943  17.849  0.00  0.00    +0.000 C 
ATOM      8  C   UNL     1       1.182  10.602  19.164  0.00  0.00    +0.000 C 
ATOM      9  H   UNL     1       0.445  10.913  23.088  0.00  0.00    +0.000 HD
ATOM     10  H   UNL     1       1.778   9.117  23.523  0.00  0.00    +0.000 HD
ATOM     11  H   UNL     1       2.667   8.349  22.248  0.00  0.00    +0.000 HD
ENDROOT
BRANCH   5  12
ATOM     12  C   UNL     1       1.956   7.029  20.162  0.00  0.00    +0.000 C 
BRANCH  12  13
ATOM     13  C   UNL     1       2.962   6.179  19.353  0.00  0.00    +0.000 C 
BRANCH  13  14
ATOM     14  C   UNL     1       2.352   4.821  19.147  0.00  0.00    +0.000 A 
ATOM     15  C   UNL     1       2.644   4.051  18.009  0.00  0.00    +0.000 A 
ATOM     16  C   UNL     1       2.010   2.818  17.815  0.00  0.00    +0.000 A 
ATOM     17  C   UNL     1       1.096   2.345  18.762  0.00  0.00    +0.000 A 
ATOM     18  C   UNL     1       0.815   3.106  19.894  0.00  0.00    +0.000 A 
ATOM     19  C   UNL     1       1.430   4.334  20.086  0.00  0.00    +0.000 A 
ENDBRANCH  13  14
ENDBRANCH  12  13
ENDBRANCH   5  12
BRANCH   8  20
ATOM     20  C   UNL     1      -0.141  11.341  18.821  0.00  0.00    +0.000 C 
BRANCH  20  21
ATOM     21  C   UNL     1      -1.439  10.563  19.005  0.00  0.00    +0.000 C 
BRANCH  21  22
ATOM     22  C   UNL     1      -2.301  10.606  17.776  0.00  0.00    +0.000 A 
ATOM     23  C   UNL     1      -3.454  11.413  17.776  0.00  0.00    +0.000 A 
ATOM     24  C   UNL     1      -4.281  11.456  16.661  0.00  0.00    +0.000 A 
ATOM     25  C   UNL     1      -3.969  10.695  15.533  0.00  0.00    +0.000 A 
ATOM     26  C   UNL     1      -2.820   9.897  15.519  0.00  0.00    +0.000 A 
ATOM     27  C   UNL     1      -1.983   9.855  16.636  0.00  0.00    +0.000 A 
ENDBRANCH  21  22
ENDBRANCH  20  21
ENDBRANCH   8  20
TORSDOF 6
ENDMDL
MODEL 7
REMARK VINA RESULT:      -7.7      5.380      8.012
REMARK  Name = 
REMARK  6 active torsions:
REMARK  status: ('A' for Active; 'I' for Inactive)
REMARK    1  A    between atoms: C_5  and  C_6
REMARK    2  A    between atoms: C_6  and  C_7
REMARK    3  A    between atoms: C_7  and  C_8
REMARK    4  A    between atoms: C_16  and  C_17
REMARK    5  A    between atoms: C_17  and  C_18
REMARK    6  A    between atoms: C_18  and  C_19
REMARK                            x       y       z     vdW  Elec       q    Type
REMARK                         _______ _______ _______ _____ _____    ______ ____
ROOT
ATOM      1  N   UNL     1       0.377  10.895  22.111  0.00  0.00    +0.000 NA
ATOM      2  C   UNL     1       1.036   9.908  21.634  0.00  0.00    +0.000 C 
ATOM      3  N   UNL     1       1.801   9.154  22.572  0.00  0.00    +0.000 N 
ATOM      4  N   UNL     1       0.997   9.634  20.194  0.00  0.00    +0.000 N 
ATOM      5  C   UNL     1       1.289   8.373  19.501  0.00  0.00    +0.000 C 
ATOM      6  C   UNL     1       2.248   8.800  18.396  0.00  0.00    +0.000 C 
ATOM      7  C   UNL     1       1.537  10.030  17.893  0.00  0.00    +0.000 C 
ATOM      8  C   UNL     1       1.065  10.720  19.196  0.00  0.00    +0.000 C 
ATOM      9  H   UNL     1       0.356  11.119  23.117  0.00  0.00    +0.000 HD
ATOM     10  H   UNL     1       1.684   9.327  23.582  0.00  0.00    +0.000 HD
ATOM     11  H   UNL     1       2.561   8.528  22.318  0.00  0.00    +0.000 HD
ENDROOT
BRANCH   5  12
ATOM     12  C   UNL     1       1.830   7.167  20.266  0.00  0.00    +0.000 C 
BRANCH  12  13
ATOM     13  C   UNL     1       2.850   6.310  19.480  0.00  0.00    +0.000 C 
BRANCH  13  14
ATOM     14  C   UNL     1       2.251   4.945  19.291  0.00  0.00    +0.000 A 
ATOM     15  C   UNL     1       2.349   4.265  18.064  0.00  0.00    +0.000 A 
ATOM     16  C   UNL     1       1.725   3.023  17.901  0.00  0.00    +0.000 A 
ATOM     17  C   UNL     1       1.017   2.450  18.962  0.00  0.00    +0.000 A 
ATOM     18  C   UNL     1       0.929   3.121  20.179  0.00  0.00    +0.000 A 
ATOM     19  C   UNL     1       1.534   4.359  20.344  0.00  0.00    +0.000 A 
ENDBRANCH  13  14
ENDBRANCH  12  13
ENDBRANCH   5  12
BRANCH   8  20
ATOM     20  C   UNL     1      -0.256  11.457  18.845  0.00  0.00    +0.000 C 
BRANCH  20  21
ATOM     21  C   UNL     1      -1.557  10.690  19.055  0.00  0.00    +0.000 C 
BRANCH  21  22
ATOM     22  C   UNL     1      -2.400  10.660  17.813  0.00  0.00    +0.000 A 
ATOM     23  C   UNL     1      -2.007   9.842  16.738  0.00  0.00    +0.000 A 
ATOM     24  C   UNL     1      -2.756   9.812  15.567  0.00  0.00    +0.000 A 
ATOM     25  C   UNL     1      -3.906  10.596  15.456  0.00  0.00    +0.000 A 
ATOM     26  C   UNL     1      -4.311  11.405  16.524  0.00  0.00    +0.000 A 
ATOM     27  C   UNL     1      -3.564  11.435  17.703  0.00  0.00    +0.000 A 
ENDBRANCH  21  22
ENDBRANCH  20  21
ENDBRANCH   8  20
TORSDOF 6
ENDMDL
MODEL 8
REMARK VINA RESULT:      -7.6      3.174      6.926
REMARK  Name = 
REMARK  6 active torsions:
REMARK  status: ('A' for Active; 'I' for Inactive)
REMARK    1  A    between atoms: C_5  and  C_6
REMARK    2  A    between atoms: C_6  and  C_7
REMARK    3  A    between atoms: C_7  and  C_8
REMARK    4  A    between atoms: C_16  and  C_17
REMARK    5  A    between atoms: C_17  and  C_18
REMARK    6  A    between atoms: C_18  and  C_19
REMARK                            x       y       z     vdW  Elec       q    Type
REMARK                         _______ _______ _______ _____ _____    ______ ____
ROOT
ATOM      1  N   UNL     1       4.616   2.104  20.625  0.00  0.00    +0.000 NA
ATOM      2  C   UNL     1       3.507   2.739  20.565  0.00  0.00    +0.000 C 
ATOM      3  N   UNL     1       2.720   2.737  21.754  0.00  0.00    +0.000 N 
ATOM      4  N   UNL     1       3.104   3.385  19.312  0.00  0.00    +0.000 N 
ATOM      5  C   UNL     1       2.149   4.485  19.123  0.00  0.00    +0.000 C 
ATOM      6  C   UNL     1       1.252   3.975  18.003  0.00  0.00    +0.000 C 
ATOM      7  C   UNL     1       2.294   3.434  17.057  0.00  0.00    +0.000 C 
ATOM      8  C   UNL     1       3.293   2.726  18.004  0.00  0.00    +0.000 C 
ATOM      9  H   UNL     1       4.954   1.649  21.485  0.00  0.00    +0.000 HD
ATOM     10  H   UNL     1       3.121   2.369  22.631  0.00  0.00    +0.000 HD
ATOM     11  H   UNL     1       1.729   2.962  21.784  0.00  0.00    +0.000 HD
ENDROOT
BRANCH   5  12
ATOM     12  C   UNL     1       1.324   5.015  20.295  0.00  0.00    +0.000 C 
BRANCH  12  13
ATOM     13  C   UNL     1       1.908   6.276  20.973  0.00  0.00    +0.000 C 
BRANCH  13  14
ATOM     14  C   UNL     1       1.940   7.374  19.948  0.00  0.00    +0.000 A 
ATOM     15  C   UNL     1       1.215   8.565  20.126  0.00  0.00    +0.000 A 
ATOM     16  C   UNL     1       1.214   9.541  19.123  0.00  0.00    +0.000 A 
ATOM     17  C   UNL     1       1.945   9.338  17.948  0.00  0.00    +0.000 A 
ATOM     18  C   UNL     1       2.670   8.161  17.777  0.00  0.00    +0.000 A 
ATOM     19  C   UNL     1       2.665   7.184  18.762  0.00  0.00    +0.000 A 
ENDBRANCH  13  14
ENDBRANCH  12  13
ENDBRANCH   5  12
BRANCH   8  20
ATOM     20  C   UNL     1       4.689   2.848  17.334  0.00  0.00    +0.000 C 
BRANCH  20  21
ATOM     21  C   UNL     1       4.922   4.050  16.425  0.00  0.00    +0.000 C 
BRANCH  21  22
ATOM     22  C   UNL     1       5.876   5.037  17.031  0.00  0.00    +0.000 A 
ATOM     23  C   UNL     1       6.783   4.599  18.014  0.00  0.00    +0.000 A 
ATOM     24  C   UNL     1       7.663   5.496  18.608  0.00  0.00    +0.000 A 
ATOM     25  C   UNL     1       7.650   6.839  18.228  0.00  0.00    +0.000 A 
ATOM     26  C   UNL     1       6.759   7.283  17.244  0.00  0.00    +0.000 A 
ATOM     27  C   UNL     1       5.876   6.385  16.642  0.00  0.00    +0.000 A 
ENDBRANCH  21  22
ENDBRANCH  20  21
ENDBRANCH   8  20
TORSDOF 6
ENDMDL
MODEL 9
REMARK VINA RESULT:      -7.6      3.139      7.242
REMARK  Name = 
REMARK  6 active torsions:
REMARK  status: ('A' for Active; 'I' for Inactive)
REMARK    1  A    between atoms: C_5  and  C_6
REMARK    2  A    between atoms: C_6  and  C_7
REMARK    3  A    between atoms: C_7  and  C_8
REMARK    4  A    between atoms: C_16  and  C_17
REMARK    5  A    between atoms: C_17  and  C_18
REMARK    6  A    between atoms: C_18  and  C_19
REMARK                            x       y       z     vdW  Elec       q    Type
REMARK                         _______ _______ _______ _____ _____    ______ ____
ROOT
ATOM      1  N   UNL     1       4.927   2.082  20.113  0.00  0.00    +0.000 NA
ATOM      2  C   UNL     1       3.823   2.729  20.145  0.00  0.00    +0.000 C 
ATOM      3  N   UNL     1       3.062   2.609  21.345  0.00  0.00    +0.000 N 
ATOM      4  N   UNL     1       3.401   3.506  18.976  0.00  0.00    +0.000 N 
ATOM      5  C   UNL     1       2.455   4.629  18.925  0.00  0.00    +0.000 C 
ATOM      6  C   UNL     1       1.529   4.246  17.777  0.00  0.00    +0.000 C 
ATOM      7  C   UNL     1       2.545   3.800  16.757  0.00  0.00    +0.000 C 
ATOM      8  C   UNL     1       3.556   2.988  17.602  0.00  0.00    +0.000 C 
ATOM      9  H   UNL     1       5.277   1.535  20.913  0.00  0.00    +0.000 HD
ATOM     10  H   UNL     1       3.477   2.147  22.169  0.00  0.00    +0.000 HD
ATOM     11  H   UNL     1       2.074   2.837  21.419  0.00  0.00    +0.000 HD
ENDROOT
BRANCH   5  12
ATOM     12  C   UNL     1       1.661   5.039  20.163  0.00  0.00    +0.000 C 
BRANCH  12  13
ATOM     13  C   UNL     1       2.275   6.214  20.960  0.00  0.00    +0.000 C 
BRANCH  13  14
ATOM     14  C   UNL     1       1.768   7.492  20.353  0.00  0.00    +0.000 A 
ATOM     15  C   UNL     1       0.851   8.313  21.032  0.00  0.00    +0.000 A 
ATOM     16  C   UNL     1       0.349   9.463  20.413  0.00  0.00    +0.000 A 
ATOM     17  C   UNL     1       0.772   9.805  19.124  0.00  0.00    +0.000 A 
ATOM     18  C   UNL     1       1.688   8.996  18.458  0.00  0.00    +0.000 A 
ATOM     19  C   UNL     1       2.179   7.847  19.060  0.00  0.00    +0.000 A 
ENDBRANCH  13  14
ENDBRANCH  12  13
ENDBRANCH   5  12
BRANCH   8  20
ATOM     20  C   UNL     1       4.939   3.167  16.918  0.00  0.00    +0.000 C 
BRANCH  20  21
ATOM     21  C   UNL     1       5.218   4.512  16.257  0.00  0.00    +0.000 C 
BRANCH  21  22
ATOM     22  C   UNL     1       6.172   5.348  17.060  0.00  0.00    +0.000 A 
ATOM     23  C   UNL     1       6.352   6.701  16.719  0.00  0.00    +0.000 A 
ATOM     24  C   UNL     1       7.245   7.492  17.431  0.00  0.00    +0.000 A 
ATOM     25  C   UNL     1       7.967   6.944  18.493  0.00  0.00    +0.000 A 
ATOM     26  C   UNL     1       7.788   5.602  18.847  0.00  0.00    +0.000 A 
ATOM     27  C   UNL     1       6.889   4.805  18.136  0.00  0.00    +0.000 A 
ENDBRANCH  21  22
ENDBRANCH  20  21
ENDBRANCH   8  20
TORSDOF 6
ENDMDL
