MODEL 1
REMARK VINA RESULT:      -7.8      0.000      0.000
REMARK  Name = 
REMARK  6 active torsions:
REMARK  status: ('A' for Active; 'I' for Inactive)
REMARK    1  A    between atoms: C_1  and  C_2
REMARK    2  A    between atoms: C_4  and  C_5
REMARK    3  A    between atoms: C_10  and  C_11
REMARK    4  A    between atoms: C_11  and  O_13
REMARK    5  A    between atoms: C_15  and  C_16
REMARK    6  A    between atoms: N_20  and  C_21
REMARK                            x       y       z     vdW  Elec       q    Type
REMARK                         _______ _______ _______ _____ _____    ______ ____
ROOT
ATOM      1  C   UNL     1       2.063   8.037  19.516  0.00  0.00    +0.000 C 
ATOM      2  C   UNL     1       2.480   6.837  18.717  0.00  0.00    +0.000 A 
ATOM      3  C   UNL     1       3.497   6.934  17.779  0.00  0.00    +0.000 A 
ATOM      4  C   UNL     1       3.916   5.745  17.226  0.00  0.00    +0.000 A 
ATOM      5  N   UNL     1       3.325   4.573  17.515  0.00  0.00    +0.000 NA
ATOM      6  C   UNL     1       2.320   4.556  18.402  0.00  0.00    +0.000 A 
ATOM      7  N   UNL     1       1.897   5.658  19.039  0.00  0.00    +0.000 NA
ENDROOT
BRANCH   6   8
ATOM      8  C   UNL     1       1.943   3.163  18.865  0.00  0.00    +0.000 C 
ATOM      9  C   UNL     1       0.891   3.167  19.988  0.00  0.00    +0.000 C 
ATOM     10  C   UNL     1       1.524   3.398  21.354  0.00  0.00    +0.000 C 
ATOM     11  C   UNL     1       2.665   2.414  21.614  0.00  0.00    +0.000 C 
ATOM     12  N   UNL     1       3.677   2.433  20.553  0.00  0.00    +0.000 NA
ATOM     13  C   UNL     1       4.702   1.419  20.810  0.00  0.00    +0.000 C 
ATOM     14  C   UNL     1       3.098   2.221  19.217  0.00  0.00    +0.000 C 
ENDBRANCH   6   8
BRANCH   4  15
ATOM     15  C   UNL     1       5.184   5.520  16.524  0.00  0.00    +0.000 A 
ATOM     16  C   UNL     1       5.175   5.498  15.111  0.00  0.00    +0.000 A 
ATOM     17  C   UNL     1       6.292   5.081  14.383  0.00  0.00    +0.000 A 
ATOM     18  C   UNL     1       7.447   4.692  15.047  0.00  0.00    +0.000 A 
ATOM     19  C   UNL     1       7.491   4.728  16.440  0.00  0.00    +0.000 A 
ATOM     20  C   UNL     1       6.364   5.116  17.181  0.00  0.00    +0.000 A 
BRANCH  20  21
ATOM     21  C   UNL     1       6.502   5.030  18.661  0.00  0.00    +0.000 C 
ATOM     22  O   UNL     1       7.146   5.854  19.289  0.00  0.00    +0.000 OA
BRANCH  21  23
ATOM     23  O   UNL     1       5.956   3.939  19.227  0.00  0.00    +0.000 OA
ATOM     24  H   UNL     1       6.531   3.150  19.289  0.00  0.00    +0.000 HD
ENDBRANCH  21  23
ENDBRANCH  20  21
ENDBRANCH   4  15
TORSDOF 4
ENDMDL
MODEL 2
REMARK VINA RESULT:      -6.9      2.478      5.785
REMARK  Name = 
REMARK  6 active torsions:
REMARK  status: ('A' for Active; 'I' for Inactive)
REMARK    1  A    between atoms: C_1  and  C_2
REMARK    2  A    between atoms: C_4  and  C_5
REMARK    3  A    between atoms: C_10  and  C_11
REMARK    4  A    between atoms: C_11  and  O_13
REMARK    5  A    between atoms: C_15  and  C_16
REMARK    6  A    between atoms: N_20  and  C_21
REMARK                            x       y       z     vdW  Elec       q    Type
REMARK                         _______ _______ _______ _____ _____    ______ ____
ROOT
ATOM      1  C   UNL     1       1.544   9.178  17.721  0.00  0.00    +0.000 C 
ATOM      2  C   UNL     1       2.362   8.019  18.210  0.00  0.00    +0.000 A 
ATOM      3  C   UNL     1       1.821   7.099  19.095  0.00  0.00    +0.000 A 
ATOM      4  C   UNL     1       2.592   5.986  19.347  0.00  0.00    +0.000 A 
ATOM      5  N   UNL     1       3.824   5.836  18.830  0.00  0.00    +0.000 NA
ATOM      6  C   UNL     1       4.302   6.784  18.011  0.00  0.00    +0.000 A 
ATOM      7  N   UNL     1       3.589   7.864  17.659  0.00  0.00    +0.000 NA
ENDROOT
BRANCH   6   8
ATOM      8  C   UNL     1       5.554   6.366  17.265  0.00  0.00    +0.000 C 
ATOM      9  C   UNL     1       6.251   5.149  17.896  0.00  0.00    +0.000 C 
ATOM     10  C   UNL     1       7.139   5.551  19.067  0.00  0.00    +0.000 C 
ATOM     11  C   UNL     1       8.119   6.655  18.670  0.00  0.00    +0.000 C 
ATOM     12  N   UNL     1       7.446   7.823  18.092  0.00  0.00    +0.000 NA
ATOM     13  C   UNL     1       8.432   8.814  17.657  0.00  0.00    +0.000 C 
ATOM     14  C   UNL     1       6.572   7.469  16.963  0.00  0.00    +0.000 C 
ENDBRANCH   6   8
BRANCH   4  15
ATOM     15  C   UNL     1       2.119   4.721  19.919  0.00  0.00    +0.000 A 
ATOM     16  C   UNL     1       2.249   4.525  21.313  0.00  0.00    +0.000 A 
ATOM     17  C   UNL     1       2.021   3.275  21.895  0.00  0.00    +0.000 A 
ATOM     18  C   UNL     1       1.644   2.199  21.103  0.00  0.00    +0.000 A 
ATOM     19  C   UNL     1       1.486   2.371  19.729  0.00  0.00    +0.000 A 
ATOM     20  C   UNL     1       1.743   3.615  19.130  0.00  0.00    +0.000 A 
BRANCH  20  21
ATOM     21  C   UNL     1       1.626   3.655  17.647  0.00  0.00    +0.000 C 
ATOM     22  O   UNL     1       0.753   4.303  17.094  0.00  0.00    +0.000 OA
BRANCH  21  23
ATOM     23  O   UNL     1       2.479   2.856  16.981  0.00  0.00    +0.000 OA
ATOM     24  H   UNL     1       3.277   2.572  17.471  0.00  0.00    +0.000 HD
ENDBRANCH  21  23
ENDBRANCH  20  21
ENDBRANCH   4  15
TORSDOF 4
ENDMDL
MODEL 3
REMARK VINA RESULT:      -6.9      2.258      5.349
REMARK  Name = 
REMARK  6 active torsions:
REMARK  status: ('A' for Active; 'I' for Inactive)
REMARK    1  A    between atoms: C_1  and  C_2
REMARK    2  A    between atoms: C_4  and  C_5
REMARK    3  A    between atoms: C_10  and  C_11
REMARK    4  A    between atoms: C_11  and  O_13
REMARK    5  A    between atoms: C_15  and  C_16
REMARK    6  A    between atoms: N_20  and  C_21
REMARK                            x       y       z     vdW  Elec       q    Type
REMARK                         _______ _______ _______ _____ _____    ______ ____
ROOT
ATOM      1  C   UNL     1       1.146   9.350  17.765  0.00  0.00    +0.000 C 
ATOM      2  C   UNL     1       2.048   8.222  18.171  0.00  0.00    +0.000 A 
ATOM      3  C   UNL     1       1.608   7.255  19.063  0.00  0.00    +0.000 A 
ATOM      4  C   UNL     1       2.446   6.176  19.236  0.00  0.00    +0.000 A 
ATOM      5  N   UNL     1       3.648   6.100  18.641  0.00  0.00    +0.000 NA
ATOM      6  C   UNL     1       4.028   7.089  17.819  0.00  0.00    +0.000 A 
ATOM      7  N   UNL     1       3.244   8.141  17.541  0.00  0.00    +0.000 NA
ENDROOT
BRANCH   6   8
ATOM      8  C   UNL     1       5.249   6.752  16.986  0.00  0.00    +0.000 C 
ATOM      9  C   UNL     1       5.106   5.426  16.220  0.00  0.00    +0.000 C 
ATOM     10  C   UNL     1       5.433   4.227  17.100  0.00  0.00    +0.000 C 
ATOM     11  C   UNL     1       6.800   4.381  17.767  0.00  0.00    +0.000 C 
ATOM     12  N   UNL     1       6.921   5.635  18.517  0.00  0.00    +0.000 NA
ATOM     13  C   UNL     1       8.272   5.770  19.068  0.00  0.00    +0.000 C 
ATOM     14  C   UNL     1       6.603   6.815  17.698  0.00  0.00    +0.000 C 
ENDBRANCH   6   8
BRANCH   4  15
ATOM     15  C   UNL     1       2.071   4.876  19.802  0.00  0.00    +0.000 A 
ATOM     16  C   UNL     1       2.212   4.684  21.196  0.00  0.00    +0.000 A 
ATOM     17  C   UNL     1       2.080   3.419  21.772  0.00  0.00    +0.000 A 
ATOM     18  C   UNL     1       1.791   2.320  20.976  0.00  0.00    +0.000 A 
ATOM     19  C   UNL     1       1.624   2.485  19.601  0.00  0.00    +0.000 A 
ATOM     20  C   UNL     1       1.784   3.747  19.008  0.00  0.00    +0.000 A 
BRANCH  20  21
ATOM     21  C   UNL     1       1.669   3.784  17.524  0.00  0.00    +0.000 C 
ATOM     22  O   UNL     1       2.443   3.170  16.810  0.00  0.00    +0.000 OA
BRANCH  21  23
ATOM     23  O   UNL     1       0.724   4.611  17.041  0.00  0.00    +0.000 OA
ATOM     24  H   UNL     1      -0.048   4.184  16.616  0.00  0.00    +0.000 HD
ENDBRANCH  21  23
ENDBRANCH  20  21
ENDBRANCH   4  15
TORSDOF 4
ENDMDL
MODEL 4
REMARK VINA RESULT:      -6.6      2.875      6.498
REMARK  Name = 
REMARK  6 active torsions:
REMARK  status: ('A' for Active; 'I' for Inactive)
REMARK    1  A    between atoms: C_1  and  C_2
REMARK    2  A    between atoms: C_4  and  C_5
REMARK    3  A    between atoms: C_10  and  C_11
REMARK    4  A    between atoms: C_11  and  O_13
REMARK    5  A    between atoms: C_15  and  C_16
REMARK    6  A    between atoms: N_20  and  C_21
REMARK                            x       y       z     vdW  Elec       q    Type
REMARK                         _______ _______ _______ _____ _____    ______ ____
ROOT
ATOM      1  C   UNL     1       2.280   3.345  19.465  0.00  0.00    +0.000 C 
ATOM      2  C   UNL     1       2.465   4.786  19.088  0.00  0.00    +0.000 A 
ATOM      3  C   UNL     1       1.673   5.770  19.658  0.00  0.00    +0.000 A 
ATOM      4  C   UNL     1       2.036   7.068  19.374  0.00  0.00    +0.000 A 
ATOM      5  N   UNL     1       3.043   7.364  18.537  0.00  0.00    +0.000 NA
ATOM      6  C   UNL     1       3.745   6.361  17.989  0.00  0.00    +0.000 A 
ATOM      7  N   UNL     1       3.503   5.071  18.266  0.00  0.00    +0.000 NA
ENDROOT
BRANCH   6   8
ATOM      8  C   UNL     1       5.025   6.814  17.314  0.00  0.00    +0.000 C 
ATOM      9  C   UNL     1       4.991   6.642  15.786  0.00  0.00    +0.000 C 
ATOM     10  C   UNL     1       5.332   5.217  15.370  0.00  0.00    +0.000 C 
ATOM     11  C   UNL     1       6.651   4.755  15.989  0.00  0.00    +0.000 C 
ATOM     12  N   UNL     1       6.668   4.898  17.448  0.00  0.00    +0.000 NA
ATOM     13  C   UNL     1       7.978   4.519  17.981  0.00  0.00    +0.000 C 
ATOM     14  C   UNL     1       6.334   6.262  17.886  0.00  0.00    +0.000 C 
ENDBRANCH   6   8
BRANCH   4  15
ATOM     15  C   UNL     1       1.626   8.261  20.124  0.00  0.00    +0.000 A 
ATOM     16  C   UNL     1       1.616   8.195  21.536  0.00  0.00    +0.000 A 
ATOM     17  C   UNL     1       1.039   9.208  22.307  0.00  0.00    +0.000 A 
ATOM     18  C   UNL     1       0.473  10.314  21.688  0.00  0.00    +0.000 A 
ATOM     19  C   UNL     1       0.490  10.414  20.298  0.00  0.00    +0.000 A 
ATOM     20  C   UNL     1       1.040   9.388  19.513  0.00  0.00    +0.000 A 
BRANCH  20  21
ATOM     21  C   UNL     1       0.922   9.566  18.040  0.00  0.00    +0.000 C 
ATOM     22  O   UNL     1      -0.121   9.334  17.452  0.00  0.00    +0.000 OA
BRANCH  21  23
ATOM     23  O   UNL     1       2.061   9.900  17.408  0.00  0.00    +0.000 OA
ATOM     24  H   UNL     1       2.113  10.814  17.064  0.00  0.00    +0.000 HD
ENDBRANCH  21  23
ENDBRANCH  20  21
ENDBRANCH   4  15
TORSDOF 4
ENDMDL
MODEL 5
REMARK VINA RESULT:      -6.5      5.529      8.339
REMARK  Name = 
REMARK  6 active torsions:
REMARK  status: ('A' for Active; 'I' for Inactive)
REMARK    1  A    between atoms: C_1  and  C_2
REMARK    2  A    between atoms: C_4  and  C_5
REMARK    3  A    between atoms: C_10  and  C_11
REMARK    4  A    between atoms: C_11  and  O_13
REMARK    5  A    between atoms: C_15  and  C_16
REMARK    6  A    between atoms: N_20  and  C_21
REMARK                            x       y       z     vdW  Elec       q    Type
REMARK                         _______ _______ _______ _____ _____    ______ ____
ROOT
ATOM      1  C   UNL     1       0.116  13.683  19.228  0.00  0.00    +0.000 C 
ATOM      2  C   UNL     1       0.003  12.273  18.726  0.00  0.00    +0.000 A 
ATOM      3  C   UNL     1       1.080  11.404  18.821  0.00  0.00    +0.000 A 
ATOM      4  C   UNL     1       0.820  10.092  18.490  0.00  0.00    +0.000 A 
ATOM      5  N   UNL     1      -0.377   9.693  18.031  0.00  0.00    +0.000 NA
ATOM      6  C   UNL     1      -1.365  10.594  17.928  0.00  0.00    +0.000 A 
ATOM      7  N   UNL     1      -1.217  11.876  18.294  0.00  0.00    +0.000 NA
ENDROOT
BRANCH   6   8
ATOM      8  C   UNL     1      -2.728   9.976  17.691  0.00  0.00    +0.000 C 
ATOM      9  C   UNL     1      -3.025   9.728  16.202  0.00  0.00    +0.000 C 
ATOM     10  C   UNL     1      -3.528  10.988  15.509  0.00  0.00    +0.000 C 
ATOM     11  C   UNL     1      -4.714  11.600  16.256  0.00  0.00    +0.000 C 
ATOM     12  N   UNL     1      -4.416  11.857  17.669  0.00  0.00    +0.000 NA
ATOM     13  C   UNL     1      -5.606  12.366  18.354  0.00  0.00    +0.000 C 
ATOM     14  C   UNL     1      -3.919  10.661  18.367  0.00  0.00    +0.000 C 
ENDBRANCH   6   8
BRANCH   4  15
ATOM     15  C   UNL     1       1.642   8.933  18.855  0.00  0.00    +0.000 A 
ATOM     16  C   UNL     1       2.334   8.251  17.827  0.00  0.00    +0.000 A 
ATOM     17  C   UNL     1       2.957   7.023  18.063  0.00  0.00    +0.000 A 
ATOM     18  C   UNL     1       2.919   6.457  19.329  0.00  0.00    +0.000 A 
ATOM     19  C   UNL     1       2.265   7.120  20.366  0.00  0.00    +0.000 A 
ATOM     20  C   UNL     1       1.608   8.339  20.133  0.00  0.00    +0.000 A 
BRANCH  20  21
ATOM     21  C   UNL     1       0.870   8.909  21.293  0.00  0.00    +0.000 C 
ATOM     22  O   UNL     1       1.450   9.500  22.189  0.00  0.00    +0.000 OA
BRANCH  21  23
ATOM     23  O   UNL     1      -0.447   8.638  21.326  0.00  0.00    +0.000 OA
ATOM     24  H   UNL     1      -0.791   8.264  22.162  0.00  0.00    +0.000 HD
ENDBRANCH  21  23
ENDBRANCH  20  21
ENDBRANCH   4  15
TORSDOF 4
ENDMDL
MODEL 6
REMARK VINA RESULT:      -6.5      2.147      3.715
REMARK  Name = 
REMARK  6 active torsions:
REMARK  status: ('A' for Active; 'I' for Inactive)
REMARK    1  A    between atoms: C_1  and  C_2
REMARK    2  A    between atoms: C_4  and  C_5
REMARK    3  A    between atoms: C_10  and  C_11
REMARK    4  A    between atoms: C_11  and  O_13
REMARK    5  A    between atoms: C_15  and  C_16
REMARK    6  A    between atoms: N_20  and  C_21
REMARK                            x       y       z     vdW  Elec       q    Type
REMARK                         _______ _______ _______ _____ _____    ______ ____
ROOT
ATOM      1  C   UNL     1       5.888   3.546  14.033  0.00  0.00    +0.000 C 
ATOM      2  C   UNL     1       5.647   4.189  15.367  0.00  0.00    +0.000 A 
ATOM      3  C   UNL     1       6.625   4.977  15.957  0.00  0.00    +0.000 A 
ATOM      4  C   UNL     1       6.242   5.655  17.092  0.00  0.00    +0.000 A 
ATOM      5  N   UNL     1       5.025   5.504  17.641  0.00  0.00    +0.000 NA
ATOM      6  C   UNL     1       4.139   4.697  17.039  0.00  0.00    +0.000 A 
ATOM      7  N   UNL     1       4.407   4.053  15.894  0.00  0.00    +0.000 NA
ENDROOT
BRANCH   6   8
ATOM      8  C   UNL     1       2.727   4.840  17.572  0.00  0.00    +0.000 C 
ATOM      9  C   UNL     1       2.496   6.171  18.309  0.00  0.00    +0.000 C 
ATOM     10  C   UNL     1       2.984   6.110  19.751  0.00  0.00    +0.000 C 
ATOM     11  C   UNL     1       2.389   4.912  20.491  0.00  0.00    +0.000 C 
ATOM     12  N   UNL     1       2.635   3.643  19.796  0.00  0.00    +0.000 NA
ATOM     13  C   UNL     1       1.978   2.541  20.502  0.00  0.00    +0.000 C 
ATOM     14  C   UNL     1       2.183   3.670  18.397  0.00  0.00    +0.000 C 
ENDBRANCH   6   8
BRANCH   4  15
ATOM     15  C   UNL     1       6.928   6.813  17.676  0.00  0.00    +0.000 A 
ATOM     16  C   UNL     1       6.779   8.070  17.046  0.00  0.00    +0.000 A 
ATOM     17  C   UNL     1       7.565   9.164  17.415  0.00  0.00    +0.000 A 
ATOM     18  C   UNL     1       8.505   9.035  18.427  0.00  0.00    +0.000 A 
ATOM     19  C   UNL     1       8.656   7.813  19.081  0.00  0.00    +0.000 A 
ATOM     20  C   UNL     1       7.893   6.698  18.698  0.00  0.00    +0.000 A 
BRANCH  20  21
ATOM     21  C   UNL     1       8.203   5.427  19.407  0.00  0.00    +0.000 C 
ATOM     22  O   UNL     1       8.483   4.409  18.797  0.00  0.00    +0.000 OA
BRANCH  21  23
ATOM     23  O   UNL     1       8.055   5.463  20.744  0.00  0.00    +0.000 OA
ATOM     24  H   UNL     1       8.851   5.702  21.260  0.00  0.00    +0.000 HD
ENDBRANCH  21  23
ENDBRANCH  20  21
ENDBRANCH   4  15
TORSDOF 4
ENDMDL
MODEL 7
REMARK VINA RESULT:      -6.4      2.269      5.732
REMARK  Name = 
REMARK  6 active torsions:
REMARK  status: ('A' for Active; 'I' for Inactive)
REMARK    1  A    between atoms: C_1  and  C_2
REMARK    2  A    between atoms: C_4  and  C_5
REMARK    3  A    between atoms: C_10  and  C_11
REMARK    4  A    between atoms: C_11  and  O_13
REMARK    5  A    between atoms: C_15  and  C_16
REMARK    6  A    between atoms: N_20  and  C_21
REMARK                            x       y       z     vdW  Elec       q    Type
REMARK                         _______ _______ _______ _____ _____    ______ ____
ROOT
ATOM      1  C   UNL     1       3.494   1.497  18.166  0.00  0.00    +0.000 C 
ATOM      2  C   UNL     1       3.717   2.926  17.769  0.00  0.00    +0.000 A 
ATOM      3  C   UNL     1       2.766   3.894  18.055  0.00  0.00    +0.000 A 
ATOM      4  C   UNL     1       3.141   5.195  17.804  0.00  0.00    +0.000 A 
ATOM      5  N   UNL     1       4.322   5.504  17.243  0.00  0.00    +0.000 NA
ATOM      6  C   UNL     1       5.181   4.515  16.956  0.00  0.00    +0.000 A 
ATOM      7  N   UNL     1       4.923   3.228  17.232  0.00  0.00    +0.000 NA
ENDROOT
BRANCH   6   8
ATOM      8  C   UNL     1       6.575   5.002  16.613  0.00  0.00    +0.000 C 
ATOM      9  C   UNL     1       7.665   4.377  17.501  0.00  0.00    +0.000 C 
ATOM     10  C   UNL     1       7.791   5.101  18.835  0.00  0.00    +0.000 C 
ATOM     11  C   UNL     1       7.978   6.605  18.638  0.00  0.00    +0.000 C 
ATOM     12  N   UNL     1       6.922   7.200  17.812  0.00  0.00    +0.000 NA
ATOM     13  C   UNL     1       7.191   8.622  17.588  0.00  0.00    +0.000 C 
ATOM     14  C   UNL     1       6.767   6.518  16.518  0.00  0.00    +0.000 C 
ENDBRANCH   6   8
BRANCH   4  15
ATOM     15  C   UNL     1       2.503   6.397  18.351  0.00  0.00    +0.000 A 
ATOM     16  C   UNL     1       2.638   7.611  17.640  0.00  0.00    +0.000 A 
ATOM     17  C   UNL     1       2.245   8.829  18.202  0.00  0.00    +0.000 A 
ATOM     18  C   UNL     1       1.697   8.861  19.476  0.00  0.00    +0.000 A 
ATOM     19  C   UNL     1       1.532   7.675  20.190  0.00  0.00    +0.000 A 
ATOM     20  C   UNL     1       1.951   6.450  19.647  0.00  0.00    +0.000 A 
BRANCH  20  21
ATOM     21  C   UNL     1       1.805   5.265  20.536  0.00  0.00    +0.000 C 
ATOM     22  O   UNL     1       0.823   4.543  20.478  0.00  0.00    +0.000 OA
BRANCH  21  23
ATOM     23  O   UNL     1       2.772   5.114  21.458  0.00  0.00    +0.000 OA
ATOM     24  H   UNL     1       2.477   5.052  22.389  0.00  0.00    +0.000 HD
ENDBRANCH  21  23
ENDBRANCH  20  21
ENDBRANCH   4  15
TORSDOF 4
ENDMDL
MODEL 8
REMARK VINA RESULT:      -6.3      2.156      6.165
REMARK  Name = 
REMARK  6 active torsions:
REMARK  status: ('A' for Active; 'I' for Inactive)
REMARK    1  A    between atoms: C_1  and  C_2
REMARK    2  A    between atoms: C_4  and  C_5
REMARK    3  A    between atoms: C_10  and  C_11
REMARK    4  A    between atoms: C_11  and  O_13
REMARK    5  A    between atoms: C_15  and  C_16
REMARK    6  A    between atoms: N_20  and  C_21
REMARK                            x       y       z     vdW  Elec       q    Type
REMARK                         _______ _______ _______ _____ _____    ______ ____
ROOT
ATOM      1  C   UNL     1       8.204   6.285  19.272  0.00  0.00    +0.000 C 
ATOM      2  C   UNL     1       7.046   5.593  18.615  0.00  0.00    +0.000 A 
ATOM      3  C   UNL     1       6.083   4.952  19.380  0.00  0.00    +0.000 A 
ATOM      4  C   UNL     1       4.979   4.498  18.693  0.00  0.00    +0.000 A 
ATOM      5  N   UNL     1       4.875   4.598  17.358  0.00  0.00    +0.000 NA
ATOM      6  C   UNL     1       5.861   5.197  16.674  0.00  0.00    +0.000 A 
ATOM      7  N   UNL     1       6.938   5.728  17.272  0.00  0.00    +0.000 NA
ENDROOT
BRANCH   6   8
ATOM      8  C   UNL     1       5.498   5.515  15.237  0.00  0.00    +0.000 C 
ATOM      9  C   UNL     1       4.832   4.334  14.510  0.00  0.00    +0.000 C 
ATOM     10  C   UNL     1       5.862   3.344  13.981  0.00  0.00    +0.000 C 
ATOM     11  C   UNL     1       6.922   4.044  13.129  0.00  0.00    +0.000 C 
ATOM     12  N   UNL     1       7.570   5.153  13.837  0.00  0.00    +0.000 NA
ATOM     13  C   UNL     1       8.516   5.837  12.952  0.00  0.00    +0.000 C 
ATOM     14  C   UNL     1       6.603   6.124  14.370  0.00  0.00    +0.000 C 
ENDBRANCH   6   8
BRANCH   4  15
ATOM     15  C   UNL     1       3.685   4.141  19.283  0.00  0.00    +0.000 A 
ATOM     16  C   UNL     1       2.733   5.167  19.483  0.00  0.00    +0.000 A 
ATOM     17  C   UNL     1       1.572   4.946  20.229  0.00  0.00    +0.000 A 
ATOM     18  C   UNL     1       1.328   3.696  20.779  0.00  0.00    +0.000 A 
ATOM     19  C   UNL     1       2.239   2.660  20.577  0.00  0.00    +0.000 A 
ATOM     20  C   UNL     1       3.423   2.880  19.855  0.00  0.00    +0.000 A 
BRANCH  20  21
ATOM     21  C   UNL     1       4.358   1.725  19.780  0.00  0.00    +0.000 C 
ATOM     22  O   UNL     1       5.238   1.563  20.610  0.00  0.00    +0.000 OA
BRANCH  21  23
ATOM     23  O   UNL     1       4.224   0.945  18.692  0.00  0.00    +0.000 OA
ATOM     24  H   UNL     1       3.494   1.176  18.082  0.00  0.00    +0.000 HD
ENDBRANCH  21  23
ENDBRANCH  20  21
ENDBRANCH   4  15
TORSDOF 4
ENDMDL
MODEL 9
REMARK VINA RESULT:      -6.3      8.471     10.554
REMARK  Name = 
REMARK  6 active torsions:
REMARK  status: ('A' for Active; 'I' for Inactive)
REMARK    1  A    between atoms: C_1  and  C_2
REMARK    2  A    between atoms: C_4  and  C_5
REMARK    3  A    between atoms: C_10  and  C_11
REMARK    4  A    between atoms: C_11  and  O_13
REMARK    5  A    between atoms: C_15  and  C_16
REMARK    6  A    between atoms: N_20  and  C_21
REMARK                            x       y       z     vdW  Elec       q    Type
REMARK                         _______ _______ _______ _____ _____    ______ ____
ROOT
ATOM      1  C   UNL     1      -0.017   9.846  22.889  0.00  0.00    +0.000 C 
ATOM      2  C   UNL     1       0.051  10.333  21.472  0.00  0.00    +0.000 A 
ATOM      3  C   UNL     1      -0.887   9.918  20.538  0.00  0.00    +0.000 A 
ATOM      4  C   UNL     1      -0.837  10.552  19.317  0.00  0.00    +0.000 A 
ATOM      5  N   UNL     1       0.108  11.459  19.019  0.00  0.00    +0.000 NA
ATOM      6  C   UNL     1       1.009  11.787  19.957  0.00  0.00    +0.000 A 
ATOM      7  N   UNL     1       0.989  11.269  21.193  0.00  0.00    +0.000 NA
ENDROOT
BRANCH   6   8
ATOM      8  C   UNL     1       1.822  13.019  19.612  0.00  0.00    +0.000 C 
ATOM      9  C   UNL     1       2.502  13.652  20.838  0.00  0.00    +0.000 C 
ATOM     10  C   UNL     1       1.549  14.556  21.609  0.00  0.00    +0.000 C 
ATOM     11  C   UNL     1       0.897  15.592  20.692  0.00  0.00    +0.000 C 
ATOM     12  N   UNL     1       0.229  14.980  19.538  0.00  0.00    +0.000 NA
ATOM     13  C   UNL     1      -0.308  16.016  18.653  0.00  0.00    +0.000 C 
ATOM     14  C   UNL     1       1.120  14.093  18.775  0.00  0.00    +0.000 C 
ENDBRANCH   6   8
BRANCH   4  15
ATOM     15  C   UNL     1      -1.911  10.583  18.318  0.00  0.00    +0.000 A 
ATOM     16  C   UNL     1      -1.749   9.823  17.136  0.00  0.00    +0.000 A 
ATOM     17  C   UNL     1      -2.621   9.969  16.054  0.00  0.00    +0.000 A 
ATOM     18  C   UNL     1      -3.681  10.862  16.132  0.00  0.00    +0.000 A 
ATOM     19  C   UNL     1      -3.876  11.606  17.295  0.00  0.00    +0.000 A 
ATOM     20  C   UNL     1      -2.988  11.490  18.376  0.00  0.00    +0.000 A 
BRANCH  20  21
ATOM     21  C   UNL     1      -3.247  12.398  19.526  0.00  0.00    +0.000 C 
ATOM     22  O   UNL     1      -4.280  12.329  20.172  0.00  0.00    +0.000 OA
BRANCH  21  23
ATOM     23  O   UNL     1      -2.316  13.347  19.732  0.00  0.00    +0.000 OA
ATOM     24  H   UNL     1      -1.684  13.497  19.001  0.00  0.00    +0.000 HD
ENDBRANCH  21  23
ENDBRANCH  20  21
ENDBRANCH   4  15
TORSDOF 4
ENDMDL
