MODEL 1
REMARK VINA RESULT:      -8.4      0.000      0.000
REMARK  Name = 
REMARK  13 active torsions:
REMARK  status: ('A' for Active; 'I' for Inactive)
REMARK    1  A    between atoms: C_1  and  C_2
REMARK    2  A    between atoms: C_4  and  C_5
REMARK    3  A    between atoms: C_9  and  N_10
REMARK    4  A    between atoms: C_11  and  C_13
REMARK    5  A    between atoms: C_13  and  O_14
REMARK    6  A    between atoms: O_14  and  C_15
REMARK    7  A    between atoms: C_19  and  C_20
REMARK    8  A    between atoms: C_20  and  C_21
REMARK    9  A    between atoms: C_21  and  N_22
REMARK   10  A    between atoms: N_22  and  C_23
REMARK   11  A    between atoms: N_22  and  C_24
REMARK   12  A    between atoms: C_27  and  C_28
REMARK   13  A    between atoms: C_31  and  C_32
REMARK                            x       y       z     vdW  Elec       q    Type
REMARK                         _______ _______ _______ _____ _____    ______ ____
ROOT
ATOM      1  C   UNL     1       2.382   4.130  21.569  0.00  0.00    +0.000 C 
ATOM      2  C   UNL     1       2.830   4.004  20.162  0.00  0.00    +0.000 A 
ATOM      3  C   UNL     1       2.310   3.178  19.150  0.00  0.00    +0.000 A 
ATOM      4  C   UNL     1       3.097   3.413  18.041  0.00  0.00    +0.000 A 
ATOM      5  C   UNL     1       3.043   2.783  16.696  0.00  0.00    +0.000 C 
ATOM      6  N   UNL     1       4.018   4.382  18.418  0.00  0.00    +0.000 N 
ATOM      7  C   UNL     1       5.064   4.972  17.639  0.00  0.00    +0.000 A 
ATOM      8  C   UNL     1       5.896   5.904  18.243  0.00  0.00    +0.000 A 
ATOM      9  C   UNL     1       6.957   6.362  17.486  0.00  0.00    +0.000 A 
ATOM     10  N   UNL     1       7.142   5.965  16.227  0.00  0.00    +0.000 NA
ATOM     11  C   UNL     1       6.266   5.094  15.709  0.00  0.00    +0.000 A 
ATOM     12  N   UNL     1       5.227   4.569  16.362  0.00  0.00    +0.000 NA
ATOM     13  N   UNL     1       3.858   4.735  19.726  0.00  0.00    +0.000 NA
ENDROOT
BRANCH  11  14
ATOM     14  C   UNL     1       6.516   4.666  14.341  0.00  0.00    +0.000 A 
ATOM     15  C   UNL     1       7.523   4.949  13.437  0.00  0.00    +0.000 A 
ATOM     16  C   UNL     1       7.243   4.209  12.266  0.00  0.00    +0.000 A 
ATOM     17  C   UNL     1       6.075   3.522  12.511  0.00  0.00    +0.000 A 
ATOM     18  C   UNL     1       5.268   2.587  11.703  0.00  0.00    +0.000 C 
ATOM     19  O   UNL     1       5.623   3.796  13.769  0.00  0.00    +0.000 OA
ENDBRANCH  11  14
BRANCH   9  20
ATOM     20  N   UNL     1       7.870   7.245  18.092  0.00  0.00    +0.000 N 
ATOM     21  C   UNL     1       7.874   8.617  17.886  0.00  0.00    +0.000 C 
ATOM     22  O   UNL     1       7.088   9.249  17.180  0.00  0.00    +0.000 OA
ATOM     23  H   UNL     1       8.576   6.848  18.697  0.00  0.00    +0.000 HD
BRANCH  21  24
ATOM     24  C   UNL     1       8.992   9.354  18.620  0.00  0.00    +0.000 C 
BRANCH  24  25
ATOM     25  O   UNL     1       9.023  10.681  18.116  0.00  0.00    +0.000 OA
BRANCH  25  26
ATOM     26  C   UNL     1       9.759  11.608  18.801  0.00  0.00    +0.000 A 
ATOM     27  C   UNL     1      11.092  11.240  19.001  0.00  0.00    +0.000 A 
ATOM     28  C   UNL     1      11.978  12.096  19.650  0.00  0.00    +0.000 A 
ATOM     29  C   UNL     1      11.532  13.332  20.109  0.00  0.00    +0.000 A 
ATOM     30  C   UNL     1      10.195  13.721  19.928  0.00  0.00    +0.000 A 
ATOM     31  C   UNL     1       9.308  12.840  19.281  0.00  0.00    +0.000 A 
BRANCH  30  32
ATOM     32  C   UNL     1       9.719  15.061  20.454  0.00  0.00    +0.000 C 
BRANCH  32  33
ATOM     33  C   UNL     1       8.772  15.774  19.467  0.00  0.00    +0.000 C 
BRANCH  33  34
ATOM     34  N   UNL     1       7.452  16.147  20.020  0.00  0.00    +0.000 NA
ATOM     35  C   UNL     1       7.422  16.065  21.483  0.00  0.00    +0.000 C 
ATOM     36  C   UNL     1       7.129  17.519  19.605  0.00  0.00    +0.000 C 
ENDBRANCH  33  34
ENDBRANCH  32  33
ENDBRANCH  30  32
ENDBRANCH  25  26
ENDBRANCH  24  25
ENDBRANCH  21  24
ENDBRANCH   9  20
TORSDOF 8
ENDMDL
MODEL 2
REMARK VINA RESULT:      -8.2      0.910      1.099
REMARK  Name = 
REMARK  13 active torsions:
REMARK  status: ('A' for Active; 'I' for Inactive)
REMARK    1  A    between atoms: C_1  and  C_2
REMARK    2  A    between atoms: C_4  and  C_5
REMARK    3  A    between atoms: C_9  and  N_10
REMARK    4  A    between atoms: C_11  and  C_13
REMARK    5  A    between atoms: C_13  and  O_14
REMARK    6  A    between atoms: O_14  and  C_15
REMARK    7  A    between atoms: C_19  and  C_20
REMARK    8  A    between atoms: C_20  and  C_21
REMARK    9  A    between atoms: C_21  and  N_22
REMARK   10  A    between atoms: N_22  and  C_23
REMARK   11  A    between atoms: N_22  and  C_24
REMARK   12  A    between atoms: C_27  and  C_28
REMARK   13  A    between atoms: C_31  and  C_32
REMARK                            x       y       z     vdW  Elec       q    Type
REMARK                         _______ _______ _______ _____ _____    ______ ____
ROOT
ATOM      1  C   UNL     1       2.601   3.193  21.610  0.00  0.00    +0.000 C 
ATOM      2  C   UNL     1       3.024   3.200  20.190  0.00  0.00    +0.000 A 
ATOM      3  C   UNL     1       2.539   2.415  19.129  0.00  0.00    +0.000 A 
ATOM      4  C   UNL     1       3.283   2.783  18.027  0.00  0.00    +0.000 A 
ATOM      5  C   UNL     1       3.242   2.249  16.640  0.00  0.00    +0.000 C 
ATOM      6  N   UNL     1       4.144   3.784  18.457  0.00  0.00    +0.000 N 
ATOM      7  C   UNL     1       5.129   4.501  17.705  0.00  0.00    +0.000 A 
ATOM      8  C   UNL     1       5.908   5.443  18.360  0.00  0.00    +0.000 A 
ATOM      9  C   UNL     1       6.918   6.027  17.621  0.00  0.00    +0.000 A 
ATOM     10  N   UNL     1       7.101   5.735  16.332  0.00  0.00    +0.000 NA
ATOM     11  C   UNL     1       6.276   4.845  15.767  0.00  0.00    +0.000 A 
ATOM     12  N   UNL     1       5.289   4.203  16.399  0.00  0.00    +0.000 NA
ATOM     13  N   UNL     1       3.989   4.031  19.790  0.00  0.00    +0.000 NA
ENDROOT
BRANCH  11  14
ATOM     14  C   UNL     1       6.523   4.534  14.368  0.00  0.00    +0.000 A 
ATOM     15  C   UNL     1       7.437   5.012  13.447  0.00  0.00    +0.000 A 
ATOM     16  C   UNL     1       7.215   4.305  12.244  0.00  0.00    +0.000 A 
ATOM     17  C   UNL     1       6.170   3.441  12.489  0.00  0.00    +0.000 A 
ATOM     18  C   UNL     1       5.471   2.443  11.654  0.00  0.00    +0.000 C 
ATOM     19  O   UNL     1       5.740   3.576  13.776  0.00  0.00    +0.000 OA
ENDBRANCH  11  14
BRANCH   9  20
ATOM     20  N   UNL     1       7.782   6.926  18.272  0.00  0.00    +0.000 N 
ATOM     21  C   UNL     1       7.865   8.278  17.971  0.00  0.00    +0.000 C 
ATOM     22  O   UNL     1       7.199   8.878  17.127  0.00  0.00    +0.000 OA
ATOM     23  H   UNL     1       8.390   6.555  18.990  0.00  0.00    +0.000 HD
BRANCH  21  24
ATOM     24  C   UNL     1       8.910   9.035  18.787  0.00  0.00    +0.000 C 
BRANCH  24  25
ATOM     25  O   UNL     1       9.168  10.257  18.111  0.00  0.00    +0.000 OA
BRANCH  25  26
ATOM     26  C   UNL     1       9.867  11.222  18.779  0.00  0.00    +0.000 A 
ATOM     27  C   UNL     1      11.061  11.595  18.155  0.00  0.00    +0.000 A 
ATOM     28  C   UNL     1      11.866  12.594  18.696  0.00  0.00    +0.000 A 
ATOM     29  C   UNL     1      11.482  13.229  19.874  0.00  0.00    +0.000 A 
ATOM     30  C   UNL     1      10.291  12.866  20.524  0.00  0.00    +0.000 A 
ATOM     31  C   UNL     1       9.493  11.847  19.973  0.00  0.00    +0.000 A 
BRANCH  30  32
ATOM     32  C   UNL     1       9.898  13.551  21.818  0.00  0.00    +0.000 C 
BRANCH  32  33
ATOM     33  C   UNL     1       9.923  15.089  21.697  0.00  0.00    +0.000 C 
BRANCH  33  34
ATOM     34  N   UNL     1       8.671  15.771  22.087  0.00  0.00    +0.000 NA
ATOM     35  C   UNL     1       8.388  16.934  21.242  0.00  0.00    +0.000 C 
ATOM     36  C   UNL     1       7.556  14.819  21.989  0.00  0.00    +0.000 C 
ENDBRANCH  33  34
ENDBRANCH  32  33
ENDBRANCH  30  32
ENDBRANCH  25  26
ENDBRANCH  24  25
ENDBRANCH  21  24
ENDBRANCH   9  20
TORSDOF 8
ENDMDL
MODEL 3
REMARK VINA RESULT:      -7.9      1.284      1.501
REMARK  Name = 
REMARK  13 active torsions:
REMARK  status: ('A' for Active; 'I' for Inactive)
REMARK    1  A    between atoms: C_1  and  C_2
REMARK    2  A    between atoms: C_4  and  C_5
REMARK    3  A    between atoms: C_9  and  N_10
REMARK    4  A    between atoms: C_11  and  C_13
REMARK    5  A    between atoms: C_13  and  O_14
REMARK    6  A    between atoms: O_14  and  C_15
REMARK    7  A    between atoms: C_19  and  C_20
REMARK    8  A    between atoms: C_20  and  C_21
REMARK    9  A    between atoms: C_21  and  N_22
REMARK   10  A    between atoms: N_22  and  C_23
REMARK   11  A    between atoms: N_22  and  C_24
REMARK   12  A    between atoms: C_27  and  C_28
REMARK   13  A    between atoms: C_31  and  C_32
REMARK                            x       y       z     vdW  Elec       q    Type
REMARK                         _______ _______ _______ _____ _____    ______ ____
ROOT
ATOM      1  C   UNL     1       1.899   4.888  21.269  0.00  0.00    +0.000 C 
ATOM      2  C   UNL     1       2.415   4.673  19.897  0.00  0.00    +0.000 A 
ATOM      3  C   UNL     1       1.871   3.879  18.872  0.00  0.00    +0.000 A 
ATOM      4  C   UNL     1       2.745   3.994  17.811  0.00  0.00    +0.000 A 
ATOM      5  C   UNL     1       2.705   3.334  16.480  0.00  0.00    +0.000 C 
ATOM      6  N   UNL     1       3.744   4.867  18.225  0.00  0.00    +0.000 N 
ATOM      7  C   UNL     1       4.894   5.316  17.502  0.00  0.00    +0.000 A 
ATOM      8  C   UNL     1       5.786   6.169  18.137  0.00  0.00    +0.000 A 
ATOM      9  C   UNL     1       6.936   6.485  17.440  0.00  0.00    +0.000 A 
ATOM     10  N   UNL     1       7.153   6.034  16.205  0.00  0.00    +0.000 NA
ATOM     11  C   UNL     1       6.220   5.249  15.651  0.00  0.00    +0.000 A 
ATOM     12  N   UNL     1       5.090   4.860  16.248  0.00  0.00    +0.000 NA
ATOM     13  N   UNL     1       3.543   5.274  19.511  0.00  0.00    +0.000 NA
ENDROOT
BRANCH  11  14
ATOM     14  C   UNL     1       6.504   4.756  14.312  0.00  0.00    +0.000 A 
ATOM     15  C   UNL     1       7.520   5.016  13.411  0.00  0.00    +0.000 A 
ATOM     16  C   UNL     1       7.279   4.209  12.277  0.00  0.00    +0.000 A 
ATOM     17  C   UNL     1       6.124   3.507  12.538  0.00  0.00    +0.000 A 
ATOM     18  C   UNL     1       5.354   2.510  11.767  0.00  0.00    +0.000 C 
ATOM     19  O   UNL     1       5.643   3.835  13.772  0.00  0.00    +0.000 OA
ENDBRANCH  11  14
BRANCH   9  20
ATOM     20  N   UNL     1       7.902   7.281  18.083  0.00  0.00    +0.000 N 
ATOM     21  C   UNL     1       7.958   8.664  17.984  0.00  0.00    +0.000 C 
ATOM     22  O   UNL     1       7.181   9.381  17.354  0.00  0.00    +0.000 OA
ATOM     23  H   UNL     1       8.607   6.809  18.634  0.00  0.00    +0.000 HD
BRANCH  21  24
ATOM     24  C   UNL     1       9.127   9.295  18.738  0.00  0.00    +0.000 C 
BRANCH  24  25
ATOM     25  O   UNL     1       9.357  10.574  18.164  0.00  0.00    +0.000 OA
BRANCH  25  26
ATOM     26  C   UNL     1       9.663  11.606  19.004  0.00  0.00    +0.000 A 
ATOM     27  C   UNL     1      10.362  12.650  18.391  0.00  0.00    +0.000 A 
ATOM     28  C   UNL     1      10.713  13.791  19.109  0.00  0.00    +0.000 A 
ATOM     29  C   UNL     1      10.369  13.894  20.454  0.00  0.00    +0.000 A 
ATOM     30  C   UNL     1       9.675  12.854  21.094  0.00  0.00    +0.000 A 
ATOM     31  C   UNL     1       9.337  11.703  20.360  0.00  0.00    +0.000 A 
BRANCH  30  32
ATOM     32  C   UNL     1       9.327  12.972  22.565  0.00  0.00    +0.000 C 
BRANCH  32  33
ATOM     33  C   UNL     1       8.909  14.405  22.955  0.00  0.00    +0.000 C 
BRANCH  33  34
ATOM     34  N   UNL     1       7.500  14.558  23.376  0.00  0.00    +0.000 NA
ATOM     35  C   UNL     1       7.264  15.825  24.072  0.00  0.00    +0.000 C 
ATOM     36  C   UNL     1       6.636  14.489  22.190  0.00  0.00    +0.000 C 
ENDBRANCH  33  34
ENDBRANCH  32  33
ENDBRANCH  30  32
ENDBRANCH  25  26
ENDBRANCH  24  25
ENDBRANCH  21  24
ENDBRANCH   9  20
TORSDOF 8
ENDMDL
MODEL 4
REMARK VINA RESULT:      -7.7      6.656     11.076
REMARK  Name = 
REMARK  13 active torsions:
REMARK  status: ('A' for Active; 'I' for Inactive)
REMARK    1  A    between atoms: C_1  and  C_2
REMARK    2  A    between atoms: C_4  and  C_5
REMARK    3  A    between atoms: C_9  and  N_10
REMARK    4  A    between atoms: C_11  and  C_13
REMARK    5  A    between atoms: C_13  and  O_14
REMARK    6  A    between atoms: O_14  and  C_15
REMARK    7  A    between atoms: C_19  and  C_20
REMARK    8  A    between atoms: C_20  and  C_21
REMARK    9  A    between atoms: C_21  and  N_22
REMARK   10  A    between atoms: N_22  and  C_23
REMARK   11  A    between atoms: N_22  and  C_24
REMARK   12  A    between atoms: C_27  and  C_28
REMARK   13  A    between atoms: C_31  and  C_32
REMARK                            x       y       z     vdW  Elec       q    Type
REMARK                         _______ _______ _______ _____ _____    ______ ____
ROOT
ATOM      1  C   UNL     1       4.004  15.374  21.109  0.00  0.00    +0.000 C 
ATOM      2  C   UNL     1       2.649  15.084  20.584  0.00  0.00    +0.000 A 
ATOM      3  C   UNL     1       1.569  15.968  20.415  0.00  0.00    +0.000 A 
ATOM      4  C   UNL     1       0.534  15.198  19.927  0.00  0.00    +0.000 A 
ATOM      5  C   UNL     1      -0.865  15.589  19.608  0.00  0.00    +0.000 C 
ATOM      6  N   UNL     1       1.039  13.911  19.792  0.00  0.00    +0.000 N 
ATOM      7  C   UNL     1       0.370  12.732  19.331  0.00  0.00    +0.000 A 
ATOM      8  C   UNL     1       1.072  11.534  19.316  0.00  0.00    +0.000 A 
ATOM      9  C   UNL     1       0.354  10.406  18.971  0.00  0.00    +0.000 A 
ATOM     10  N   UNL     1      -0.932  10.473  18.624  0.00  0.00    +0.000 NA
ATOM     11  C   UNL     1      -1.520  11.676  18.626  0.00  0.00    +0.000 A 
ATOM     12  N   UNL     1      -0.926  12.821  18.971  0.00  0.00    +0.000 NA
ATOM     13  N   UNL     1       2.337  13.842  20.207  0.00  0.00    +0.000 NA
ENDROOT
BRANCH  11  14
ATOM     14  C   UNL     1      -2.930  11.705  18.267  0.00  0.00    +0.000 A 
ATOM     15  C   UNL     1      -3.609  11.396  17.102  0.00  0.00    +0.000 A 
ATOM     16  C   UNL     1      -4.984  11.590  17.365  0.00  0.00    +0.000 A 
ATOM     17  C   UNL     1      -5.072  12.018  18.671  0.00  0.00    +0.000 A 
ATOM     18  C   UNL     1      -6.211  12.385  19.536  0.00  0.00    +0.000 C 
ATOM     19  O   UNL     1      -3.828  12.095  19.227  0.00  0.00    +0.000 OA
ENDBRANCH  11  14
BRANCH   9  20
ATOM     20  N   UNL     1       1.009   9.162  19.024  0.00  0.00    +0.000 N 
ATOM     21  C   UNL     1       1.435   8.559  20.199  0.00  0.00    +0.000 C 
ATOM     22  O   UNL     1       1.289   9.002  21.338  0.00  0.00    +0.000 OA
ATOM     23  H   UNL     1       1.194   8.692  18.148  0.00  0.00    +0.000 HD
BRANCH  21  24
ATOM     24  C   UNL     1       2.160   7.231  19.991  0.00  0.00    +0.000 C 
BRANCH  24  25
ATOM     25  O   UNL     1       2.162   6.967  18.595  0.00  0.00    +0.000 OA
BRANCH  25  26
ATOM     26  C   UNL     1       2.848   5.871  18.154  0.00  0.00    +0.000 A 
ATOM     27  C   UNL     1       2.038   4.767  17.876  0.00  0.00    +0.000 A 
ATOM     28  C   UNL     1       2.587   3.586  17.382  0.00  0.00    +0.000 A 
ATOM     29  C   UNL     1       3.959   3.500  17.164  0.00  0.00    +0.000 A 
ATOM     30  C   UNL     1       4.795   4.593  17.444  0.00  0.00    +0.000 A 
ATOM     31  C   UNL     1       4.228   5.776  17.954  0.00  0.00    +0.000 A 
BRANCH  30  32
ATOM     32  C   UNL     1       6.291   4.476  17.223  0.00  0.00    +0.000 C 
BRANCH  32  33
ATOM     33  C   UNL     1       6.899   5.769  16.641  0.00  0.00    +0.000 C 
BRANCH  33  34
ATOM     34  N   UNL     1       7.858   6.466  17.524  0.00  0.00    +0.000 NA
ATOM     35  C   UNL     1       7.646   7.915  17.537  0.00  0.00    +0.000 C 
ATOM     36  C   UNL     1       7.718   5.944  18.891  0.00  0.00    +0.000 C 
ENDBRANCH  33  34
ENDBRANCH  32  33
ENDBRANCH  30  32
ENDBRANCH  25  26
ENDBRANCH  24  25
ENDBRANCH  21  24
ENDBRANCH   9  20
TORSDOF 8
ENDMDL
MODEL 5
REMARK VINA RESULT:      -7.6      1.590      2.037
REMARK  Name = 
REMARK  13 active torsions:
REMARK  status: ('A' for Active; 'I' for Inactive)
REMARK    1  A    between atoms: C_1  and  C_2
REMARK    2  A    between atoms: C_4  and  C_5
REMARK    3  A    between atoms: C_9  and  N_10
REMARK    4  A    between atoms: C_11  and  C_13
REMARK    5  A    between atoms: C_13  and  O_14
REMARK    6  A    between atoms: O_14  and  C_15
REMARK    7  A    between atoms: C_19  and  C_20
REMARK    8  A    between atoms: C_20  and  C_21
REMARK    9  A    between atoms: C_21  and  N_22
REMARK   10  A    between atoms: N_22  and  C_23
REMARK   11  A    between atoms: N_22  and  C_24
REMARK   12  A    between atoms: C_27  and  C_28
REMARK   13  A    between atoms: C_31  and  C_32
REMARK                            x       y       z     vdW  Elec       q    Type
REMARK                         _______ _______ _______ _____ _____    ______ ____
ROOT
ATOM      1  C   UNL     1       2.384   3.673  21.715  0.00  0.00    +0.000 C 
ATOM      2  C   UNL     1       2.831   3.635  20.303  0.00  0.00    +0.000 A 
ATOM      3  C   UNL     1       2.329   2.853  19.248  0.00  0.00    +0.000 A 
ATOM      4  C   UNL     1       3.107   3.168  18.152  0.00  0.00    +0.000 A 
ATOM      5  C   UNL     1       3.065   2.612  16.774  0.00  0.00    +0.000 C 
ATOM      6  N   UNL     1       4.004   4.138  18.580  0.00  0.00    +0.000 N 
ATOM      7  C   UNL     1       5.033   4.796  17.833  0.00  0.00    +0.000 A 
ATOM      8  C   UNL     1       5.843   5.714  18.486  0.00  0.00    +0.000 A 
ATOM      9  C   UNL     1       6.890   6.239  17.754  0.00  0.00    +0.000 A 
ATOM     10  N   UNL     1       7.081   5.917  16.474  0.00  0.00    +0.000 NA
ATOM     11  C   UNL     1       6.226   5.054  15.910  0.00  0.00    +0.000 A 
ATOM     12  N   UNL     1       5.202   4.468  16.536  0.00  0.00    +0.000 NA
ATOM     13  N   UNL     1       3.838   4.415  19.905  0.00  0.00    +0.000 NA
ENDROOT
BRANCH  11  14
ATOM     14  C   UNL     1       6.483   4.707  14.521  0.00  0.00    +0.000 A 
ATOM     15  C   UNL     1       6.090   3.642  13.731  0.00  0.00    +0.000 A 
ATOM     16  C   UNL     1       6.627   3.867  12.443  0.00  0.00    +0.000 A 
ATOM     17  C   UNL     1       7.329   5.049  12.517  0.00  0.00    +0.000 A 
ATOM     18  C   UNL     1       8.107   5.823  11.528  0.00  0.00    +0.000 C 
ATOM     19  O   UNL     1       7.250   5.566  13.777  0.00  0.00    +0.000 OA
ENDBRANCH  11  14
BRANCH   9  20
ATOM     20  N   UNL     1       7.782   7.111  18.405  0.00  0.00    +0.000 N 
ATOM     21  C   UNL     1       7.940   8.449  18.073  0.00  0.00    +0.000 C 
ATOM     22  O   UNL     1       7.327   9.059  17.197  0.00  0.00    +0.000 OA
ATOM     23  H   UNL     1       8.353   6.729  19.147  0.00  0.00    +0.000 HD
BRANCH  21  24
ATOM     24  C   UNL     1       9.003   9.174  18.896  0.00  0.00    +0.000 C 
BRANCH  24  25
ATOM     25  O   UNL     1       9.574  10.172  18.062  0.00  0.00    +0.000 OA
BRANCH  25  26
ATOM     26  C   UNL     1       9.777  11.412  18.597  0.00  0.00    +0.000 A 
ATOM     27  C   UNL     1      10.681  12.200  17.879  0.00  0.00    +0.000 A 
ATOM     28  C   UNL     1      10.964  13.503  18.278  0.00  0.00    +0.000 A 
ATOM     29  C   UNL     1      10.344  14.030  19.407  0.00  0.00    +0.000 A 
ATOM     30  C   UNL     1       9.439  13.255  20.151  0.00  0.00    +0.000 A 
ATOM     31  C   UNL     1       9.171  11.936  19.743  0.00  0.00    +0.000 A 
BRANCH  30  32
ATOM     32  C   UNL     1       8.789  13.836  21.392  0.00  0.00    +0.000 C 
BRANCH  32  33
ATOM     33  C   UNL     1       9.144  13.040  22.665  0.00  0.00    +0.000 C 
BRANCH  33  34
ATOM     34  N   UNL     1       8.042  12.888  23.638  0.00  0.00    +0.000 NA
ATOM     35  C   UNL     1       7.330  14.147  23.871  0.00  0.00    +0.000 C 
ATOM     36  C   UNL     1       7.095  11.882  23.137  0.00  0.00    +0.000 C 
ENDBRANCH  33  34
ENDBRANCH  32  33
ENDBRANCH  30  32
ENDBRANCH  25  26
ENDBRANCH  24  25
ENDBRANCH  21  24
ENDBRANCH   9  20
TORSDOF 8
ENDMDL
MODEL 6
REMARK VINA RESULT:      -7.5      6.414     12.078
REMARK  Name = 
REMARK  13 active torsions:
REMARK  status: ('A' for Active; 'I' for Inactive)
REMARK    1  A    between atoms: C_1  and  C_2
REMARK    2  A    between atoms: C_4  and  C_5
REMARK    3  A    between atoms: C_9  and  N_10
REMARK    4  A    between atoms: C_11  and  C_13
REMARK    5  A    between atoms: C_13  and  O_14
REMARK    6  A    between atoms: O_14  and  C_15
REMARK    7  A    between atoms: C_19  and  C_20
REMARK    8  A    between atoms: C_20  and  C_21
REMARK    9  A    between atoms: C_21  and  N_22
REMARK   10  A    between atoms: N_22  and  C_23
REMARK   11  A    between atoms: N_22  and  C_24
REMARK   12  A    between atoms: C_27  and  C_28
REMARK   13  A    between atoms: C_31  and  C_32
REMARK                            x       y       z     vdW  Elec       q    Type
REMARK                         _______ _______ _______ _____ _____    ______ ____
ROOT
ATOM      1  C   UNL     1       4.862  14.976  18.018  0.00  0.00    +0.000 C 
ATOM      2  C   UNL     1       3.707  15.084  18.939  0.00  0.00    +0.000 A 
ATOM      3  C   UNL     1       3.189  16.234  19.560  0.00  0.00    +0.000 A 
ATOM      4  C   UNL     1       2.139  15.792  20.339  0.00  0.00    +0.000 A 
ATOM      5  C   UNL     1       1.255  16.560  21.255  0.00  0.00    +0.000 C 
ATOM      6  N   UNL     1       2.049  14.422  20.127  0.00  0.00    +0.000 N 
ATOM      7  C   UNL     1       1.130  13.487  20.701  0.00  0.00    +0.000 A 
ATOM      8  C   UNL     1       1.253  12.145  20.368  0.00  0.00    +0.000 A 
ATOM      9  C   UNL     1       0.419  11.268  21.032  0.00  0.00    +0.000 A 
ATOM     10  N   UNL     1      -0.490  11.695  21.910  0.00  0.00    +0.000 NA
ATOM     11  C   UNL     1      -0.569  13.011  22.141  0.00  0.00    +0.000 A 
ATOM     12  N   UNL     1       0.209  13.938  21.576  0.00  0.00    +0.000 NA
ATOM     13  N   UNL     1       3.021  13.988  19.274  0.00  0.00    +0.000 NA
ENDROOT
BRANCH  11  14
ATOM     14  C   UNL     1      -1.554  13.435  23.123  0.00  0.00    +0.000 A 
ATOM     15  C   UNL     1      -1.672  14.568  23.907  0.00  0.00    +0.000 A 
ATOM     16  C   UNL     1      -2.865  14.431  24.652  0.00  0.00    +0.000 A 
ATOM     17  C   UNL     1      -3.407  13.217  24.294  0.00  0.00    +0.000 A 
ATOM     18  C   UNL     1      -4.631  12.499  24.705  0.00  0.00    +0.000 C 
ATOM     19  O   UNL     1      -2.616  12.602  23.368  0.00  0.00    +0.000 OA
ENDBRANCH  11  14
BRANCH   9  20
ATOM     20  N   UNL     1       0.570   9.892  20.782  0.00  0.00    +0.000 N 
ATOM     21  C   UNL     1       1.230   9.017  21.634  0.00  0.00    +0.000 C 
ATOM     22  O   UNL     1       1.748   9.304  22.713  0.00  0.00    +0.000 OA
ATOM     23  H   UNL     1       0.189   9.527  19.920  0.00  0.00    +0.000 HD
BRANCH  21  24
ATOM     24  C   UNL     1       1.299   7.580  21.120  0.00  0.00    +0.000 C 
BRANCH  24  25
ATOM     25  O   UNL     1       1.575   7.644  19.728  0.00  0.00    +0.000 OA
BRANCH  25  26
ATOM     26  C   UNL     1       2.580   6.858  19.240  0.00  0.00    +0.000 A 
ATOM     27  C   UNL     1       2.645   5.590  19.823  0.00  0.00    +0.000 A 
ATOM     28  C   UNL     1       3.594   4.661  19.404  0.00  0.00    +0.000 A 
ATOM     29  C   UNL     1       4.492   4.998  18.395  0.00  0.00    +0.000 A 
ATOM     30  C   UNL     1       4.453   6.269  17.800  0.00  0.00    +0.000 A 
ATOM     31  C   UNL     1       3.496   7.202  18.241  0.00  0.00    +0.000 A 
BRANCH  30  32
ATOM     32  C   UNL     1       5.452   6.628  16.718  0.00  0.00    +0.000 C 
BRANCH  32  33
ATOM     33  C   UNL     1       5.211   5.841  15.413  0.00  0.00    +0.000 C 
BRANCH  33  34
ATOM     34  N   UNL     1       6.415   5.226  14.818  0.00  0.00    +0.000 NA
ATOM     35  C   UNL     1       7.359   4.757  15.836  0.00  0.00    +0.000 C 
ATOM     36  C   UNL     1       6.008   4.092  13.976  0.00  0.00    +0.000 C 
ENDBRANCH  33  34
ENDBRANCH  32  33
ENDBRANCH  30  32
ENDBRANCH  25  26
ENDBRANCH  24  25
ENDBRANCH  21  24
ENDBRANCH   9  20
TORSDOF 8
ENDMDL
MODEL 7
REMARK VINA RESULT:      -7.5      6.914     11.707
REMARK  Name = 
REMARK  13 active torsions:
REMARK  status: ('A' for Active; 'I' for Inactive)
REMARK    1  A    between atoms: C_1  and  C_2
REMARK    2  A    between atoms: C_4  and  C_5
REMARK    3  A    between atoms: C_9  and  N_10
REMARK    4  A    between atoms: C_11  and  C_13
REMARK    5  A    between atoms: C_13  and  O_14
REMARK    6  A    between atoms: O_14  and  C_15
REMARK    7  A    between atoms: C_19  and  C_20
REMARK    8  A    between atoms: C_20  and  C_21
REMARK    9  A    between atoms: C_21  and  N_22
REMARK   10  A    between atoms: N_22  and  C_23
REMARK   11  A    between atoms: N_22  and  C_24
REMARK   12  A    between atoms: C_27  and  C_28
REMARK   13  A    between atoms: C_31  and  C_32
REMARK                            x       y       z     vdW  Elec       q    Type
REMARK                         _______ _______ _______ _____ _____    ______ ____
ROOT
ATOM      1  C   UNL     1       3.151  15.990  22.230  0.00  0.00    +0.000 C 
ATOM      2  C   UNL     1       1.902  15.569  21.553  0.00  0.00    +0.000 A 
ATOM      3  C   UNL     1       0.773  16.346  21.241  0.00  0.00    +0.000 A 
ATOM      4  C   UNL     1      -0.120  15.477  20.647  0.00  0.00    +0.000 A 
ATOM      5  C   UNL     1      -1.501  15.732  20.157  0.00  0.00    +0.000 C 
ATOM      6  N   UNL     1       0.516  14.243  20.596  0.00  0.00    +0.000 N 
ATOM      7  C   UNL     1       0.020  13.003  20.079  0.00  0.00    +0.000 A 
ATOM      8  C   UNL     1       0.827  11.878  20.168  0.00  0.00    +0.000 A 
ATOM      9  C   UNL     1       0.265  10.685  19.760  0.00  0.00    +0.000 A 
ATOM     10  N   UNL     1      -0.971  10.627  19.262  0.00  0.00    +0.000 NA
ATOM     11  C   UNL     1      -1.665  11.769  19.172  0.00  0.00    +0.000 A 
ATOM     12  N   UNL     1      -1.226  12.967  19.565  0.00  0.00    +0.000 NA
ATOM     13  N   UNL     1       1.755  14.301  21.163  0.00  0.00    +0.000 NA
ENDROOT
BRANCH  11  14
ATOM     14  C   UNL     1      -3.017  11.662  18.647  0.00  0.00    +0.000 A 
ATOM     15  C   UNL     1      -3.546  11.034  17.534  0.00  0.00    +0.000 A 
ATOM     16  C   UNL     1      -4.942  11.253  17.564  0.00  0.00    +0.000 A 
ATOM     17  C   UNL     1      -5.191  12.012  18.685  0.00  0.00    +0.000 A 
ATOM     18  C   UNL     1      -6.428  12.566  19.273  0.00  0.00    +0.000 C 
ATOM     19  O   UNL     1      -4.027  12.269  19.349  0.00  0.00    +0.000 OA
ENDBRANCH  11  14
BRANCH   9  20
ATOM     20  N   UNL     1       1.022   9.509  19.912  0.00  0.00    +0.000 N 
ATOM     21  C   UNL     1       0.881   8.627  20.974  0.00  0.00    +0.000 C 
ATOM     22  O   UNL     1       0.081   8.731  21.904  0.00  0.00    +0.000 OA
ATOM     23  H   UNL     1       1.723   9.308  19.211  0.00  0.00    +0.000 HD
BRANCH  21  24
ATOM     24  C   UNL     1       1.849   7.446  20.937  0.00  0.00    +0.000 C 
BRANCH  24  25
ATOM     25  O   UNL     1       1.100   6.300  20.561  0.00  0.00    +0.000 OA
BRANCH  25  26
ATOM     26  C   UNL     1       1.786   5.152  20.279  0.00  0.00    +0.000 A 
ATOM     27  C   UNL     1       1.071   3.982  20.547  0.00  0.00    +0.000 A 
ATOM     28  C   UNL     1       1.622   2.732  20.277  0.00  0.00    +0.000 A 
ATOM     29  C   UNL     1       2.902   2.644  19.737  0.00  0.00    +0.000 A 
ATOM     30  C   UNL     1       3.645   3.806  19.468  0.00  0.00    +0.000 A 
ATOM     31  C   UNL     1       3.079   5.061  19.757  0.00  0.00    +0.000 A 
BRANCH  30  32
ATOM     32  C   UNL     1       5.046   3.692  18.901  0.00  0.00    +0.000 C 
BRANCH  32  33
ATOM     33  C   UNL     1       5.870   4.979  19.115  0.00  0.00    +0.000 C 
BRANCH  33  34
ATOM     34  N   UNL     1       7.243   4.944  18.569  0.00  0.00    +0.000 NA
ATOM     35  C   UNL     1       7.273   4.504  17.172  0.00  0.00    +0.000 C 
ATOM     36  C   UNL     1       7.832   6.287  18.667  0.00  0.00    +0.000 C 
ENDBRANCH  33  34
ENDBRANCH  32  33
ENDBRANCH  30  32
ENDBRANCH  25  26
ENDBRANCH  24  25
ENDBRANCH  21  24
ENDBRANCH   9  20
TORSDOF 8
ENDMDL
MODEL 8
REMARK VINA RESULT:      -7.5      1.105      1.258
REMARK  Name = 
REMARK  13 active torsions:
REMARK  status: ('A' for Active; 'I' for Inactive)
REMARK    1  A    between atoms: C_1  and  C_2
REMARK    2  A    between atoms: C_4  and  C_5
REMARK    3  A    between atoms: C_9  and  N_10
REMARK    4  A    between atoms: C_11  and  C_13
REMARK    5  A    between atoms: C_13  and  O_14
REMARK    6  A    between atoms: O_14  and  C_15
REMARK    7  A    between atoms: C_19  and  C_20
REMARK    8  A    between atoms: C_20  and  C_21
REMARK    9  A    between atoms: C_21  and  N_22
REMARK   10  A    between atoms: N_22  and  C_23
REMARK   11  A    between atoms: N_22  and  C_24
REMARK   12  A    between atoms: C_27  and  C_28
REMARK   13  A    between atoms: C_31  and  C_32
REMARK                            x       y       z     vdW  Elec       q    Type
REMARK                         _______ _______ _______ _____ _____    ______ ____
ROOT
ATOM      1  C   UNL     1       2.062   4.324  21.363  0.00  0.00    +0.000 C 
ATOM      2  C   UNL     1       2.609   4.082  20.008  0.00  0.00    +0.000 A 
ATOM      3  C   UNL     1       2.416   2.968  19.173  0.00  0.00    +0.000 A 
ATOM      4  C   UNL     1       3.163   3.220  18.041  0.00  0.00    +0.000 A 
ATOM      5  C   UNL     1       3.376   2.368  16.842  0.00  0.00    +0.000 C 
ATOM      6  N   UNL     1       3.736   4.472  18.225  0.00  0.00    +0.000 N 
ATOM      7  C   UNL     1       4.606   5.195  17.348  0.00  0.00    +0.000 A 
ATOM      8  C   UNL     1       5.090   6.428  17.763  0.00  0.00    +0.000 A 
ATOM      9  C   UNL     1       6.013   7.035  16.934  0.00  0.00    +0.000 A 
ATOM     10  N   UNL     1       6.380   6.488  15.775  0.00  0.00    +0.000 NA
ATOM     11  C   UNL     1       5.831   5.316  15.433  0.00  0.00    +0.000 A 
ATOM     12  N   UNL     1       4.955   4.632  16.174  0.00  0.00    +0.000 NA
ATOM     13  N   UNL     1       3.401   4.995  19.440  0.00  0.00    +0.000 NA
ENDROOT
BRANCH  11  14
ATOM     14  C   UNL     1       6.276   4.739  14.174  0.00  0.00    +0.000 A 
ATOM     15  C   UNL     1       7.395   4.946  13.389  0.00  0.00    +0.000 A 
ATOM     16  C   UNL     1       7.293   4.065  12.288  0.00  0.00    +0.000 A 
ATOM     17  C   UNL     1       6.113   3.376  12.451  0.00  0.00    +0.000 A 
ATOM     18  C   UNL     1       5.440   2.327  11.658  0.00  0.00    +0.000 C 
ATOM     19  O   UNL     1       5.485   3.780  13.593  0.00  0.00    +0.000 OA
ENDBRANCH  11  14
BRANCH   9  20
ATOM     20  N   UNL     1       6.589   8.246  17.359  0.00  0.00    +0.000 N 
ATOM     21  C   UNL     1       7.782   8.333  18.062  0.00  0.00    +0.000 C 
ATOM     22  O   UNL     1       8.503   7.390  18.392  0.00  0.00    +0.000 OA
ATOM     23  H   UNL     1       6.090   9.101  17.153  0.00  0.00    +0.000 HD
BRANCH  21  24
ATOM     24  C   UNL     1       8.176   9.757  18.449  0.00  0.00    +0.000 C 
BRANCH  24  25
ATOM     25  O   UNL     1       9.255  10.138  17.608  0.00  0.00    +0.000 OA
BRANCH  25  26
ATOM     26  C   UNL     1       9.901  11.309  17.889  0.00  0.00    +0.000 A 
ATOM     27  C   UNL     1      11.238  11.146  18.263  0.00  0.00    +0.000 A 
ATOM     28  C   UNL     1      12.039  12.249  18.544  0.00  0.00    +0.000 A 
ATOM     29  C   UNL     1      11.505  13.531  18.456  0.00  0.00    +0.000 A 
ATOM     30  C   UNL     1      10.162  13.721  18.090  0.00  0.00    +0.000 A 
ATOM     31  C   UNL     1       9.361  12.596  17.820  0.00  0.00    +0.000 A 
BRANCH  30  32
ATOM     32  C   UNL     1       9.589  15.123  18.020  0.00  0.00    +0.000 C 
BRANCH  32  33
ATOM     33  C   UNL     1       9.812  15.913  19.326  0.00  0.00    +0.000 C 
BRANCH  33  34
ATOM     34  N   UNL     1       9.132  17.223  19.393  0.00  0.00    +0.000 NA
ATOM     35  C   UNL     1       8.088  17.358  18.374  0.00  0.00    +0.000 C 
ATOM     36  C   UNL     1       8.532  17.385  20.725  0.00  0.00    +0.000 C 
ENDBRANCH  33  34
ENDBRANCH  32  33
ENDBRANCH  30  32
ENDBRANCH  25  26
ENDBRANCH  24  25
ENDBRANCH  21  24
ENDBRANCH   9  20
TORSDOF 8
ENDMDL
MODEL 9
REMARK VINA RESULT:      -7.5      6.275     11.225
REMARK  Name = 
REMARK  13 active torsions:
REMARK  status: ('A' for Active; 'I' for Inactive)
REMARK    1  A    between atoms: C_1  and  C_2
REMARK    2  A    between atoms: C_4  and  C_5
REMARK    3  A    between atoms: C_9  and  N_10
REMARK    4  A    between atoms: C_11  and  C_13
REMARK    5  A    between atoms: C_13  and  O_14
REMARK    6  A    between atoms: O_14  and  C_15
REMARK    7  A    between atoms: C_19  and  C_20
REMARK    8  A    between atoms: C_20  and  C_21
REMARK    9  A    between atoms: C_21  and  N_22
REMARK   10  A    between atoms: N_22  and  C_23
REMARK   11  A    between atoms: N_22  and  C_24
REMARK   12  A    between atoms: C_27  and  C_28
REMARK   13  A    between atoms: C_31  and  C_32
REMARK                            x       y       z     vdW  Elec       q    Type
REMARK                         _______ _______ _______ _____ _____    ______ ____
ROOT
ATOM      1  C   UNL     1       4.322  15.120  21.167  0.00  0.00    +0.000 C 
ATOM      2  C   UNL     1       3.069  14.820  20.436  0.00  0.00    +0.000 A 
ATOM      3  C   UNL     1       2.138  15.722  19.893  0.00  0.00    +0.000 A 
ATOM      4  C   UNL     1       1.139  14.939  19.349  0.00  0.00    +0.000 A 
ATOM      5  C   UNL     1      -0.126  15.349  18.685  0.00  0.00    +0.000 C 
ATOM      6  N   UNL     1       1.526  13.620  19.554  0.00  0.00    +0.000 N 
ATOM      7  C   UNL     1       0.840  12.420  19.185  0.00  0.00    +0.000 A 
ATOM      8  C   UNL     1       1.405  11.200  19.529  0.00  0.00    +0.000 A 
ATOM      9  C   UNL     1       0.654  10.075  19.252  0.00  0.00    +0.000 A 
ATOM     10  N   UNL     1      -0.529  10.155  18.642  0.00  0.00    +0.000 NA
ATOM     11  C   UNL     1      -0.981  11.370  18.307  0.00  0.00    +0.000 A 
ATOM     12  N   UNL     1      -0.348  12.520  18.555  0.00  0.00    +0.000 NA
ATOM     13  N   UNL     1       2.708  13.551  20.232  0.00  0.00    +0.000 NA
ENDROOT
BRANCH  11  14
ATOM     14  C   UNL     1      -2.286  11.419  17.667  0.00  0.00    +0.000 A 
ATOM     15  C   UNL     1      -2.705  11.185  16.370  0.00  0.00    +0.000 A 
ATOM     16  C   UNL     1      -4.108  11.359  16.354  0.00  0.00    +0.000 A 
ATOM     17  C   UNL     1      -4.470  11.701  17.638  0.00  0.00    +0.000 A 
ATOM     18  C   UNL     1      -5.769  12.008  18.270  0.00  0.00    +0.000 C 
ATOM     19  O   UNL     1      -3.369  11.744  18.443  0.00  0.00    +0.000 OA
ENDBRANCH  11  14
BRANCH   9  20
ATOM     20  N   UNL     1       1.156   8.825  19.660  0.00  0.00    +0.000 N 
ATOM     21  C   UNL     1       2.082   8.088  18.937  0.00  0.00    +0.000 C 
ATOM     22  O   UNL     1       2.602   8.417  17.870  0.00  0.00    +0.000 OA
ATOM     23  H   UNL     1       0.803   8.438  20.525  0.00  0.00    +0.000 HD
BRANCH  21  24
ATOM     24  C   UNL     1       2.437   6.743  19.567  0.00  0.00    +0.000 C 
BRANCH  24  25
ATOM     25  O   UNL     1       3.779   6.449  19.206  0.00  0.00    +0.000 OA
BRANCH  25  26
ATOM     26  C   UNL     1       3.992   5.456  18.293  0.00  0.00    +0.000 A 
ATOM     27  C   UNL     1       3.118   4.372  18.417  0.00  0.00    +0.000 A 
ATOM     28  C   UNL     1       3.186   3.297  17.535  0.00  0.00    +0.000 A 
ATOM     29  C   UNL     1       4.137   3.296  16.519  0.00  0.00    +0.000 A 
ATOM     30  C   UNL     1       5.033   4.369  16.379  0.00  0.00    +0.000 A 
ATOM     31  C   UNL     1       4.960   5.443  17.285  0.00  0.00    +0.000 A 
BRANCH  30  32
ATOM     32  C   UNL     1       6.078   4.343  15.281  0.00  0.00    +0.000 C 
BRANCH  32  33
ATOM     33  C   UNL     1       5.454   4.473  13.876  0.00  0.00    +0.000 C 
BRANCH  33  34
ATOM     34  N   UNL     1       5.926   3.485  12.884  0.00  0.00    +0.000 NA
ATOM     35  C   UNL     1       4.891   3.146  11.904  0.00  0.00    +0.000 C 
ATOM     36  C   UNL     1       7.096   4.032  12.183  0.00  0.00    +0.000 C 
ENDBRANCH  33  34
ENDBRANCH  32  33
ENDBRANCH  30  32
ENDBRANCH  25  26
ENDBRANCH  24  25
ENDBRANCH  21  24
ENDBRANCH   9  20
TORSDOF 8
ENDMDL
