MODEL 1
REMARK VINA RESULT:      -9.2      0.000      0.000
REMARK  Name = 
REMARK  3 active torsions:
REMARK  status: ('A' for Active; 'I' for Inactive)
REMARK    1  A    between atoms: C_5  and  C_6
REMARK    2  A    between atoms: C_8  and  C_9
REMARK    3  A    between atoms: C_14  and  C_15
REMARK                            x       y       z     vdW  Elec       q    Type
REMARK                         _______ _______ _______ _____ _____    ______ ____
ROOT
ATOM      1  C   UNL     1       6.850   4.768  16.421  0.00  0.00    +0.000 A 
ATOM      2  C   UNL     1       5.625   4.957  17.061  0.00  0.00    +0.000 A 
ATOM      3  C   UNL     1       5.536   5.014  18.459  0.00  0.00    +0.000 A 
ATOM      4  C   UNL     1       6.741   4.886  19.137  0.00  0.00    +0.000 A 
ATOM      5  N   UNL     1       7.929   4.715  18.521  0.00  0.00    +0.000 NA
ATOM      6  N   UNL     1       7.977   4.652  17.157  0.00  0.00    +0.000 NA
ENDROOT
BRANCH   1  11
ATOM      7  F   UNL     1       7.494   4.653  10.886  0.00  0.00    +0.000 F 
ATOM      8  C   UNL     1       7.304   4.647  12.211  0.00  0.00    +0.000 A 
ATOM      9  C   UNL     1       8.042   5.478  13.032  0.00  0.00    +0.000 A 
ATOM     10  N   UNL     1       7.898   5.519  14.380  0.00  0.00    +0.000 NA
ATOM     11  C   UNL     1       6.969   4.685  14.951  0.00  0.00    +0.000 A 
ATOM     12  C   UNL     1       6.196   3.828  14.160  0.00  0.00    +0.000 A 
ATOM     13  F   UNL     1       5.276   3.009  14.688  0.00  0.00    +0.000 F 
ATOM     14  C   UNL     1       6.365   3.808  12.779  0.00  0.00    +0.000 A 
ENDBRANCH   1  11
BRANCH   3  15
ATOM     15  C   UNL     1       4.241   5.207  19.145  0.00  0.00    +0.000 A 
ATOM     16  C   UNL     1       3.572   4.129  19.748  0.00  0.00    +0.000 A 
ATOM     17  C   UNL     1       2.316   4.292  20.328  0.00  0.00    +0.000 A 
ATOM     18  C   UNL     1       1.719   5.548  20.346  0.00  0.00    +0.000 A 
ATOM     19  F   UNL     1       0.480   5.630  20.852  0.00  0.00    +0.000 F 
ATOM     20  C   UNL     1       2.361   6.678  19.826  0.00  0.00    +0.000 A 
ATOM     21  C   UNL     1       3.615   6.471  19.206  0.00  0.00    +0.000 A 
BRANCH  20  22
ATOM     22  C   UNL     1       1.766   8.027  19.889  0.00  0.00    +0.000 A 
ATOM     23  N   UNL     1       1.447   8.467  21.141  0.00  0.00    +0.000 NA
ATOM     24  C   UNL     1       0.898   9.698  21.261  0.00  0.00    +0.000 A 
ATOM     25  C   UNL     1       0.642  10.537  20.189  0.00  0.00    +0.000 A 
ATOM     26  C   UNL     1       0.948  10.077  18.915  0.00  0.00    +0.000 A 
ATOM     27  C   UNL     1       1.498   8.811  18.763  0.00  0.00    +0.000 A 
ATOM     28  F   UNL     1       1.715   8.362  17.518  0.00  0.00    +0.000 F 
ENDBRANCH  20  22
ENDBRANCH   3  15
TORSDOF 3
ENDMDL
MODEL 2
REMARK VINA RESULT:      -9.0      1.033      1.287
REMARK  Name = 
REMARK  3 active torsions:
REMARK  status: ('A' for Active; 'I' for Inactive)
REMARK    1  A    between atoms: C_5  and  C_6
REMARK    2  A    between atoms: C_8  and  C_9
REMARK    3  A    between atoms: C_14  and  C_15
REMARK                            x       y       z     vdW  Elec       q    Type
REMARK                         _______ _______ _______ _____ _____    ______ ____
ROOT
ATOM      1  C   UNL     1       6.799   4.876  16.539  0.00  0.00    +0.000 A 
ATOM      2  C   UNL     1       5.571   5.083  17.169  0.00  0.00    +0.000 A 
ATOM      3  C   UNL     1       5.481   5.202  18.562  0.00  0.00    +0.000 A 
ATOM      4  C   UNL     1       6.685   5.117  19.247  0.00  0.00    +0.000 A 
ATOM      5  N   UNL     1       7.876   4.928  18.640  0.00  0.00    +0.000 NA
ATOM      6  N   UNL     1       7.926   4.803  17.281  0.00  0.00    +0.000 NA
ENDROOT
BRANCH   1  11
ATOM      7  F   UNL     1       7.455   4.513  11.016  0.00  0.00    +0.000 F 
ATOM      8  C   UNL     1       7.262   4.566  12.340  0.00  0.00    +0.000 A 
ATOM      9  C   UNL     1       8.005   5.427  13.126  0.00  0.00    +0.000 A 
ATOM     10  N   UNL     1       7.858   5.528  14.470  0.00  0.00    +0.000 NA
ATOM     11  C   UNL     1       6.921   4.728  15.075  0.00  0.00    +0.000 A 
ATOM     12  C   UNL     1       6.142   3.843  14.319  0.00  0.00    +0.000 A 
ATOM     13  F   UNL     1       5.214   3.056  14.881  0.00  0.00    +0.000 F 
ATOM     14  C   UNL     1       6.314   3.761  12.941  0.00  0.00    +0.000 A 
ENDBRANCH   1  11
BRANCH   3  15
ATOM     15  C   UNL     1       4.183   5.415  19.238  0.00  0.00    +0.000 A 
ATOM     16  C   UNL     1       3.539   4.367  19.917  0.00  0.00    +0.000 A 
ATOM     17  C   UNL     1       2.280   4.544  20.489  0.00  0.00    +0.000 A 
ATOM     18  C   UNL     1       1.656   5.784  20.421  0.00  0.00    +0.000 A 
ATOM     19  F   UNL     1       0.416   5.874  20.924  0.00  0.00    +0.000 F 
ATOM     20  C   UNL     1       2.272   6.888  19.820  0.00  0.00    +0.000 A 
ATOM     21  C   UNL     1       3.529   6.666  19.212  0.00  0.00    +0.000 A 
BRANCH  20  22
ATOM     22  C   UNL     1       1.647   8.226  19.791  0.00  0.00    +0.000 A 
ATOM     23  N   UNL     1       1.558   8.801  18.556  0.00  0.00    +0.000 NA
ATOM     24  C   UNL     1       0.994  10.028  18.468  0.00  0.00    +0.000 A 
ATOM     25  C   UNL     1       0.501  10.732  19.554  0.00  0.00    +0.000 A 
ATOM     26  C   UNL     1       0.613  10.152  20.810  0.00  0.00    +0.000 A 
ATOM     27  C   UNL     1       1.202   8.900  20.931  0.00  0.00    +0.000 A 
ATOM     28  F   UNL     1       1.366   8.395  22.163  0.00  0.00    +0.000 F 
ENDBRANCH  20  22
ENDBRANCH   3  15
TORSDOF 3
ENDMDL
MODEL 3
REMARK VINA RESULT:      -8.9      3.011      9.388
REMARK  Name = 
REMARK  3 active torsions:
REMARK  status: ('A' for Active; 'I' for Inactive)
REMARK    1  A    between atoms: C_5  and  C_6
REMARK    2  A    between atoms: C_8  and  C_9
REMARK    3  A    between atoms: C_14  and  C_15
REMARK                            x       y       z     vdW  Elec       q    Type
REMARK                         _______ _______ _______ _____ _____    ______ ____
ROOT
ATOM      1  C   UNL     1       0.388  10.268  20.072  0.00  0.00    +0.000 A 
ATOM      2  C   UNL     1       0.933   8.989  20.200  0.00  0.00    +0.000 A 
ATOM      3  C   UNL     1       1.771   8.455  19.211  0.00  0.00    +0.000 A 
ATOM      4  C   UNL     1       2.022   9.288  18.129  0.00  0.00    +0.000 A 
ATOM      5  N   UNL     1       1.506  10.529  18.008  0.00  0.00    +0.000 NA
ATOM      6  N   UNL     1       0.683  11.013  18.985  0.00  0.00    +0.000 NA
ENDROOT
BRANCH   1  11
ATOM      7  F   UNL     1      -3.111  12.625  23.713  0.00  0.00    +0.000 F 
ATOM      8  C   UNL     1      -2.253  12.031  22.875  0.00  0.00    +0.000 A 
ATOM      9  C   UNL     1      -2.198  12.401  21.545  0.00  0.00    +0.000 A 
ATOM     10  N   UNL     1      -1.353  11.839  20.646  0.00  0.00    +0.000 NA
ATOM     11  C   UNL     1      -0.512  10.847  21.089  0.00  0.00    +0.000 A 
ATOM     12  C   UNL     1      -0.530  10.442  22.429  0.00  0.00    +0.000 A 
ATOM     13  F   UNL     1       0.285   9.483  22.892  0.00  0.00    +0.000 F 
ATOM     14  C   UNL     1      -1.407  11.037  23.329  0.00  0.00    +0.000 A 
ENDBRANCH   1  11
BRANCH   3  15
ATOM     15  C   UNL     1       2.346   7.099  19.335  0.00  0.00    +0.000 A 
ATOM     16  C   UNL     1       1.856   6.187  20.284  0.00  0.00    +0.000 A 
ATOM     17  C   UNL     1       2.446   4.936  20.456  0.00  0.00    +0.000 A 
ATOM     18  C   UNL     1       3.519   4.560  19.656  0.00  0.00    +0.000 A 
ATOM     19  F   UNL     1       4.092   3.376  19.916  0.00  0.00    +0.000 F 
ATOM     20  C   UNL     1       4.013   5.393  18.645  0.00  0.00    +0.000 A 
ATOM     21  C   UNL     1       3.421   6.672  18.525  0.00  0.00    +0.000 A 
BRANCH  20  22
ATOM     22  C   UNL     1       5.113   4.986  17.749  0.00  0.00    +0.000 A 
ATOM     23  N   UNL     1       4.729   4.531  16.521  0.00  0.00    +0.000 NA
ATOM     24  C   UNL     1       5.696   4.143  15.657  0.00  0.00    +0.000 A 
ATOM     25  C   UNL     1       7.050   4.182  15.946  0.00  0.00    +0.000 A 
ATOM     26  C   UNL     1       7.435   4.625  17.204  0.00  0.00    +0.000 A 
ATOM     27  C   UNL     1       6.462   5.014  18.115  0.00  0.00    +0.000 A 
ATOM     28  F   UNL     1       6.856   5.367  19.348  0.00  0.00    +0.000 F 
ENDBRANCH  20  22
ENDBRANCH   3  15
TORSDOF 3
ENDMDL
MODEL 4
REMARK VINA RESULT:      -8.8      4.175      8.912
REMARK  Name = 
REMARK  3 active torsions:
REMARK  status: ('A' for Active; 'I' for Inactive)
REMARK    1  A    between atoms: C_5  and  C_6
REMARK    2  A    between atoms: C_8  and  C_9
REMARK    3  A    between atoms: C_14  and  C_15
REMARK                            x       y       z     vdW  Elec       q    Type
REMARK                         _______ _______ _______ _____ _____    ______ ____
ROOT
ATOM      1  C   UNL     1      -0.581  10.955  18.296  0.00  0.00    +0.000 A 
ATOM      2  C   UNL     1       0.121   9.753  18.194  0.00  0.00    +0.000 A 
ATOM      3  C   UNL     1       1.515   9.713  18.337  0.00  0.00    +0.000 A 
ATOM      4  C   UNL     1       2.123  10.933  18.600  0.00  0.00    +0.000 A 
ATOM      5  N   UNL     1       1.445  12.095  18.711  0.00  0.00    +0.000 NA
ATOM      6  N   UNL     1       0.088  12.100  18.553  0.00  0.00    +0.000 NA
ENDROOT
BRANCH   1  11
ATOM      7  F   UNL     1      -6.122  11.404  17.892  0.00  0.00    +0.000 F 
ATOM      8  C   UNL     1      -4.791  11.265  17.951  0.00  0.00    +0.000 A 
ATOM      9  C   UNL     1      -4.058  11.915  18.925  0.00  0.00    +0.000 A 
ATOM     10  N   UNL     1      -2.711  11.817  19.038  0.00  0.00    +0.000 NA
ATOM     11  C   UNL     1      -2.047  11.029  18.131  0.00  0.00    +0.000 A 
ATOM     12  C   UNL     1      -2.748  10.348  17.128  0.00  0.00    +0.000 A 
ATOM     13  F   UNL     1      -2.128   9.565  16.234  0.00  0.00    +0.000 F 
ATOM     14  C   UNL     1      -4.131  10.467  17.037  0.00  0.00    +0.000 A 
ENDBRANCH   1  11
BRANCH   3  15
ATOM     15  C   UNL     1       2.267   8.445  18.223  0.00  0.00    +0.000 A 
ATOM     16  C   UNL     1       3.408   8.350  17.408  0.00  0.00    +0.000 A 
ATOM     17  C   UNL     1       4.074   7.138  17.238  0.00  0.00    +0.000 A 
ATOM     18  C   UNL     1       3.632   6.003  17.909  0.00  0.00    +0.000 A 
ATOM     19  F   UNL     1       4.267   4.851  17.650  0.00  0.00    +0.000 F 
ATOM     20  C   UNL     1       2.544   6.044  18.790  0.00  0.00    +0.000 A 
ATOM     21  C   UNL     1       1.863   7.279  18.907  0.00  0.00    +0.000 A 
BRANCH  20  22
ATOM     22  C   UNL     1       2.098   4.862  19.554  0.00  0.00    +0.000 A 
ATOM     23  N   UNL     1       2.527   4.807  20.848  0.00  0.00    +0.000 NA
ATOM     24  C   UNL     1       2.148   3.746  21.597  0.00  0.00    +0.000 A 
ATOM     25  C   UNL     1       1.351   2.714  21.128  0.00  0.00    +0.000 A 
ATOM     26  C   UNL     1       0.935   2.764  19.805  0.00  0.00    +0.000 A 
ATOM     27  C   UNL     1       1.322   3.835  19.010  0.00  0.00    +0.000 A 
ATOM     28  F   UNL     1       0.969   3.821  17.716  0.00  0.00    +0.000 F 
ENDBRANCH  20  22
ENDBRANCH   3  15
TORSDOF 3
ENDMDL
MODEL 5
REMARK VINA RESULT:      -8.7      2.971      9.446
REMARK  Name = 
REMARK  3 active torsions:
REMARK  status: ('A' for Active; 'I' for Inactive)
REMARK    1  A    between atoms: C_5  and  C_6
REMARK    2  A    between atoms: C_8  and  C_9
REMARK    3  A    between atoms: C_14  and  C_15
REMARK                            x       y       z     vdW  Elec       q    Type
REMARK                         _______ _______ _______ _____ _____    ______ ____
ROOT
ATOM      1  C   UNL     1       0.268  10.576  20.039  0.00  0.00    +0.000 A 
ATOM      2  C   UNL     1       0.803   9.291  20.130  0.00  0.00    +0.000 A 
ATOM      3  C   UNL     1       1.695   8.806  19.163  0.00  0.00    +0.000 A 
ATOM      4  C   UNL     1       2.008   9.693  18.143  0.00  0.00    +0.000 A 
ATOM      5  N   UNL     1       1.501  10.941  18.058  0.00  0.00    +0.000 NA
ATOM      6  N   UNL     1       0.625  11.377  19.011  0.00  0.00    +0.000 NA
ENDROOT
BRANCH   1  11
ATOM      7  F   UNL     1      -3.462  12.721  23.582  0.00  0.00    +0.000 F 
ATOM      8  C   UNL     1      -2.545  12.182  22.769  0.00  0.00    +0.000 A 
ATOM      9  C   UNL     1      -2.536  12.484  21.420  0.00  0.00    +0.000 A 
ATOM     10  N   UNL     1      -1.636  11.972  20.545  0.00  0.00    +0.000 NA
ATOM     11  C   UNL     1      -0.689  11.106  21.032  0.00  0.00    +0.000 A 
ATOM     12  C   UNL     1      -0.656  10.773  22.391  0.00  0.00    +0.000 A 
ATOM     13  F   UNL     1       0.262   9.938  22.896  0.00  0.00    +0.000 F 
ATOM     14  C   UNL     1      -1.592  11.315  23.267  0.00  0.00    +0.000 A 
ENDBRANCH   1  11
BRANCH   3  15
ATOM     15  C   UNL     1       2.261   7.443  19.248  0.00  0.00    +0.000 A 
ATOM     16  C   UNL     1       1.834   6.541  20.237  0.00  0.00    +0.000 A 
ATOM     17  C   UNL     1       2.420   5.283  20.368  0.00  0.00    +0.000 A 
ATOM     18  C   UNL     1       3.422   4.890  19.489  0.00  0.00    +0.000 A 
ATOM     19  F   UNL     1       3.998   3.700  19.708  0.00  0.00    +0.000 F 
ATOM     20  C   UNL     1       3.845   5.712  18.437  0.00  0.00    +0.000 A 
ATOM     21  C   UNL     1       3.262   6.999  18.358  0.00  0.00    +0.000 A 
BRANCH  20  22
ATOM     22  C   UNL     1       4.867   5.287  17.460  0.00  0.00    +0.000 A 
ATOM     23  N   UNL     1       6.012   6.030  17.451  0.00  0.00    +0.000 NA
ATOM     24  C   UNL     1       6.985   5.687  16.576  0.00  0.00    +0.000 A 
ATOM     25  C   UNL     1       6.887   4.626  15.691  0.00  0.00    +0.000 A 
ATOM     26  C   UNL     1       5.713   3.886  15.688  0.00  0.00    +0.000 A 
ATOM     27  C   UNL     1       4.692   4.227  16.566  0.00  0.00    +0.000 A 
ATOM     28  F   UNL     1       3.540   3.544  16.492  0.00  0.00    +0.000 F 
ENDBRANCH  20  22
ENDBRANCH   3  15
TORSDOF 3
ENDMDL
MODEL 6
REMARK VINA RESULT:      -8.7      3.010      9.417
REMARK  Name = 
REMARK  3 active torsions:
REMARK  status: ('A' for Active; 'I' for Inactive)
REMARK    1  A    between atoms: C_5  and  C_6
REMARK    2  A    between atoms: C_8  and  C_9
REMARK    3  A    between atoms: C_14  and  C_15
REMARK                            x       y       z     vdW  Elec       q    Type
REMARK                         _______ _______ _______ _____ _____    ______ ____
ROOT
ATOM      1  C   UNL     1       0.403  10.324  19.978  0.00  0.00    +0.000 A 
ATOM      2  C   UNL     1       0.936   9.042  20.118  0.00  0.00    +0.000 A 
ATOM      3  C   UNL     1       1.802   8.506  19.154  0.00  0.00    +0.000 A 
ATOM      4  C   UNL     1       2.092   9.342  18.084  0.00  0.00    +0.000 A 
ATOM      5  N   UNL     1       1.588  10.587  17.952  0.00  0.00    +0.000 NA
ATOM      6  N   UNL     1       0.737  11.072  18.904  0.00  0.00    +0.000 NA
ENDROOT
BRANCH   1  11
ATOM      7  F   UNL     1      -2.992  12.350  23.906  0.00  0.00    +0.000 F 
ATOM      8  C   UNL     1      -2.198  11.893  22.930  0.00  0.00    +0.000 A 
ATOM      9  C   UNL     1      -1.245  10.927  23.191  0.00  0.00    +0.000 A 
ATOM     10  N   UNL     1      -0.412  10.423  22.249  0.00  0.00    +0.000 NA
ATOM     11  C   UNL     1      -0.526  10.905  20.968  0.00  0.00    +0.000 A 
ATOM     12  C   UNL     1      -1.479  11.881  20.654  0.00  0.00    +0.000 A 
ATOM     13  F   UNL     1      -1.619  12.364  19.412  0.00  0.00    +0.000 F 
ATOM     14  C   UNL     1      -2.322  12.379  21.643  0.00  0.00    +0.000 A 
ENDBRANCH   1  11
BRANCH   3  15
ATOM     15  C   UNL     1       2.365   7.147  19.290  0.00  0.00    +0.000 A 
ATOM     16  C   UNL     1       1.871   6.250  20.252  0.00  0.00    +0.000 A 
ATOM     17  C   UNL     1       2.450   4.996  20.435  0.00  0.00    +0.000 A 
ATOM     18  C   UNL     1       3.515   4.600  19.634  0.00  0.00    +0.000 A 
ATOM     19  F   UNL     1       4.078   3.414  19.904  0.00  0.00    +0.000 F 
ATOM     20  C   UNL     1       4.012   5.417  18.611  0.00  0.00    +0.000 A 
ATOM     21  C   UNL     1       3.431   6.700  18.479  0.00  0.00    +0.000 A 
BRANCH  20  22
ATOM     22  C   UNL     1       5.104   4.989  17.715  0.00  0.00    +0.000 A 
ATOM     23  N   UNL     1       4.710   4.531  16.491  0.00  0.00    +0.000 NA
ATOM     24  C   UNL     1       5.669   4.125  15.626  0.00  0.00    +0.000 A 
ATOM     25  C   UNL     1       7.024   4.148  15.910  0.00  0.00    +0.000 A 
ATOM     26  C   UNL     1       7.419   4.594  17.164  0.00  0.00    +0.000 A 
ATOM     27  C   UNL     1       6.454   5.002  18.076  0.00  0.00    +0.000 A 
ATOM     28  F   UNL     1       6.856   5.358  19.305  0.00  0.00    +0.000 F 
ENDBRANCH  20  22
ENDBRANCH   3  15
TORSDOF 3
ENDMDL
MODEL 7
REMARK VINA RESULT:      -8.7      3.463      5.931
REMARK  Name = 
REMARK  3 active torsions:
REMARK  status: ('A' for Active; 'I' for Inactive)
REMARK    1  A    between atoms: C_5  and  C_6
REMARK    2  A    between atoms: C_8  and  C_9
REMARK    3  A    between atoms: C_14  and  C_15
REMARK                            x       y       z     vdW  Elec       q    Type
REMARK                         _______ _______ _______ _____ _____    ______ ____
ROOT
ATOM      1  C   UNL     1       2.821   6.869  18.668  0.00  0.00    +0.000 A 
ATOM      2  C   UNL     1       2.263   8.101  18.327  0.00  0.00    +0.000 A 
ATOM      3  C   UNL     1       1.467   8.813  19.235  0.00  0.00    +0.000 A 
ATOM      4  C   UNL     1       1.298   8.214  20.476  0.00  0.00    +0.000 A 
ATOM      5  N   UNL     1       1.846   7.028  20.812  0.00  0.00    +0.000 NA
ATOM      6  N   UNL     1       2.606   6.355  19.898  0.00  0.00    +0.000 NA
ENDROOT
BRANCH   1  11
ATOM      7  F   UNL     1       6.076   4.159  15.044  0.00  0.00    +0.000 F 
ATOM      8  C   UNL     1       5.270   4.768  15.923  0.00  0.00    +0.000 A 
ATOM      9  C   UNL     1       5.397   6.121  16.175  0.00  0.00    +0.000 A 
ATOM     10  N   UNL     1       4.615   6.795  17.052  0.00  0.00    +0.000 NA
ATOM     11  C   UNL     1       3.648   6.089  17.724  0.00  0.00    +0.000 A 
ATOM     12  C   UNL     1       3.479   4.718  17.500  0.00  0.00    +0.000 A 
ATOM     13  F   UNL     1       2.539   4.004  18.134  0.00  0.00    +0.000 F 
ATOM     14  C   UNL     1       4.297   4.051  16.592  0.00  0.00    +0.000 A 
ENDBRANCH   1  11
BRANCH   3  15
ATOM     15  C   UNL     1       0.865  10.116  18.881  0.00  0.00    +0.000 A 
ATOM     16  C   UNL     1       1.644  11.284  18.830  0.00  0.00    +0.000 A 
ATOM     17  C   UNL     1       1.067  12.526  18.571  0.00  0.00    +0.000 A 
ATOM     18  C   UNL     1      -0.298  12.618  18.324  0.00  0.00    +0.000 A 
ATOM     19  F   UNL     1      -0.809  13.846  18.154  0.00  0.00    +0.000 F 
ATOM     20  C   UNL     1      -1.120  11.485  18.290  0.00  0.00    +0.000 A 
ATOM     21  C   UNL     1      -0.512  10.245  18.599  0.00  0.00    +0.000 A 
BRANCH  20  22
ATOM     22  C   UNL     1      -2.560  11.559  17.972  0.00  0.00    +0.000 A 
ATOM     23  N   UNL     1      -3.368  11.929  19.007  0.00  0.00    +0.000 NA
ATOM     24  C   UNL     1      -4.698  12.014  18.775  0.00  0.00    +0.000 A 
ATOM     25  C   UNL     1      -5.286  11.749  17.549  0.00  0.00    +0.000 A 
ATOM     26  C   UNL     1      -4.463  11.352  16.504  0.00  0.00    +0.000 A 
ATOM     27  C   UNL     1      -3.095  11.242  16.721  0.00  0.00    +0.000 A 
ATOM     28  F   UNL     1      -2.332  10.785  15.717  0.00  0.00    +0.000 F 
ENDBRANCH  20  22
ENDBRANCH   3  15
TORSDOF 3
ENDMDL
MODEL 8
REMARK VINA RESULT:      -8.6      3.869      9.316
REMARK  Name = 
REMARK  3 active torsions:
REMARK  status: ('A' for Active; 'I' for Inactive)
REMARK    1  A    between atoms: C_5  and  C_6
REMARK    2  A    between atoms: C_8  and  C_9
REMARK    3  A    between atoms: C_14  and  C_15
REMARK                            x       y       z     vdW  Elec       q    Type
REMARK                         _______ _______ _______ _____ _____    ______ ____
ROOT
ATOM      1  C   UNL     1      -1.148  11.361  18.306  0.00  0.00    +0.000 A 
ATOM      2  C   UNL     1      -0.573  10.132  18.630  0.00  0.00    +0.000 A 
ATOM      3  C   UNL     1       0.792  10.026  18.928  0.00  0.00    +0.000 A 
ATOM      4  C   UNL     1       1.505  11.217  18.892  0.00  0.00    +0.000 A 
ATOM      5  N   UNL     1       0.949  12.409  18.590  0.00  0.00    +0.000 NA
ATOM      6  N   UNL     1      -0.383  12.474  18.292  0.00  0.00    +0.000 NA
ENDROOT
BRANCH   1  11
ATOM      7  F   UNL     1      -6.597  11.961  17.296  0.00  0.00    +0.000 F 
ATOM      8  C   UNL     1      -5.282  11.802  17.492  0.00  0.00    +0.000 A 
ATOM      9  C   UNL     1      -4.717  12.066  18.725  0.00  0.00    +0.000 A 
ATOM     10  N   UNL     1      -3.395  11.925  18.988  0.00  0.00    +0.000 NA
ATOM     11  C   UNL     1      -2.580  11.499  17.969  0.00  0.00    +0.000 A 
ATOM     12  C   UNL     1      -3.107  11.216  16.703  0.00  0.00    +0.000 A 
ATOM     13  F   UNL     1      -2.337  10.791  15.691  0.00  0.00    +0.000 F 
ATOM     14  C   UNL     1      -4.469  11.369  16.462  0.00  0.00    +0.000 A 
ENDBRANCH   1  11
BRANCH   3  15
ATOM     15  C   UNL     1       1.411   8.726  19.265  0.00  0.00    +0.000 A 
ATOM     16  C   UNL     1       1.198   8.125  20.517  0.00  0.00    +0.000 A 
ATOM     17  C   UNL     1       1.841   6.939  20.866  0.00  0.00    +0.000 A 
ATOM     18  C   UNL     1       2.684   6.312  19.956  0.00  0.00    +0.000 A 
ATOM     19  F   UNL     1       3.331   5.215  20.373  0.00  0.00    +0.000 F 
ATOM     20  C   UNL     1       2.886   6.820  18.666  0.00  0.00    +0.000 A 
ATOM     21  C   UNL     1       2.254   8.048  18.358  0.00  0.00    +0.000 A 
BRANCH  20  22
ATOM     22  C   UNL     1       3.732   6.137  17.668  0.00  0.00    +0.000 A 
ATOM     23  N   UNL     1       4.684   6.917  17.079  0.00  0.00    +0.000 NA
ATOM     24  C   UNL     1       5.490   6.344  16.155  0.00  0.00    +0.000 A 
ATOM     25  C   UNL     1       5.406   5.014  15.775  0.00  0.00    +0.000 A 
ATOM     26  C   UNL     1       4.422   4.231  16.361  0.00  0.00    +0.000 A 
ATOM     27  C   UNL     1       3.571   4.798  17.301  0.00  0.00    +0.000 A 
ATOM     28  F   UNL     1       2.582   4.040  17.797  0.00  0.00    +0.000 F 
ENDBRANCH  20  22
ENDBRANCH   3  15
TORSDOF 3
ENDMDL
MODEL 9
REMARK VINA RESULT:      -8.6      4.155      8.959
REMARK  Name = 
REMARK  3 active torsions:
REMARK  status: ('A' for Active; 'I' for Inactive)
REMARK    1  A    between atoms: C_5  and  C_6
REMARK    2  A    between atoms: C_8  and  C_9
REMARK    3  A    between atoms: C_14  and  C_15
REMARK                            x       y       z     vdW  Elec       q    Type
REMARK                         _______ _______ _______ _____ _____    ______ ____
ROOT
ATOM      1  C   UNL     1      -0.471  10.945  18.218  0.00  0.00    +0.000 A 
ATOM      2  C   UNL     1       0.201   9.727  18.118  0.00  0.00    +0.000 A 
ATOM      3  C   UNL     1       1.590   9.647  18.292  0.00  0.00    +0.000 A 
ATOM      4  C   UNL     1       2.224  10.848  18.581  0.00  0.00    +0.000 A 
ATOM      5  N   UNL     1       1.575  12.026  18.689  0.00  0.00    +0.000 NA
ATOM      6  N   UNL     1       0.223  12.069  18.502  0.00  0.00    +0.000 NA
ENDROOT
BRANCH   1  11
ATOM      7  F   UNL     1      -5.948  11.251  17.232  0.00  0.00    +0.000 F 
ATOM      8  C   UNL     1      -4.639  11.203  17.511  0.00  0.00    +0.000 A 
ATOM      9  C   UNL     1      -3.756  10.595  16.639  0.00  0.00    +0.000 A 
ATOM     10  N   UNL     1      -2.422  10.512  16.863  0.00  0.00    +0.000 NA
ATOM     11  C   UNL     1      -1.930  11.061  18.022  0.00  0.00    +0.000 A 
ATOM     12  C   UNL     1      -2.786  11.690  18.933  0.00  0.00    +0.000 A 
ATOM     13  F   UNL     1      -2.334  12.243  20.068  0.00  0.00    +0.000 F 
ATOM     14  C   UNL     1      -4.152  11.761  18.677  0.00  0.00    +0.000 A 
ENDBRANCH   1  11
BRANCH   3  15
ATOM     15  C   UNL     1       2.311   8.361  18.181  0.00  0.00    +0.000 A 
ATOM     16  C   UNL     1       3.423   8.224  17.334  0.00  0.00    +0.000 A 
ATOM     17  C   UNL     1       4.057   6.994  17.168  0.00  0.00    +0.000 A 
ATOM     18  C   UNL     1       3.611   5.884  17.875  0.00  0.00    +0.000 A 
ATOM     19  F   UNL     1       4.212   4.713  17.621  0.00  0.00    +0.000 F 
ATOM     20  C   UNL     1       2.552   5.966  18.788  0.00  0.00    +0.000 A 
ATOM     21  C   UNL     1       1.902   7.218  18.901  0.00  0.00    +0.000 A 
BRANCH  20  22
ATOM     22  C   UNL     1       2.104   4.810  19.588  0.00  0.00    +0.000 A 
ATOM     23  N   UNL     1       2.538   4.792  20.882  0.00  0.00    +0.000 NA
ATOM     24  C   UNL     1       2.158   3.755  21.664  0.00  0.00    +0.000 A 
ATOM     25  C   UNL     1       1.354   2.714  21.230  0.00  0.00    +0.000 A 
ATOM     26  C   UNL     1       0.933   2.725  19.907  0.00  0.00    +0.000 A 
ATOM     27  C   UNL     1       1.322   3.770  19.079  0.00  0.00    +0.000 A 
ATOM     28  F   UNL     1       0.963   3.719  17.787  0.00  0.00    +0.000 F 
ENDBRANCH  20  22
ENDBRANCH   3  15
TORSDOF 3
ENDMDL
