MODEL 1
REMARK VINA RESULT:      -7.9      0.000      0.000
REMARK  Name = 
REMARK  11 active torsions:
REMARK  status: ('A' for Active; 'I' for Inactive)
REMARK    1  A    between atoms: C_1  and  C_2
REMARK    2  A    between atoms: C_2  and  O_4
REMARK    3  A    between atoms: O_4  and  N_5
REMARK    4  A    between atoms: C_9  and  P_10
REMARK    5  A    between atoms: P_10  and  N_12
REMARK    6  A    between atoms: P_10  and  O_20
REMARK    7  A    between atoms: N_12  and  C_13
REMARK    8  A    between atoms: C_13  and  C_14
REMARK    9  A    between atoms: O_20  and  C_21
REMARK   10  A    between atoms: C_21  and  C_22
REMARK   11  A    between atoms: C_25  and  N_26
REMARK                            x       y       z     vdW  Elec       q    Type
REMARK                         _______ _______ _______ _____ _____    ______ ____
ROOT
ATOM      1  P   UNL     1       4.348   6.450  18.083  0.00  0.00    +0.000 P 
ATOM      2  O   UNL     1       4.431   5.995  19.513  0.00  0.00    +0.000 OA
ENDROOT
BRANCH   1   7
ATOM      3  N   UNL     1       6.693   5.252  15.518  0.00  0.00    +0.000 N 
ATOM      4  C   UNL     1       7.491   4.349  16.327  0.00  0.00    +0.000 C 
ATOM      5  C   UNL     1       7.340   4.580  17.819  0.00  0.00    +0.000 C 
ATOM      6  C   UNL     1       7.173   6.057  18.139  0.00  0.00    +0.000 C 
ATOM      7  C   UNL     1       6.011   6.720  17.380  0.00  0.00    +0.000 C 
ATOM      8  C   UNL     1       5.928   6.315  15.938  0.00  0.00    +0.000 C 
ATOM      9  O   UNL     1       5.152   6.910  15.185  0.00  0.00    +0.000 OA
BRANCH   3  10
ATOM     10  O   UNL     1       6.076   4.577  14.430  0.00  0.00    +0.000 OA
BRANCH  10  12
ATOM     11  C   UNL     1       6.313   3.480  12.399  0.00  0.00    +0.000 C 
ATOM     12  C   UNL     1       6.824   4.579  13.281  0.00  0.00    +0.000 C 
ATOM     13  O   UNL     1       7.737   5.346  13.012  0.00  0.00    +0.000 OA
ENDBRANCH  10  12
ENDBRANCH   3  10
ENDBRANCH   1   7
BRANCH   1  14
ATOM     14  N   UNL     1       3.469   7.819  17.890  0.00  0.00    +0.000 NA
ATOM     15  H   UNL     1       3.827   8.438  17.171  0.00  0.00    +0.000 HD
BRANCH  14  16
ATOM     16  C   UNL     1       2.022   7.758  17.845  0.00  0.00    +0.000 C 
BRANCH  16  17
ATOM     17  C   UNL     1       1.377   8.687  18.835  0.00  0.00    +0.000 A 
ATOM     18  C   UNL     1       1.481   8.440  20.214  0.00  0.00    +0.000 A 
ATOM     19  C   UNL     1       0.893   9.307  21.134  0.00  0.00    +0.000 A 
ATOM     20  C   UNL     1       0.192  10.424  20.686  0.00  0.00    +0.000 A 
ATOM     21  C   UNL     1       0.081  10.678  19.320  0.00  0.00    +0.000 A 
ATOM     22  C   UNL     1       0.666   9.811  18.397  0.00  0.00    +0.000 A 
ENDBRANCH  16  17
ENDBRANCH  14  16
ENDBRANCH   1  14
BRANCH   1  23
ATOM     23  O   UNL     1       3.615   5.369  17.124  0.00  0.00    +0.000 OA
BRANCH  23  24
ATOM     24  C   UNL     1       3.775   3.988  17.448  0.00  0.00    +0.000 C 
BRANCH  24  25
ATOM     25  C   UNL     1       2.686   3.571  18.378  0.00  0.00    +0.000 A 
ATOM     26  C   UNL     1       1.329   3.355  18.221  0.00  0.00    +0.000 A 
ATOM     27  C   UNL     1       0.828   2.907  19.471  0.00  0.00    +0.000 A 
ATOM     28  C   UNL     1       1.920   2.862  20.303  0.00  0.00    +0.000 A 
ATOM     29  O   UNL     1       3.054   3.266  19.666  0.00  0.00    +0.000 OA
BRANCH  28  30
ATOM     30  N   UNL     1       2.038   2.474  21.681  0.00  0.00    +0.000 N 
ATOM     31  O   UNL     1       0.992   2.504  22.346  0.00  0.00    +0.000 OA
ATOM     32  O   UNL     1       3.150   2.132  22.095  0.00  0.00    +0.000 OA
ENDBRANCH  28  30
ENDBRANCH  24  25
ENDBRANCH  23  24
ENDBRANCH   1  23
TORSDOF 10
ENDMDL
MODEL 2
REMARK VINA RESULT:      -7.8      2.722      5.277
REMARK  Name = 
REMARK  11 active torsions:
REMARK  status: ('A' for Active; 'I' for Inactive)
REMARK    1  A    between atoms: C_1  and  C_2
REMARK    2  A    between atoms: C_2  and  O_4
REMARK    3  A    between atoms: O_4  and  N_5
REMARK    4  A    between atoms: C_9  and  P_10
REMARK    5  A    between atoms: P_10  and  N_12
REMARK    6  A    between atoms: P_10  and  O_20
REMARK    7  A    between atoms: N_12  and  C_13
REMARK    8  A    between atoms: C_13  and  C_14
REMARK    9  A    between atoms: O_20  and  C_21
REMARK   10  A    between atoms: C_21  and  C_22
REMARK   11  A    between atoms: C_25  and  N_26
REMARK                            x       y       z     vdW  Elec       q    Type
REMARK                         _______ _______ _______ _____ _____    ______ ____
ROOT
ATOM      1  P   UNL     1       2.970   6.819  18.554  0.00  0.00    +0.000 P 
ATOM      2  O   UNL     1       2.138   5.971  17.635  0.00  0.00    +0.000 OA
ENDROOT
BRANCH   1   7
ATOM      3  N   UNL     1       5.513   5.050  16.575  0.00  0.00    +0.000 N 
ATOM      4  C   UNL     1       5.385   3.725  17.152  0.00  0.00    +0.000 C 
ATOM      5  C   UNL     1       4.662   3.713  18.487  0.00  0.00    +0.000 C 
ATOM      6  C   UNL     1       4.989   4.951  19.307  0.00  0.00    +0.000 C 
ATOM      7  C   UNL     1       4.711   6.269  18.565  0.00  0.00    +0.000 C 
ATOM      8  C   UNL     1       5.155   6.255  17.132  0.00  0.00    +0.000 C 
ATOM      9  O   UNL     1       5.147   7.306  16.485  0.00  0.00    +0.000 OA
BRANCH   3  10
ATOM     10  O   UNL     1       5.263   5.040  15.176  0.00  0.00    +0.000 OA
BRANCH  10  12
ATOM     11  C   UNL     1       6.001   3.755  13.390  0.00  0.00    +0.000 C 
ATOM     12  C   UNL     1       6.376   4.781  14.417  0.00  0.00    +0.000 C 
ATOM     13  O   UNL     1       7.476   5.300  14.541  0.00  0.00    +0.000 OA
ENDBRANCH  10  12
ENDBRANCH   3  10
ENDBRANCH   1   7
BRANCH   1  14
ATOM     14  N   UNL     1       2.417   6.836  20.097  0.00  0.00    +0.000 NA
ATOM     15  H   UNL     1       2.392   7.760  20.513  0.00  0.00    +0.000 HD
BRANCH  14  16
ATOM     16  C   UNL     1       1.239   6.075  20.458  0.00  0.00    +0.000 C 
BRANCH  16  17
ATOM     17  C   UNL     1       1.506   4.596  20.514  0.00  0.00    +0.000 A 
ATOM     18  C   UNL     1       2.314   4.058  21.529  0.00  0.00    +0.000 A 
ATOM     19  C   UNL     1       2.553   2.686  21.589  0.00  0.00    +0.000 A 
ATOM     20  C   UNL     1       1.994   1.840  20.634  0.00  0.00    +0.000 A 
ATOM     21  C   UNL     1       1.193   2.364  19.620  0.00  0.00    +0.000 A 
ATOM     22  C   UNL     1       0.953   3.737  19.557  0.00  0.00    +0.000 A 
ENDBRANCH  16  17
ENDBRANCH  14  16
ENDBRANCH   1  14
BRANCH   1  23
ATOM     23  O   UNL     1       2.986   8.381  18.121  0.00  0.00    +0.000 OA
BRANCH  23  24
ATOM     24  C   UNL     1       1.737   8.977  17.769  0.00  0.00    +0.000 C 
BRANCH  24  25
ATOM     25  C   UNL     1       1.330   9.933  18.839  0.00  0.00    +0.000 A 
ATOM     26  C   UNL     1       1.292  11.314  18.921  0.00  0.00    +0.000 A 
ATOM     27  C   UNL     1       0.745  11.643  20.188  0.00  0.00    +0.000 A 
ATOM     28  C   UNL     1       0.468  10.440  20.787  0.00  0.00    +0.000 A 
ATOM     29  O   UNL     1       0.819   9.390  19.993  0.00  0.00    +0.000 OA
BRANCH  28  30
ATOM     30  N   UNL     1      -0.107  10.136  22.068  0.00  0.00    +0.000 N 
ATOM     31  O   UNL     1      -0.215  11.089  22.855  0.00  0.00    +0.000 OA
ATOM     32  O   UNL     1      -0.458   8.972  22.286  0.00  0.00    +0.000 OA
ENDBRANCH  28  30
ENDBRANCH  24  25
ENDBRANCH  23  24
ENDBRANCH   1  23
TORSDOF 10
ENDMDL
MODEL 3
REMARK VINA RESULT:      -7.8      0.522      1.155
REMARK  Name = 
REMARK  11 active torsions:
REMARK  status: ('A' for Active; 'I' for Inactive)
REMARK    1  A    between atoms: C_1  and  C_2
REMARK    2  A    between atoms: C_2  and  O_4
REMARK    3  A    between atoms: O_4  and  N_5
REMARK    4  A    between atoms: C_9  and  P_10
REMARK    5  A    between atoms: P_10  and  N_12
REMARK    6  A    between atoms: P_10  and  O_20
REMARK    7  A    between atoms: N_12  and  C_13
REMARK    8  A    between atoms: C_13  and  C_14
REMARK    9  A    between atoms: O_20  and  C_21
REMARK   10  A    between atoms: C_21  and  C_22
REMARK   11  A    between atoms: C_25  and  N_26
REMARK                            x       y       z     vdW  Elec       q    Type
REMARK                         _______ _______ _______ _____ _____    ______ ____
ROOT
ATOM      1  P   UNL     1       3.880   6.232  17.861  0.00  0.00    +0.000 P 
ATOM      2  O   UNL     1       3.812   5.961  19.337  0.00  0.00    +0.000 OA
ENDROOT
BRANCH   1   7
ATOM      3  N   UNL     1       6.591   5.390  15.526  0.00  0.00    +0.000 N 
ATOM      4  C   UNL     1       7.388   4.533  16.384  0.00  0.00    +0.000 C 
ATOM      5  C   UNL     1       7.059   4.678  17.859  0.00  0.00    +0.000 C 
ATOM      6  C   UNL     1       6.708   6.116  18.210  0.00  0.00    +0.000 C 
ATOM      7  C   UNL     1       5.571   6.696  17.353  0.00  0.00    +0.000 C 
ATOM      8  C   UNL     1       5.681   6.351  15.897  0.00  0.00    +0.000 C 
ATOM      9  O   UNL     1       4.932   6.902  15.086  0.00  0.00    +0.000 OA
BRANCH   3  10
ATOM     10  O   UNL     1       6.164   4.708  14.354  0.00  0.00    +0.000 OA
BRANCH  10  12
ATOM     11  C   UNL     1       6.749   3.658  12.370  0.00  0.00    +0.000 C 
ATOM     12  C   UNL     1       7.057   4.778  13.316  0.00  0.00    +0.000 C 
ATOM     13  O   UNL     1       7.941   5.611  13.175  0.00  0.00    +0.000 OA
ENDBRANCH  10  12
ENDBRANCH   3  10
ENDBRANCH   1   7
BRANCH   1  14
ATOM     14  N   UNL     1       2.845   7.404  17.370  0.00  0.00    +0.000 NA
ATOM     15  H   UNL     1       1.879   7.102  17.316  0.00  0.00    +0.000 HD
BRANCH  14  16
ATOM     16  C   UNL     1       2.939   8.740  17.925  0.00  0.00    +0.000 C 
BRANCH  16  17
ATOM     17  C   UNL     1       1.705   9.131  18.689  0.00  0.00    +0.000 A 
ATOM     18  C   UNL     1       0.702   9.899  18.075  0.00  0.00    +0.000 A 
ATOM     19  C   UNL     1      -0.448  10.253  18.780  0.00  0.00    +0.000 A 
ATOM     20  C   UNL     1      -0.604   9.849  20.104  0.00  0.00    +0.000 A 
ATOM     21  C   UNL     1       0.386   9.088  20.723  0.00  0.00    +0.000 A 
ATOM     22  C   UNL     1       1.538   8.734  20.022  0.00  0.00    +0.000 A 
ENDBRANCH  16  17
ENDBRANCH  14  16
ENDBRANCH   1  14
BRANCH   1  23
ATOM     23  O   UNL     1       3.471   4.943  16.969  0.00  0.00    +0.000 OA
BRANCH  23  24
ATOM     24  C   UNL     1       3.716   3.653  17.528  0.00  0.00    +0.000 C 
BRANCH  24  25
ATOM     25  C   UNL     1       2.614   3.307  18.471  0.00  0.00    +0.000 A 
ATOM     26  C   UNL     1       1.251   3.123  18.319  0.00  0.00    +0.000 A 
ATOM     27  C   UNL     1       0.736   2.743  19.586  0.00  0.00    +0.000 A 
ATOM     28  C   UNL     1       1.824   2.702  20.421  0.00  0.00    +0.000 A 
ATOM     29  O   UNL     1       2.971   3.046  19.772  0.00  0.00    +0.000 OA
BRANCH  28  30
ATOM     30  N   UNL     1       1.929   2.370  21.816  0.00  0.00    +0.000 N 
ATOM     31  O   UNL     1       3.068   2.105  22.227  0.00  0.00    +0.000 OA
ATOM     32  O   UNL     1       0.897   2.384  22.495  0.00  0.00    +0.000 OA
ENDBRANCH  28  30
ENDBRANCH  24  25
ENDBRANCH  23  24
ENDBRANCH   1  23
TORSDOF 10
ENDMDL
MODEL 4
REMARK VINA RESULT:      -7.7      2.323      7.129
REMARK  Name = 
REMARK  11 active torsions:
REMARK  status: ('A' for Active; 'I' for Inactive)
REMARK    1  A    between atoms: C_1  and  C_2
REMARK    2  A    between atoms: C_2  and  O_4
REMARK    3  A    between atoms: O_4  and  N_5
REMARK    4  A    between atoms: C_9  and  P_10
REMARK    5  A    between atoms: P_10  and  N_12
REMARK    6  A    between atoms: P_10  and  O_20
REMARK    7  A    between atoms: N_12  and  C_13
REMARK    8  A    between atoms: C_13  and  C_14
REMARK    9  A    between atoms: O_20  and  C_21
REMARK   10  A    between atoms: C_21  and  C_22
REMARK   11  A    between atoms: C_25  and  N_26
REMARK                            x       y       z     vdW  Elec       q    Type
REMARK                         _______ _______ _______ _____ _____    ______ ____
ROOT
ATOM      1  P   UNL     1       4.059   5.205  17.647  0.00  0.00    +0.000 P 
ATOM      2  O   UNL     1       4.867   5.014  18.899  0.00  0.00    +0.000 OA
ENDROOT
BRANCH   1   7
ATOM      3  N   UNL     1       1.557   2.702  18.644  0.00  0.00    +0.000 N 
ATOM      4  C   UNL     1       2.433   1.723  19.261  0.00  0.00    +0.000 C 
ATOM      5  C   UNL     1       3.894   1.895  18.887  0.00  0.00    +0.000 C 
ATOM      6  C   UNL     1       4.047   2.359  17.447  0.00  0.00    +0.000 C 
ATOM      7  C   UNL     1       3.264   3.644  17.131  0.00  0.00    +0.000 C 
ATOM      8  C   UNL     1       1.882   3.664  17.717  0.00  0.00    +0.000 C 
ATOM      9  O   UNL     1       1.097   4.557  17.387  0.00  0.00    +0.000 OA
BRANCH   3  10
ATOM     10  O   UNL     1       0.580   3.183  19.557  0.00  0.00    +0.000 OA
BRANCH  10  12
ATOM     11  C   UNL     1       1.344   2.876  21.727  0.00  0.00    +0.000 C 
ATOM     12  C   UNL     1       1.108   3.863  20.624  0.00  0.00    +0.000 C 
ATOM     13  O   UNL     1       1.357   5.059  20.670  0.00  0.00    +0.000 OA
ENDBRANCH  10  12
ENDBRANCH   3  10
ENDBRANCH   1   7
BRANCH   1  14
ATOM     14  N   UNL     1       4.938   5.784  16.391  0.00  0.00    +0.000 NA
ATOM     15  H   UNL     1       4.907   6.793  16.300  0.00  0.00    +0.000 HD
BRANCH  14  16
ATOM     16  C   UNL     1       6.275   5.284  16.144  0.00  0.00    +0.000 C 
BRANCH  16  17
ATOM     17  C   UNL     1       6.467   4.838  14.721  0.00  0.00    +0.000 A 
ATOM     18  C   UNL     1       7.541   5.330  13.962  0.00  0.00    +0.000 A 
ATOM     19  C   UNL     1       7.728   4.909  12.645  0.00  0.00    +0.000 A 
ATOM     20  C   UNL     1       6.840   3.999  12.074  0.00  0.00    +0.000 A 
ATOM     21  C   UNL     1       5.769   3.507  12.818  0.00  0.00    +0.000 A 
ATOM     22  C   UNL     1       5.580   3.928  14.135  0.00  0.00    +0.000 A 
ENDBRANCH  16  17
ENDBRANCH  14  16
ENDBRANCH   1  14
BRANCH   1  23
ATOM     23  O   UNL     1       2.867   6.288  17.830  0.00  0.00    +0.000 OA
BRANCH  23  24
ATOM     24  C   UNL     1       3.204   7.666  17.676  0.00  0.00    +0.000 C 
BRANCH  24  25
ATOM     25  C   UNL     1       2.193   8.502  18.385  0.00  0.00    +0.000 A 
ATOM     26  C   UNL     1       1.337   9.512  17.981  0.00  0.00    +0.000 A 
ATOM     27  C   UNL     1       0.562   9.881  19.111  0.00  0.00    +0.000 A 
ATOM     28  C   UNL     1       0.984   9.057  20.125  0.00  0.00    +0.000 A 
ATOM     29  O   UNL     1       1.975   8.219  19.712  0.00  0.00    +0.000 OA
BRANCH  28  30
ATOM     30  N   UNL     1       0.559   8.955  21.494  0.00  0.00    +0.000 N 
ATOM     31  O   UNL     1       1.235   9.584  22.321  0.00  0.00    +0.000 OA
ATOM     32  O   UNL     1      -0.438   8.270  21.742  0.00  0.00    +0.000 OA
ENDBRANCH  28  30
ENDBRANCH  24  25
ENDBRANCH  23  24
ENDBRANCH   1  23
TORSDOF 10
ENDMDL
MODEL 5
REMARK VINA RESULT:      -7.7      2.170      4.775
REMARK  Name = 
REMARK  11 active torsions:
REMARK  status: ('A' for Active; 'I' for Inactive)
REMARK    1  A    between atoms: C_1  and  C_2
REMARK    2  A    between atoms: C_2  and  O_4
REMARK    3  A    between atoms: O_4  and  N_5
REMARK    4  A    between atoms: C_9  and  P_10
REMARK    5  A    between atoms: P_10  and  N_12
REMARK    6  A    between atoms: P_10  and  O_20
REMARK    7  A    between atoms: N_12  and  C_13
REMARK    8  A    between atoms: C_13  and  C_14
REMARK    9  A    between atoms: O_20  and  C_21
REMARK   10  A    between atoms: C_21  and  C_22
REMARK   11  A    between atoms: C_25  and  N_26
REMARK                            x       y       z     vdW  Elec       q    Type
REMARK                         _______ _______ _______ _____ _____    ______ ____
ROOT
ATOM      1  P   UNL     1       4.352   6.192  18.097  0.00  0.00    +0.000 P 
ATOM      2  O   UNL     1       3.540   5.366  17.142  0.00  0.00    +0.000 OA
ENDROOT
BRANCH   1   7
ATOM      3  N   UNL     1       6.754   5.289  15.465  0.00  0.00    +0.000 N 
ATOM      4  C   UNL     1       7.652   4.452  16.239  0.00  0.00    +0.000 C 
ATOM      5  C   UNL     1       7.508   4.634  17.739  0.00  0.00    +0.000 C 
ATOM      6  C   UNL     1       7.202   6.080  18.096  0.00  0.00    +0.000 C 
ATOM      7  C   UNL     1       5.967   6.641  17.373  0.00  0.00    +0.000 C 
ATOM      8  C   UNL     1       5.896   6.261  15.923  0.00  0.00    +0.000 C 
ATOM      9  O   UNL     1       5.051   6.793  15.198  0.00  0.00    +0.000 OA
BRANCH   3  10
ATOM     10  O   UNL     1       6.186   4.580  14.372  0.00  0.00    +0.000 OA
BRANCH  10  12
ATOM     11  C   UNL     1       6.449   3.559  12.305  0.00  0.00    +0.000 C 
ATOM     12  C   UNL     1       6.935   4.638  13.225  0.00  0.00    +0.000 C 
ATOM     13  O   UNL     1       7.831   5.434  12.983  0.00  0.00    +0.000 OA
ENDBRANCH  10  12
ENDBRANCH   3  10
ENDBRANCH   1   7
BRANCH   1  14
ATOM     14  N   UNL     1       4.612   5.451  19.535  0.00  0.00    +0.000 NA
ATOM     15  H   UNL     1       4.131   5.886  20.314  0.00  0.00    +0.000 HD
BRANCH  14  16
ATOM     16  C   UNL     1       4.552   4.006  19.633  0.00  0.00    +0.000 C 
BRANCH  16  17
ATOM     17  C   UNL     1       3.140   3.489  19.615  0.00  0.00    +0.000 A 
ATOM     18  C   UNL     1       2.178   4.020  20.489  0.00  0.00    +0.000 A 
ATOM     19  C   UNL     1       0.865   3.549  20.466  0.00  0.00    +0.000 A 
ATOM     20  C   UNL     1       0.504   2.540  19.575  0.00  0.00    +0.000 A 
ATOM     21  C   UNL     1       1.452   2.005  18.705  0.00  0.00    +0.000 A 
ATOM     22  C   UNL     1       2.766   2.473  18.727  0.00  0.00    +0.000 A 
ENDBRANCH  16  17
ENDBRANCH  14  16
ENDBRANCH   1  14
BRANCH   1  23
ATOM     23  O   UNL     1       3.625   7.585  18.495  0.00  0.00    +0.000 OA
BRANCH  23  24
ATOM     24  C   UNL     1       2.586   8.052  17.634  0.00  0.00    +0.000 C 
BRANCH  24  25
ATOM     25  C   UNL     1       1.619   8.865  18.427  0.00  0.00    +0.000 A 
ATOM     26  C   UNL     1       0.676   9.821  18.091  0.00  0.00    +0.000 A 
ATOM     27  C   UNL     1       0.012  10.193  19.289  0.00  0.00    +0.000 A 
ATOM     28  C   UNL     1       0.582   9.423  20.273  0.00  0.00    +0.000 A 
ATOM     29  O   UNL     1       1.561   8.617  19.777  0.00  0.00    +0.000 OA
BRANCH  28  30
ATOM     30  N   UNL     1       0.315   9.348  21.683  0.00  0.00    +0.000 N 
ATOM     31  O   UNL     1      -0.568   8.548  22.026  0.00  0.00    +0.000 OA
ATOM     32  O   UNL     1       0.979  10.062  22.439  0.00  0.00    +0.000 OA
ENDBRANCH  28  30
ENDBRANCH  24  25
ENDBRANCH  23  24
ENDBRANCH   1  23
TORSDOF 10
ENDMDL
MODEL 6
REMARK VINA RESULT:      -7.6      2.547      5.057
REMARK  Name = 
REMARK  11 active torsions:
REMARK  status: ('A' for Active; 'I' for Inactive)
REMARK    1  A    between atoms: C_1  and  C_2
REMARK    2  A    between atoms: C_2  and  O_4
REMARK    3  A    between atoms: O_4  and  N_5
REMARK    4  A    between atoms: C_9  and  P_10
REMARK    5  A    between atoms: P_10  and  N_12
REMARK    6  A    between atoms: P_10  and  O_20
REMARK    7  A    between atoms: N_12  and  C_13
REMARK    8  A    between atoms: C_13  and  C_14
REMARK    9  A    between atoms: O_20  and  C_21
REMARK   10  A    between atoms: C_21  and  C_22
REMARK   11  A    between atoms: C_25  and  N_26
REMARK                            x       y       z     vdW  Elec       q    Type
REMARK                         _______ _______ _______ _____ _____    ______ ____
ROOT
ATOM      1  P   UNL     1       4.287   6.371  17.995  0.00  0.00    +0.000 P 
ATOM      2  O   UNL     1       3.529   5.421  17.112  0.00  0.00    +0.000 OA
ENDROOT
BRANCH   1   7
ATOM      3  N   UNL     1       6.759   5.235  15.521  0.00  0.00    +0.000 N 
ATOM      4  C   UNL     1       7.591   4.411  16.378  0.00  0.00    +0.000 C 
ATOM      5  C   UNL     1       7.393   4.682  17.858  0.00  0.00    +0.000 C 
ATOM      6  C   UNL     1       7.129   6.156  18.122  0.00  0.00    +0.000 C 
ATOM      7  C   UNL     1       5.946   6.720  17.317  0.00  0.00    +0.000 C 
ATOM      8  C   UNL     1       5.920   6.261  15.888  0.00  0.00    +0.000 C 
ATOM      9  O   UNL     1       5.126   6.782  15.099  0.00  0.00    +0.000 OA
BRANCH   3  10
ATOM     10  O   UNL     1       6.208   4.486  14.446  0.00  0.00    +0.000 OA
BRANCH  10  12
ATOM     11  C   UNL     1       6.389   3.563  12.324  0.00  0.00    +0.000 C 
ATOM     12  C   UNL     1       6.921   4.589  13.278  0.00  0.00    +0.000 C 
ATOM     13  O   UNL     1       7.821   5.384  13.046  0.00  0.00    +0.000 OA
ENDBRANCH  10  12
ENDBRANCH   3  10
ENDBRANCH   1   7
BRANCH   1  14
ATOM     14  N   UNL     1       4.454   5.831  19.533  0.00  0.00    +0.000 NA
ATOM     15  H   UNL     1       3.869   6.316  20.204  0.00  0.00    +0.000 HD
BRANCH  14  16
ATOM     16  C   UNL     1       4.484   4.408  19.808  0.00  0.00    +0.000 C 
BRANCH  16  17
ATOM     17  C   UNL     1       3.127   3.772  19.687  0.00  0.00    +0.000 A 
ATOM     18  C   UNL     1       2.954   2.609  18.919  0.00  0.00    +0.000 A 
ATOM     19  C   UNL     1       1.698   2.011  18.814  0.00  0.00    +0.000 A 
ATOM     20  C   UNL     1       0.605   2.572  19.470  0.00  0.00    +0.000 A 
ATOM     21  C   UNL     1       0.765   3.728  20.232  0.00  0.00    +0.000 A 
ATOM     22  C   UNL     1       2.019   4.329  20.338  0.00  0.00    +0.000 A 
ENDBRANCH  16  17
ENDBRANCH  14  16
ENDBRANCH   1  14
BRANCH   1  23
ATOM     23  O   UNL     1       3.547   7.803  18.155  0.00  0.00    +0.000 OA
BRANCH  23  24
ATOM     24  C   UNL     1       2.120   7.811  18.123  0.00  0.00    +0.000 C 
BRANCH  24  25
ATOM     25  C   UNL     1       1.601   8.334  19.419  0.00  0.00    +0.000 A 
ATOM     26  C   UNL     1       1.646   7.870  20.722  0.00  0.00    +0.000 A 
ATOM     27  C   UNL     1       1.022   8.849  21.538  0.00  0.00    +0.000 A 
ATOM     28  C   UNL     1       0.655   9.855  20.679  0.00  0.00    +0.000 A 
ATOM     29  O   UNL     1       0.988   9.563  19.391  0.00  0.00    +0.000 OA
BRANCH  28  30
ATOM     30  N   UNL     1      -0.002  11.109  20.924  0.00  0.00    +0.000 N 
ATOM     31  O   UNL     1       0.388  11.742  21.917  0.00  0.00    +0.000 OA
ATOM     32  O   UNL     1      -0.883  11.468  20.137  0.00  0.00    +0.000 OA
ENDBRANCH  28  30
ENDBRANCH  24  25
ENDBRANCH  23  24
ENDBRANCH   1  23
TORSDOF 10
ENDMDL
MODEL 7
REMARK VINA RESULT:      -7.5      2.252      4.830
REMARK  Name = 
REMARK  11 active torsions:
REMARK  status: ('A' for Active; 'I' for Inactive)
REMARK    1  A    between atoms: C_1  and  C_2
REMARK    2  A    between atoms: C_2  and  O_4
REMARK    3  A    between atoms: O_4  and  N_5
REMARK    4  A    between atoms: C_9  and  P_10
REMARK    5  A    between atoms: P_10  and  N_12
REMARK    6  A    between atoms: P_10  and  O_20
REMARK    7  A    between atoms: N_12  and  C_13
REMARK    8  A    between atoms: C_13  and  C_14
REMARK    9  A    between atoms: O_20  and  C_21
REMARK   10  A    between atoms: C_21  and  C_22
REMARK   11  A    between atoms: C_25  and  N_26
REMARK                            x       y       z     vdW  Elec       q    Type
REMARK                         _______ _______ _______ _____ _____    ______ ____
ROOT
ATOM      1  P   UNL     1       4.139   6.480  18.061  0.00  0.00    +0.000 P 
ATOM      2  O   UNL     1       3.351   5.611  17.123  0.00  0.00    +0.000 OA
ENDROOT
BRANCH   1   7
ATOM      3  N   UNL     1       6.587   5.314  15.579  0.00  0.00    +0.000 N 
ATOM      4  C   UNL     1       7.328   4.374  16.398  0.00  0.00    +0.000 C 
ATOM      5  C   UNL     1       7.108   4.564  17.888  0.00  0.00    +0.000 C 
ATOM      6  C   UNL     1       6.950   6.034  18.243  0.00  0.00    +0.000 C 
ATOM      7  C   UNL     1       5.838   6.740  17.448  0.00  0.00    +0.000 C 
ATOM      8  C   UNL     1       5.819   6.378  15.993  0.00  0.00    +0.000 C 
ATOM      9  O   UNL     1       5.092   7.009  15.221  0.00  0.00    +0.000 OA
BRANCH   3  10
ATOM     10  O   UNL     1       6.012   4.682  14.443  0.00  0.00    +0.000 OA
BRANCH  10  12
ATOM     11  C   UNL     1       6.390   3.517  12.472  0.00  0.00    +0.000 C 
ATOM     12  C   UNL     1       6.843   4.643  13.352  0.00  0.00    +0.000 C 
ATOM     13  O   UNL     1       7.778   5.397  13.125  0.00  0.00    +0.000 OA
ENDBRANCH  10  12
ENDBRANCH   3  10
ENDBRANCH   1   7
BRANCH   1  14
ATOM     14  N   UNL     1       4.218   5.882  19.585  0.00  0.00    +0.000 NA
ATOM     15  H   UNL     1       4.813   6.418  20.206  0.00  0.00    +0.000 HD
BRANCH  14  16
ATOM     16  C   UNL     1       3.011   5.458  20.266  0.00  0.00    +0.000 C 
BRANCH  16  17
ATOM     17  C   UNL     1       2.516   4.124  19.779  0.00  0.00    +0.000 A 
ATOM     18  C   UNL     1       3.420   3.078  19.533  0.00  0.00    +0.000 A 
ATOM     19  C   UNL     1       2.961   1.836  19.092  0.00  0.00    +0.000 A 
ATOM     20  C   UNL     1       1.599   1.632  18.887  0.00  0.00    +0.000 A 
ATOM     21  C   UNL     1       0.693   2.665  19.126  0.00  0.00    +0.000 A 
ATOM     22  C   UNL     1       1.149   3.908  19.566  0.00  0.00    +0.000 A 
ENDBRANCH  16  17
ENDBRANCH  14  16
ENDBRANCH   1  14
BRANCH   1  23
ATOM     23  O   UNL     1       3.487   7.952  18.247  0.00  0.00    +0.000 OA
BRANCH  23  24
ATOM     24  C   UNL     1       2.149   8.141  17.787  0.00  0.00    +0.000 C 
BRANCH  24  25
ATOM     25  C   UNL     1       1.418   9.015  18.748  0.00  0.00    +0.000 A 
ATOM     26  C   UNL     1       0.780  10.238  18.631  0.00  0.00    +0.000 A 
ATOM     27  C   UNL     1       0.208  10.535  19.896  0.00  0.00    +0.000 A 
ATOM     28  C   UNL     1       0.520   9.463  20.695  0.00  0.00    +0.000 A 
ATOM     29  O   UNL     1       1.257   8.534  20.025  0.00  0.00    +0.000 OA
BRANCH  28  30
ATOM     30  N   UNL     1       0.203   9.190  22.069  0.00  0.00    +0.000 N 
ATOM     31  O   UNL     1      -0.743   8.411  22.264  0.00  0.00    +0.000 OA
ATOM     32  O   UNL     1       0.889   9.730  22.942  0.00  0.00    +0.000 OA
ENDBRANCH  28  30
ENDBRANCH  24  25
ENDBRANCH  23  24
ENDBRANCH   1  23
TORSDOF 10
ENDMDL
MODEL 8
REMARK VINA RESULT:      -7.5      1.331      1.676
REMARK  Name = 
REMARK  11 active torsions:
REMARK  status: ('A' for Active; 'I' for Inactive)
REMARK    1  A    between atoms: C_1  and  C_2
REMARK    2  A    between atoms: C_2  and  O_4
REMARK    3  A    between atoms: O_4  and  N_5
REMARK    4  A    between atoms: C_9  and  P_10
REMARK    5  A    between atoms: P_10  and  N_12
REMARK    6  A    between atoms: P_10  and  O_20
REMARK    7  A    between atoms: N_12  and  C_13
REMARK    8  A    between atoms: C_13  and  C_14
REMARK    9  A    between atoms: O_20  and  C_21
REMARK   10  A    between atoms: C_21  and  C_22
REMARK   11  A    between atoms: C_25  and  N_26
REMARK                            x       y       z     vdW  Elec       q    Type
REMARK                         _______ _______ _______ _____ _____    ______ ____
ROOT
ATOM      1  P   UNL     1       3.548   6.759  18.124  0.00  0.00    +0.000 P 
ATOM      2  O   UNL     1       3.291   6.536  19.588  0.00  0.00    +0.000 OA
ENDROOT
BRANCH   1   7
ATOM      3  N   UNL     1       6.122   5.247  15.979  0.00  0.00    +0.000 N 
ATOM      4  C   UNL     1       6.591   4.202  16.869  0.00  0.00    +0.000 C 
ATOM      5  C   UNL     1       6.193   4.416  18.318  0.00  0.00    +0.000 C 
ATOM      6  C   UNL     1       6.207   5.892  18.685  0.00  0.00    +0.000 C 
ATOM      7  C   UNL     1       5.337   6.762  17.762  0.00  0.00    +0.000 C 
ATOM      8  C   UNL     1       5.471   6.413  16.309  0.00  0.00    +0.000 C 
ATOM      9  O   UNL     1       4.963   7.150  15.460  0.00  0.00    +0.000 OA
BRANCH   3  10
ATOM     10  O   UNL     1       5.627   4.714  14.758  0.00  0.00    +0.000 OA
BRANCH  10  12
ATOM     11  C   UNL     1       6.171   3.523  12.842  0.00  0.00    +0.000 C 
ATOM     12  C   UNL     1       6.572   4.633  13.766  0.00  0.00    +0.000 C 
ATOM     13  O   UNL     1       7.558   5.345  13.644  0.00  0.00    +0.000 OA
ENDBRANCH  10  12
ENDBRANCH   3  10
ENDBRANCH   1   7
BRANCH   1  14
ATOM     14  N   UNL     1       2.897   8.152  17.558  0.00  0.00    +0.000 NA
ATOM     15  H   UNL     1       3.208   8.400  16.626  0.00  0.00    +0.000 HD
BRANCH  14  16
ATOM     16  C   UNL     1       1.480   8.413  17.716  0.00  0.00    +0.000 C 
BRANCH  16  17
ATOM     17  C   UNL     1       1.202   9.827  18.144  0.00  0.00    +0.000 A 
ATOM     18  C   UNL     1       2.212  10.800  18.082  0.00  0.00    +0.000 A 
ATOM     19  C   UNL     1       1.952  12.115  18.468  0.00  0.00    +0.000 A 
ATOM     20  C   UNL     1       0.684  12.467  18.926  0.00  0.00    +0.000 A 
ATOM     21  C   UNL     1      -0.325  11.508  18.994  0.00  0.00    +0.000 A 
ATOM     22  C   UNL     1      -0.067  10.192  18.609  0.00  0.00    +0.000 A 
ENDBRANCH  16  17
ENDBRANCH  14  16
ENDBRANCH   1  14
BRANCH   1  23
ATOM     23  O   UNL     1       2.893   5.607  17.192  0.00  0.00    +0.000 OA
BRANCH  23  24
ATOM     24  C   UNL     1       1.917   4.753  17.790  0.00  0.00    +0.000 C 
BRANCH  24  25
ATOM     25  C   UNL     1       2.578   3.499  18.253  0.00  0.00    +0.000 A 
ATOM     26  C   UNL     1       2.975   2.338  17.613  0.00  0.00    +0.000 A 
ATOM     27  C   UNL     1       3.612   1.522  18.584  0.00  0.00    +0.000 A 
ATOM     28  C   UNL     1       3.578   2.250  19.747  0.00  0.00    +0.000 A 
ATOM     29  O   UNL     1       2.952   3.447  19.573  0.00  0.00    +0.000 OA
BRANCH  28  30
ATOM     30  N   UNL     1       4.079   1.950  21.060  0.00  0.00    +0.000 N 
ATOM     31  O   UNL     1       3.276   2.095  21.994  0.00  0.00    +0.000 OA
ATOM     32  O   UNL     1       5.247   1.563  21.162  0.00  0.00    +0.000 OA
ENDBRANCH  28  30
ENDBRANCH  24  25
ENDBRANCH  23  24
ENDBRANCH   1  23
TORSDOF 10
ENDMDL
MODEL 9
REMARK VINA RESULT:      -7.5      1.314      1.828
REMARK  Name = 
REMARK  11 active torsions:
REMARK  status: ('A' for Active; 'I' for Inactive)
REMARK    1  A    between atoms: C_1  and  C_2
REMARK    2  A    between atoms: C_2  and  O_4
REMARK    3  A    between atoms: O_4  and  N_5
REMARK    4  A    between atoms: C_9  and  P_10
REMARK    5  A    between atoms: P_10  and  N_12
REMARK    6  A    between atoms: P_10  and  O_20
REMARK    7  A    between atoms: N_12  and  C_13
REMARK    8  A    between atoms: C_13  and  C_14
REMARK    9  A    between atoms: O_20  and  C_21
REMARK   10  A    between atoms: C_21  and  C_22
REMARK   11  A    between atoms: C_25  and  N_26
REMARK                            x       y       z     vdW  Elec       q    Type
REMARK                         _______ _______ _______ _____ _____    ______ ____
ROOT
ATOM      1  P   UNL     1       3.112   6.680  18.114  0.00  0.00    +0.000 P 
ATOM      2  O   UNL     1       2.735   6.506  19.557  0.00  0.00    +0.000 OA
ENDROOT
BRANCH   1   7
ATOM      3  N   UNL     1       5.944   5.359  16.177  0.00  0.00    +0.000 N 
ATOM      4  C   UNL     1       6.387   4.317  17.084  0.00  0.00    +0.000 C 
ATOM      5  C   UNL     1       5.851   4.474  18.495  0.00  0.00    +0.000 C 
ATOM      6  C   UNL     1       5.753   5.938  18.893  0.00  0.00    +0.000 C 
ATOM      7  C   UNL     1       4.924   6.785  17.913  0.00  0.00    +0.000 C 
ATOM      8  C   UNL     1       5.204   6.481  16.471  0.00  0.00    +0.000 C 
ATOM      9  O   UNL     1       4.734   7.212  15.595  0.00  0.00    +0.000 OA
BRANCH   3  10
ATOM     10  O   UNL     1       5.588   4.832  14.906  0.00  0.00    +0.000 OA
BRANCH  10  12
ATOM     11  C   UNL     1       6.275   3.699  13.001  0.00  0.00    +0.000 C 
ATOM     12  C   UNL     1       6.646   4.713  14.041  0.00  0.00    +0.000 C 
ATOM     13  O   UNL     1       7.700   5.330  14.094  0.00  0.00    +0.000 OA
ENDBRANCH  10  12
ENDBRANCH   3  10
ENDBRANCH   1   7
BRANCH   1  14
ATOM     14  N   UNL     1       2.432   8.001  17.422  0.00  0.00    +0.000 NA
ATOM     15  H   UNL     1       1.504   7.837  17.048  0.00  0.00    +0.000 HD
BRANCH  14  16
ATOM     16  C   UNL     1       2.500   9.288  18.085  0.00  0.00    +0.000 C 
BRANCH  16  17
ATOM     17  C   UNL     1       1.151   9.774  18.537  0.00  0.00    +0.000 A 
ATOM     18  C   UNL     1       0.058   9.758  17.655  0.00  0.00    +0.000 A 
ATOM     19  C   UNL     1      -1.197  10.197  18.076  0.00  0.00    +0.000 A 
ATOM     20  C   UNL     1      -1.369  10.661  19.378  0.00  0.00    +0.000 A 
ATOM     21  C   UNL     1      -0.291  10.683  20.261  0.00  0.00    +0.000 A 
ATOM     22  C   UNL     1       0.966  10.246  19.842  0.00  0.00    +0.000 A 
ENDBRANCH  16  17
ENDBRANCH  14  16
ENDBRANCH   1  14
BRANCH   1  23
ATOM     23  O   UNL     1       2.618   5.448  17.184  0.00  0.00    +0.000 OA
BRANCH  23  24
ATOM     24  C   UNL     1       1.686   4.529  17.753  0.00  0.00    +0.000 C 
BRANCH  24  25
ATOM     25  C   UNL     1       2.420   3.331  18.253  0.00  0.00    +0.000 A 
ATOM     26  C   UNL     1       2.898   2.183  17.647  0.00  0.00    +0.000 A 
ATOM     27  C   UNL     1       3.573   1.432  18.644  0.00  0.00    +0.000 A 
ATOM     28  C   UNL     1       3.477   2.183  19.789  0.00  0.00    +0.000 A 
ATOM     29  O   UNL     1       2.779   3.333  19.580  0.00  0.00    +0.000 OA
BRANCH  28  30
ATOM     30  N   UNL     1       3.978   1.945  21.115  0.00  0.00    +0.000 N 
ATOM     31  O   UNL     1       5.177   1.638  21.196  0.00  0.00    +0.000 OA
ATOM     32  O   UNL     1       3.197   2.074  22.063  0.00  0.00    +0.000 OA
ENDBRANCH  28  30
ENDBRANCH  24  25
ENDBRANCH  23  24
ENDBRANCH   1  23
TORSDOF 10
ENDMDL
