MODEL 1
REMARK VINA RESULT:      -9.8      0.000      0.000
REMARK  Name = 
REMARK  4 active torsions:
REMARK  status: ('A' for Active; 'I' for Inactive)
REMARK    1  A    between atoms: C_1  and  N_2
REMARK    2  A    between atoms: C_4  and  C_5
REMARK    3  A    between atoms: C_11  and  N_12
REMARK    4  A    between atoms: C_18  and  N_19
REMARK                            x       y       z     vdW  Elec       q    Type
REMARK                         _______ _______ _______ _____ _____    ______ ____
ROOT
ATOM      1  N   UNL     1       2.205   6.957  19.511  0.00  0.00    +0.000 N 
ATOM      2  C   UNL     1       2.249   8.076  18.723  0.00  0.00    +0.000 C 
ATOM      3  O   UNL     1       2.939   8.166  17.709  0.00  0.00    +0.000 OA
ATOM      4  N   UNL     1       1.465   9.142  19.137  0.00  0.00    +0.000 N 
ATOM      5  C   UNL     1       1.242  10.212  18.172  0.00  0.00    +0.000 C 
ATOM      6  C   UNL     1       1.416  11.585  18.806  0.00  0.00    +0.000 C 
ATOM      7  C   UNL     1       0.475  11.763  20.000  0.00  0.00    +0.000 C 
ATOM      8  C   UNL     1       0.825  10.637  21.003  0.00  0.00    +0.000 C 
ATOM      9  C   UNL     1       0.717   9.241  20.393  0.00  0.00    +0.000 C 
ATOM     10  H   UNL     1       1.465   6.868  20.196  0.00  0.00    +0.000 HD
ENDROOT
BRANCH   7  11
ATOM     11  N   UNL     1      -0.957  11.870  19.724  0.00  0.00    +0.000 N 
ATOM     12  C   UNL     1      -1.755  12.901  20.301  0.00  0.00    +0.000 A 
ATOM     13  O   UNL     1      -1.424  13.732  21.130  0.00  0.00    +0.000 OA
ATOM     14  N   UNL     1      -3.017  12.817  19.728  0.00  0.00    +0.000 N 
ATOM     15  C   UNL     1      -3.018  11.841  18.756  0.00  0.00    +0.000 A 
ATOM     16  N   UNL     1      -4.065  11.547  17.976  0.00  0.00    +0.000 NA
ATOM     17  C   UNL     1      -3.821  10.578  17.067  0.00  0.00    +0.000 A 
ATOM     18  C   UNL     1      -2.591   9.937  16.922  0.00  0.00    +0.000 A 
ATOM     19  C   UNL     1      -1.526  10.294  17.757  0.00  0.00    +0.000 A 
ATOM     20  C   UNL     1      -1.749  11.265  18.713  0.00  0.00    +0.000 A 
ATOM     21  H   UNL     1      -3.791  13.427  19.928  0.00  0.00    +0.000 HD
ENDBRANCH   7  11
BRANCH   1  27
ATOM     22  C   UNL     1       2.590   2.128  20.199  0.00  0.00    +0.000 C 
ATOM     23  N   UNL     1       3.168   3.398  19.797  0.00  0.00    +0.000 N 
ATOM     24  C   UNL     1       4.480   3.437  19.358  0.00  0.00    +0.000 A 
ATOM     25  C   UNL     1       5.057   4.581  18.944  0.00  0.00    +0.000 A 
ATOM     26  C   UNL     1       4.269   5.798  18.995  0.00  0.00    +0.000 A 
ATOM     27  C   UNL     1       2.997   5.826  19.409  0.00  0.00    +0.000 A 
ATOM     28  C   UNL     1       2.352   4.526  19.831  0.00  0.00    +0.000 A 
ATOM     29  O   UNL     1       1.172   4.527  20.182  0.00  0.00    +0.000 OA
BRANCH  25  30
ATOM     30  C   UNL     1       6.448   4.694  18.375  0.00  0.00    +0.000 C 
ATOM     31  C   UNL     1       6.539   5.701  17.264  0.00  0.00    +0.000 C 
ATOM     32  N   UNL     1       7.382   6.640  17.510  0.00  0.00    +0.000 NA
ATOM     33  C   UNL     1       7.871   6.332  18.752  0.00  0.00    +0.000 C 
ATOM     34  N   UNL     1       7.419   5.265  19.336  0.00  0.00    +0.000 NA
ENDBRANCH  25  30
ENDBRANCH   1  27
TORSDOF 3
ENDMDL
MODEL 2
REMARK VINA RESULT:      -9.4      1.931      2.648
REMARK  Name = 
REMARK  4 active torsions:
REMARK  status: ('A' for Active; 'I' for Inactive)
REMARK    1  A    between atoms: C_1  and  N_2
REMARK    2  A    between atoms: C_4  and  C_5
REMARK    3  A    between atoms: C_11  and  N_12
REMARK    4  A    between atoms: C_18  and  N_19
REMARK                            x       y       z     vdW  Elec       q    Type
REMARK                         _______ _______ _______ _____ _____    ______ ____
ROOT
ATOM      1  N   UNL     1       1.847   8.256  19.469  0.00  0.00    +0.000 N 
ATOM      2  C   UNL     1       1.011   9.083  18.766  0.00  0.00    +0.000 C 
ATOM      3  O   UNL     1       0.751   8.931  17.573  0.00  0.00    +0.000 OA
ATOM      4  N   UNL     1       0.462  10.139  19.477  0.00  0.00    +0.000 N 
ATOM      5  C   UNL     1      -0.659  10.837  18.861  0.00  0.00    +0.000 C 
ATOM      6  C   UNL     1      -0.508  12.348  18.970  0.00  0.00    +0.000 C 
ATOM      7  C   UNL     1      -0.370  12.782  20.431  0.00  0.00    +0.000 C 
ATOM      8  C   UNL     1       0.878  12.055  20.986  0.00  0.00    +0.000 C 
ATOM      9  C   UNL     1       0.794  10.537  20.848  0.00  0.00    +0.000 C 
ATOM     10  H   UNL     1       1.849   8.304  20.480  0.00  0.00    +0.000 HD
ENDROOT
BRANCH   7  11
ATOM     11  N   UNL     1      -1.547  12.655  21.290  0.00  0.00    +0.000 N 
ATOM     12  C   UNL     1      -1.476  12.887  22.695  0.00  0.00    +0.000 A 
ATOM     13  O   UNL     1      -0.486  13.113  23.370  0.00  0.00    +0.000 OA
ATOM     14  N   UNL     1      -2.773  12.835  23.188  0.00  0.00    +0.000 N 
ATOM     15  C   UNL     1      -3.657  12.671  22.144  0.00  0.00    +0.000 A 
ATOM     16  N   UNL     1      -4.989  12.638  22.275  0.00  0.00    +0.000 NA
ATOM     17  C   UNL     1      -5.654  12.506  21.106  0.00  0.00    +0.000 A 
ATOM     18  C   UNL     1      -5.034  12.426  19.860  0.00  0.00    +0.000 A 
ATOM     19  C   UNL     1      -3.637  12.478  19.782  0.00  0.00    +0.000 A 
ATOM     20  C   UNL     1      -2.926  12.589  20.960  0.00  0.00    +0.000 A 
ATOM     21  H   UNL     1      -3.040  12.978  24.147  0.00  0.00    +0.000 HD
ENDBRANCH   7  11
BRANCH   1  27
ATOM     22  C   UNL     1       3.212   3.569  19.806  0.00  0.00    +0.000 C 
ATOM     23  N   UNL     1       3.324   4.877  19.185  0.00  0.00    +0.000 N 
ATOM     24  C   UNL     1       4.220   5.061  18.146  0.00  0.00    +0.000 A 
ATOM     25  C   UNL     1       4.341   6.242  17.513  0.00  0.00    +0.000 A 
ATOM     26  C   UNL     1       3.519   7.347  17.969  0.00  0.00    +0.000 A 
ATOM     27  C   UNL     1       2.636   7.234  18.968  0.00  0.00    +0.000 A 
ATOM     28  C   UNL     1       2.482   5.890  19.639  0.00  0.00    +0.000 A 
ATOM     29  O   UNL     1       1.649   5.757  20.537  0.00  0.00    +0.000 OA
BRANCH  25  30
ATOM     30  C   UNL     1       5.229   6.501  16.323  0.00  0.00    +0.000 C 
ATOM     31  C   UNL     1       6.669   6.695  16.706  0.00  0.00    +0.000 C 
ATOM     32  N   UNL     1       7.453   5.841  16.148  0.00  0.00    +0.000 NA
ATOM     33  C   UNL     1       6.614   5.056  15.403  0.00  0.00    +0.000 C 
ATOM     34  N   UNL     1       5.345   5.329  15.425  0.00  0.00    +0.000 NA
ENDBRANCH  25  30
ENDBRANCH   1  27
TORSDOF 3
ENDMDL
MODEL 3
REMARK VINA RESULT:      -9.2      1.244      1.508
REMARK  Name = 
REMARK  4 active torsions:
REMARK  status: ('A' for Active; 'I' for Inactive)
REMARK    1  A    between atoms: C_1  and  N_2
REMARK    2  A    between atoms: C_4  and  C_5
REMARK    3  A    between atoms: C_11  and  N_12
REMARK    4  A    between atoms: C_18  and  N_19
REMARK                            x       y       z     vdW  Elec       q    Type
REMARK                         _______ _______ _______ _____ _____    ______ ____
ROOT
ATOM      1  N   UNL     1       2.008   7.656  19.124  0.00  0.00    +0.000 N 
ATOM      2  C   UNL     1       1.852   8.829  18.434  0.00  0.00    +0.000 C 
ATOM      3  O   UNL     1       2.468   9.098  17.404  0.00  0.00    +0.000 OA
ATOM      4  N   UNL     1       0.950   9.734  18.971  0.00  0.00    +0.000 N 
ATOM      5  C   UNL     1       0.527  10.833  18.111  0.00  0.00    +0.000 C 
ATOM      6  C   UNL     1       0.539  12.163  18.853  0.00  0.00    +0.000 C 
ATOM      7  C   UNL     1      -0.353  12.107  20.096  0.00  0.00    +0.000 C 
ATOM      8  C   UNL     1       0.206  10.968  20.983  0.00  0.00    +0.000 C 
ATOM      9  C   UNL     1       0.263   9.624  20.260  0.00  0.00    +0.000 C 
ATOM     10  H   UNL     1       1.326   7.407  19.830  0.00  0.00    +0.000 HD
ENDROOT
BRANCH   7  11
ATOM     11  N   UNL     1      -1.798  12.028  19.890  0.00  0.00    +0.000 N 
ATOM     12  C   UNL     1      -2.719  12.565  20.836  0.00  0.00    +0.000 A 
ATOM     13  O   UNL     1      -2.477  13.047  21.929  0.00  0.00    +0.000 OA
ATOM     14  N   UNL     1      -3.988  12.465  20.281  0.00  0.00    +0.000 N 
ATOM     15  C   UNL     1      -3.892  11.974  18.997  0.00  0.00    +0.000 A 
ATOM     16  N   UNL     1      -4.929  11.811  18.166  0.00  0.00    +0.000 NA
ATOM     17  C   UNL     1      -4.588  11.352  16.942  0.00  0.00    +0.000 A 
ATOM     18  C   UNL     1      -3.279  11.079  16.548  0.00  0.00    +0.000 A 
ATOM     19  C   UNL     1      -2.231  11.281  17.455  0.00  0.00    +0.000 A 
ATOM     20  C   UNL     1      -2.547  11.728  18.722  0.00  0.00    +0.000 A 
ATOM     21  H   UNL     1      -4.840  12.778  20.711  0.00  0.00    +0.000 HD
ENDBRANCH   7  11
BRANCH   1  27
ATOM     22  C   UNL     1       3.391   3.034  19.939  0.00  0.00    +0.000 C 
ATOM     23  N   UNL     1       3.629   4.339  19.349  0.00  0.00    +0.000 N 
ATOM     24  C   UNL     1       4.779   4.550  18.609  0.00  0.00    +0.000 A 
ATOM     25  C   UNL     1       5.034   5.730  18.014  0.00  0.00    +0.000 A 
ATOM     26  C   UNL     1       4.075   6.804  18.190  0.00  0.00    +0.000 A 
ATOM     27  C   UNL     1       2.945   6.663  18.893  0.00  0.00    +0.000 A 
ATOM     28  C   UNL     1       2.654   5.320  19.520  0.00  0.00    +0.000 A 
ATOM     29  O   UNL     1       1.603   5.161  20.142  0.00  0.00    +0.000 OA
BRANCH  25  30
ATOM     30  C   UNL     1       6.218   6.014  17.125  0.00  0.00    +0.000 C 
ATOM     31  C   UNL     1       7.346   5.043  17.334  0.00  0.00    +0.000 C 
ATOM     32  N   UNL     1       7.657   4.403  16.263  0.00  0.00    +0.000 NA
ATOM     33  C   UNL     1       6.784   4.882  15.322  0.00  0.00    +0.000 C 
ATOM     34  N   UNL     1       5.929   5.786  15.690  0.00  0.00    +0.000 NA
ENDBRANCH  25  30
ENDBRANCH   1  27
TORSDOF 3
ENDMDL
MODEL 4
REMARK VINA RESULT:      -9.0      1.992      4.276
REMARK  Name = 
REMARK  4 active torsions:
REMARK  status: ('A' for Active; 'I' for Inactive)
REMARK    1  A    between atoms: C_1  and  N_2
REMARK    2  A    between atoms: C_4  and  C_5
REMARK    3  A    between atoms: C_11  and  N_12
REMARK    4  A    between atoms: C_18  and  N_19
REMARK                            x       y       z     vdW  Elec       q    Type
REMARK                         _______ _______ _______ _____ _____    ______ ____
ROOT
ATOM      1  N   UNL     1       2.151   7.596  18.542  0.00  0.00    +0.000 N 
ATOM      2  C   UNL     1       1.731   8.200  19.697  0.00  0.00    +0.000 C 
ATOM      3  O   UNL     1       1.972   7.760  20.820  0.00  0.00    +0.000 OA
ATOM      4  N   UNL     1       0.988   9.361  19.540  0.00  0.00    +0.000 N 
ATOM      5  C   UNL     1       0.801  10.189  20.725  0.00  0.00    +0.000 C 
ATOM      6  C   UNL     1      -0.641  10.655  20.862  0.00  0.00    +0.000 C 
ATOM      7  C   UNL     1      -1.091  11.425  19.618  0.00  0.00    +0.000 C 
ATOM      8  C   UNL     1      -0.929  10.455  18.423  0.00  0.00    +0.000 C 
ATOM      9  C   UNL     1       0.494   9.919  18.279  0.00  0.00    +0.000 C 
ATOM     10  H   UNL     1       2.108   8.114  17.673  0.00  0.00    +0.000 HD
ENDROOT
BRANCH   7  11
ATOM     11  N   UNL     1      -0.497  12.741  19.384  0.00  0.00    +0.000 N 
ATOM     12  C   UNL     1      -1.107  13.933  19.870  0.00  0.00    +0.000 A 
ATOM     13  O   UNL     1      -2.185  14.053  20.426  0.00  0.00    +0.000 OA
ATOM     14  N   UNL     1      -0.230  14.980  19.616  0.00  0.00    +0.000 N 
ATOM     15  C   UNL     1       0.937  14.483  19.077  0.00  0.00    +0.000 A 
ATOM     16  N   UNL     1       2.008  15.224  18.770  0.00  0.00    +0.000 NA
ATOM     17  C   UNL     1       3.051  14.513  18.289  0.00  0.00    +0.000 A 
ATOM     18  C   UNL     1       3.044  13.127  18.132  0.00  0.00    +0.000 A 
ATOM     19  C   UNL     1       1.900  12.401  18.481  0.00  0.00    +0.000 A 
ATOM     20  C   UNL     1       0.808  13.099  18.954  0.00  0.00    +0.000 A 
ATOM     21  H   UNL     1      -0.382  15.942  19.862  0.00  0.00    +0.000 HD
ENDBRANCH   7  11
BRANCH   1  27
ATOM     22  C   UNL     1       5.727   4.976  16.471  0.00  0.00    +0.000 C 
ATOM     23  N   UNL     1       4.559   5.064  17.330  0.00  0.00    +0.000 N 
ATOM     24  C   UNL     1       4.093   3.924  17.961  0.00  0.00    +0.000 A 
ATOM     25  C   UNL     1       3.035   3.955  18.793  0.00  0.00    +0.000 A 
ATOM     26  C   UNL     1       2.365   5.225  18.995  0.00  0.00    +0.000 A 
ATOM     27  C   UNL     1       2.766   6.362  18.414  0.00  0.00    +0.000 A 
ATOM     28  C   UNL     1       3.980   6.317  17.517  0.00  0.00    +0.000 A 
ATOM     29  O   UNL     1       4.385   7.360  17.001  0.00  0.00    +0.000 OA
BRANCH  25  30
ATOM     30  C   UNL     1       2.518   2.779  19.581  0.00  0.00    +0.000 C 
ATOM     31  C   UNL     1       3.312   2.527  20.832  0.00  0.00    +0.000 C 
ATOM     32  N   UNL     1       2.595   2.589  21.898  0.00  0.00    +0.000 NA
ATOM     33  C   UNL     1       1.339   2.885  21.439  0.00  0.00    +0.000 C 
ATOM     34  N   UNL     1       1.175   3.018  20.159  0.00  0.00    +0.000 NA
ENDBRANCH  25  30
ENDBRANCH   1  27
TORSDOF 3
ENDMDL
MODEL 5
REMARK VINA RESULT:      -9.0      1.795      2.964
REMARK  Name = 
REMARK  4 active torsions:
REMARK  status: ('A' for Active; 'I' for Inactive)
REMARK    1  A    between atoms: C_1  and  N_2
REMARK    2  A    between atoms: C_4  and  C_5
REMARK    3  A    between atoms: C_11  and  N_12
REMARK    4  A    between atoms: C_18  and  N_19
REMARK                            x       y       z     vdW  Elec       q    Type
REMARK                         _______ _______ _______ _____ _____    ______ ____
ROOT
ATOM      1  N   UNL     1       2.497   7.532  18.121  0.00  0.00    +0.000 N 
ATOM      2  C   UNL     1       1.978   8.008  19.296  0.00  0.00    +0.000 C 
ATOM      3  O   UNL     1       2.237   7.525  20.397  0.00  0.00    +0.000 OA
ATOM      4  N   UNL     1       1.112   9.084  19.185  0.00  0.00    +0.000 N 
ATOM      5  C   UNL     1       0.797   9.807  20.412  0.00  0.00    +0.000 C 
ATOM      6  C   UNL     1      -0.693  10.096  20.526  0.00  0.00    +0.000 C 
ATOM      7  C   UNL     1      -1.193  10.890  19.316  0.00  0.00    +0.000 C 
ATOM      8  C   UNL     1      -0.887  10.025  18.070  0.00  0.00    +0.000 C 
ATOM      9  C   UNL     1       0.592   9.664  17.944  0.00  0.00    +0.000 C 
ATOM     10  H   UNL     1       2.420   8.098  17.285  0.00  0.00    +0.000 HD
ENDROOT
BRANCH   7  11
ATOM     11  N   UNL     1      -0.749  12.277  19.186  0.00  0.00    +0.000 N 
ATOM     12  C   UNL     1      -1.532  13.362  19.676  0.00  0.00    +0.000 A 
ATOM     13  O   UNL     1      -2.652  13.325  20.155  0.00  0.00    +0.000 OA
ATOM     14  N   UNL     1      -0.772  14.517  19.536  0.00  0.00    +0.000 N 
ATOM     15  C   UNL     1       0.481  14.190  19.064  0.00  0.00    +0.000 A 
ATOM     16  N   UNL     1       1.473  15.067  18.872  0.00  0.00    +0.000 NA
ATOM     17  C   UNL     1       2.625  14.510  18.440  0.00  0.00    +0.000 A 
ATOM     18  C   UNL     1       2.797  13.144  18.221  0.00  0.00    +0.000 A 
ATOM     19  C   UNL     1       1.728  12.270  18.451  0.00  0.00    +0.000 A 
ATOM     20  C   UNL     1       0.529  12.809  18.871  0.00  0.00    +0.000 A 
ATOM     21  H   UNL     1      -1.056  15.440  19.812  0.00  0.00    +0.000 HD
ENDBRANCH   7  11
BRANCH   1  27
ATOM     22  C   UNL     1       2.533   2.676  17.523  0.00  0.00    +0.000 C 
ATOM     23  N   UNL     1       3.238   3.936  17.671  0.00  0.00    +0.000 N 
ATOM     24  C   UNL     1       4.622   3.946  17.652  0.00  0.00    +0.000 A 
ATOM     25  C   UNL     1       5.325   5.089  17.753  0.00  0.00    +0.000 A 
ATOM     26  C   UNL     1       4.591   6.330  17.913  0.00  0.00    +0.000 A 
ATOM     27  C   UNL     1       3.254   6.386  17.939  0.00  0.00    +0.000 A 
ATOM     28  C   UNL     1       2.479   5.099  17.783  0.00  0.00    +0.000 A 
ATOM     29  O   UNL     1       1.248   5.136  17.770  0.00  0.00    +0.000 OA
BRANCH  25  30
ATOM     30  C   UNL     1       6.826   5.195  17.657  0.00  0.00    +0.000 C 
ATOM     31  C   UNL     1       7.301   6.616  17.544  0.00  0.00    +0.000 C 
ATOM     32  N   UNL     1       8.096   6.953  18.497  0.00  0.00    +0.000 NA
ATOM     33  C   UNL     1       8.184   5.827  19.272  0.00  0.00    +0.000 C 
ATOM     34  N   UNL     1       7.513   4.780  18.902  0.00  0.00    +0.000 NA
ENDBRANCH  25  30
ENDBRANCH   1  27
TORSDOF 3
ENDMDL
MODEL 6
REMARK VINA RESULT:      -9.0      2.374      4.557
REMARK  Name = 
REMARK  4 active torsions:
REMARK  status: ('A' for Active; 'I' for Inactive)
REMARK    1  A    between atoms: C_1  and  N_2
REMARK    2  A    between atoms: C_4  and  C_5
REMARK    3  A    between atoms: C_11  and  N_12
REMARK    4  A    between atoms: C_18  and  N_19
REMARK                            x       y       z     vdW  Elec       q    Type
REMARK                         _______ _______ _______ _____ _____    ______ ____
ROOT
ATOM      1  N   UNL     1       2.368   7.553  18.847  0.00  0.00    +0.000 N 
ATOM      2  C   UNL     1       1.679   7.962  19.958  0.00  0.00    +0.000 C 
ATOM      3  O   UNL     1       1.478   7.243  20.936  0.00  0.00    +0.000 OA
ATOM      4  N   UNL     1       1.191   9.260  19.926  0.00  0.00    +0.000 N 
ATOM      5  C   UNL     1       0.740   9.827  21.192  0.00  0.00    +0.000 C 
ATOM      6  C   UNL     1      -0.591  10.549  21.040  0.00  0.00    +0.000 C 
ATOM      7  C   UNL     1      -0.501  11.652  19.983  0.00  0.00    +0.000 C 
ATOM      8  C   UNL     1      -0.089  10.959  18.662  0.00  0.00    +0.000 C 
ATOM      9  C   UNL     1       1.217  10.176  18.783  0.00  0.00    +0.000 C 
ATOM     10  H   UNL     1       2.683   8.247  18.181  0.00  0.00    +0.000 HD
ENDROOT
BRANCH   7  11
ATOM     11  N   UNL     1       0.308  12.829  20.300  0.00  0.00    +0.000 N 
ATOM     12  C   UNL     1       0.336  13.385  21.611  0.00  0.00    +0.000 A 
ATOM     13  O   UNL     1      -0.330  13.061  22.580  0.00  0.00    +0.000 OA
ATOM     14  N   UNL     1       1.301  14.384  21.616  0.00  0.00    +0.000 N 
ATOM     15  C   UNL     1       1.938  14.416  20.394  0.00  0.00    +0.000 A 
ATOM     16  N   UNL     1       2.957  15.227  20.089  0.00  0.00    +0.000 NA
ATOM     17  C   UNL     1       3.448  15.053  18.843  0.00  0.00    +0.000 A 
ATOM     18  C   UNL     1       2.964  14.107  17.940  0.00  0.00    +0.000 A 
ATOM     19  C   UNL     1       1.903  13.275  18.317  0.00  0.00    +0.000 A 
ATOM     20  C   UNL     1       1.363  13.443  19.576  0.00  0.00    +0.000 A 
ATOM     21  H   UNL     1       1.558  14.945  22.409  0.00  0.00    +0.000 HD
ENDBRANCH   7  11
BRANCH   1  27
ATOM     22  C   UNL     1       5.229   4.727  16.059  0.00  0.00    +0.000 C 
ATOM     23  N   UNL     1       4.247   4.877  17.120  0.00  0.00    +0.000 N 
ATOM     24  C   UNL     1       3.785   3.752  17.780  0.00  0.00    +0.000 A 
ATOM     25  C   UNL     1       2.900   3.836  18.791  0.00  0.00    +0.000 A 
ATOM     26  C   UNL     1       2.412   5.151  19.162  0.00  0.00    +0.000 A 
ATOM     27  C   UNL     1       2.820   6.275  18.562  0.00  0.00    +0.000 A 
ATOM     28  C   UNL     1       3.844   6.167  17.457  0.00  0.00    +0.000 A 
ATOM     29  O   UNL     1       4.257   7.194  16.917  0.00  0.00    +0.000 OA
BRANCH  25  30
ATOM     30  C   UNL     1       2.411   2.672  19.614  0.00  0.00    +0.000 C 
ATOM     31  C   UNL     1       3.269   2.416  20.821  0.00  0.00    +0.000 C 
ATOM     32  N   UNL     1       2.613   2.494  21.924  0.00  0.00    +0.000 NA
ATOM     33  C   UNL     1       1.337   2.804  21.533  0.00  0.00    +0.000 C 
ATOM     34  N   UNL     1       1.105   2.932  20.262  0.00  0.00    +0.000 NA
ENDBRANCH  25  30
ENDBRANCH   1  27
TORSDOF 3
ENDMDL
MODEL 7
REMARK VINA RESULT:      -9.0      2.279      4.582
REMARK  Name = 
REMARK  4 active torsions:
REMARK  status: ('A' for Active; 'I' for Inactive)
REMARK    1  A    between atoms: C_1  and  N_2
REMARK    2  A    between atoms: C_4  and  C_5
REMARK    3  A    between atoms: C_11  and  N_12
REMARK    4  A    between atoms: C_18  and  N_19
REMARK                            x       y       z     vdW  Elec       q    Type
REMARK                         _______ _______ _______ _____ _____    ______ ____
ROOT
ATOM      1  N   UNL     1       2.770   7.477  18.257  0.00  0.00    +0.000 N 
ATOM      2  C   UNL     1       2.090   7.718  19.421  0.00  0.00    +0.000 C 
ATOM      3  O   UNL     1       2.004   6.903  20.339  0.00  0.00    +0.000 OA
ATOM      4  N   UNL     1       1.472   8.955  19.519  0.00  0.00    +0.000 N 
ATOM      5  C   UNL     1       1.019   9.364  20.843  0.00  0.00    +0.000 C 
ATOM      6  C   UNL     1      -0.384   9.952  20.800  0.00  0.00    +0.000 C 
ATOM      7  C   UNL     1      -0.451  11.144  19.841  0.00  0.00    +0.000 C 
ATOM      8  C   UNL     1      -0.026  10.610  18.452  0.00  0.00    +0.000 C 
ATOM      9  C   UNL     1       1.356   9.961  18.460  0.00  0.00    +0.000 C 
ATOM     10  H   UNL     1       2.984   8.254  17.643  0.00  0.00    +0.000 HD
ENDROOT
BRANCH   7  11
ATOM     11  N   UNL     1       0.247  12.368  20.232  0.00  0.00    +0.000 N 
ATOM     12  C   UNL     1       0.124  12.912  21.544  0.00  0.00    +0.000 A 
ATOM     13  O   UNL     1      -0.600  12.534  22.449  0.00  0.00    +0.000 OA
ATOM     14  N   UNL     1       1.016  13.972  21.637  0.00  0.00    +0.000 N 
ATOM     15  C   UNL     1       1.753  14.058  20.475  0.00  0.00    +0.000 A 
ATOM     16  N   UNL     1       2.738  14.939  20.264  0.00  0.00    +0.000 NA
ATOM     17  C   UNL     1       3.345  14.810  19.064  0.00  0.00    +0.000 A 
ATOM     18  C   UNL     1       3.006  13.843  18.118  0.00  0.00    +0.000 A 
ATOM     19  C   UNL     1       1.974  12.939  18.398  0.00  0.00    +0.000 A 
ATOM     20  C   UNL     1       1.318  13.058  19.606  0.00  0.00    +0.000 A 
ATOM     21  H   UNL     1       1.165  14.541  22.452  0.00  0.00    +0.000 HD
ENDBRANCH   7  11
BRANCH   1  27
ATOM     22  C   UNL     1       6.602   5.231  16.204  0.00  0.00    +0.000 C 
ATOM     23  N   UNL     1       5.270   5.186  16.780  0.00  0.00    +0.000 N 
ATOM     24  C   UNL     1       4.611   3.972  16.873  0.00  0.00    +0.000 A 
ATOM     25  C   UNL     1       3.389   3.868  17.427  0.00  0.00    +0.000 A 
ATOM     26  C   UNL     1       2.753   5.079  17.907  0.00  0.00    +0.000 A 
ATOM     27  C   UNL     1       3.336   6.282  17.846  0.00  0.00    +0.000 A 
ATOM     28  C   UNL     1       4.725   6.375  17.259  0.00  0.00    +0.000 A 
ATOM     29  O   UNL     1       5.292   7.468  17.226  0.00  0.00    +0.000 OA
BRANCH  25  30
ATOM     30  C   UNL     1       2.642   2.576  17.641  0.00  0.00    +0.000 C 
ATOM     31  C   UNL     1       2.924   1.960  18.983  0.00  0.00    +0.000 C 
ATOM     32  N   UNL     1       1.864   1.810  19.695  0.00  0.00    +0.000 NA
ATOM     33  C   UNL     1       0.860   2.307  18.907  0.00  0.00    +0.000 C 
ATOM     34  N   UNL     1       1.176   2.767  17.736  0.00  0.00    +0.000 NA
ENDBRANCH  25  30
ENDBRANCH   1  27
TORSDOF 3
ENDMDL
MODEL 8
REMARK VINA RESULT:      -8.9      2.664      9.030
REMARK  Name = 
REMARK  4 active torsions:
REMARK  status: ('A' for Active; 'I' for Inactive)
REMARK    1  A    between atoms: C_1  and  N_2
REMARK    2  A    between atoms: C_4  and  C_5
REMARK    3  A    between atoms: C_11  and  N_12
REMARK    4  A    between atoms: C_18  and  N_19
REMARK                            x       y       z     vdW  Elec       q    Type
REMARK                         _______ _______ _______ _____ _____    ______ ____
ROOT
ATOM      1  N   UNL     1       1.235   9.590  20.885  0.00  0.00    +0.000 N 
ATOM      2  C   UNL     1       1.380   9.102  19.613  0.00  0.00    +0.000 C 
ATOM      3  O   UNL     1       1.097   9.745  18.603  0.00  0.00    +0.000 OA
ATOM      4  N   UNL     1       1.863   7.807  19.511  0.00  0.00    +0.000 N 
ATOM      5  C   UNL     1       2.325   7.376  18.196  0.00  0.00    +0.000 C 
ATOM      6  C   UNL     1       1.813   5.985  17.850  0.00  0.00    +0.000 C 
ATOM      7  C   UNL     1       2.240   4.964  18.907  0.00  0.00    +0.000 C 
ATOM      8  C   UNL     1       1.652   5.455  20.251  0.00  0.00    +0.000 C 
ATOM      9  C   UNL     1       2.095   6.871  20.614  0.00  0.00    +0.000 C 
ATOM     10  H   UNL     1       1.681   9.103  21.652  0.00  0.00    +0.000 HD
ENDROOT
BRANCH   7  11
ATOM     11  N   UNL     1       3.659   4.621  18.984  0.00  0.00    +0.000 N 
ATOM     12  C   UNL     1       4.099   3.369  19.504  0.00  0.00    +0.000 A 
ATOM     13  O   UNL     1       3.427   2.492  20.020  0.00  0.00    +0.000 OA
ATOM     14  N   UNL     1       5.471   3.295  19.300  0.00  0.00    +0.000 N 
ATOM     15  C   UNL     1       5.893   4.403  18.597  0.00  0.00    +0.000 A 
ATOM     16  N   UNL     1       7.151   4.611  18.190  0.00  0.00    +0.000 NA
ATOM     17  C   UNL     1       7.320   5.749  17.483  0.00  0.00    +0.000 A 
ATOM     18  C   UNL     1       6.290   6.638  17.176  0.00  0.00    +0.000 A 
ATOM     19  C   UNL     1       4.990   6.363  17.617  0.00  0.00    +0.000 A 
ATOM     20  C   UNL     1       4.787   5.220  18.363  0.00  0.00    +0.000 A 
ATOM     21  H   UNL     1       6.058   2.519  19.550  0.00  0.00    +0.000 HD
ENDBRANCH   7  11
BRANCH   1  27
ATOM     22  C   UNL     1      -2.338  11.771  23.420  0.00  0.00    +0.000 C 
ATOM     23  N   UNL     1      -1.194  11.844  22.528  0.00  0.00    +0.000 N 
ATOM     24  C   UNL     1      -0.765  13.080  22.075  0.00  0.00    +0.000 A 
ATOM     25  C   UNL     1       0.308  13.208  21.273  0.00  0.00    +0.000 A 
ATOM     26  C   UNL     1       1.001  12.002  20.863  0.00  0.00    +0.000 A 
ATOM     27  C   UNL     1       0.636  10.779  21.266  0.00  0.00    +0.000 A 
ATOM     28  C   UNL     1      -0.546  10.656  22.199  0.00  0.00    +0.000 A 
ATOM     29  O   UNL     1      -0.875   9.542  22.608  0.00  0.00    +0.000 OA
BRANCH  25  30
ATOM     30  C   UNL     1       0.889  14.519  20.805  0.00  0.00    +0.000 C 
ATOM     31  C   UNL     1       1.974  14.338  19.782  0.00  0.00    +0.000 C 
ATOM     32  N   UNL     1       1.712  14.927  18.669  0.00  0.00    +0.000 NA
ATOM     33  C   UNL     1       0.484  15.498  18.874  0.00  0.00    +0.000 C 
ATOM     34  N   UNL     1      -0.077  15.334  20.033  0.00  0.00    +0.000 NA
ENDBRANCH  25  30
ENDBRANCH   1  27
TORSDOF 3
ENDMDL
MODEL 9
REMARK VINA RESULT:      -8.9      1.348      1.620
REMARK  Name = 
REMARK  4 active torsions:
REMARK  status: ('A' for Active; 'I' for Inactive)
REMARK    1  A    between atoms: C_1  and  N_2
REMARK    2  A    between atoms: C_4  and  C_5
REMARK    3  A    between atoms: C_11  and  N_12
REMARK    4  A    between atoms: C_18  and  N_19
REMARK                            x       y       z     vdW  Elec       q    Type
REMARK                         _______ _______ _______ _____ _____    ______ ____
ROOT
ATOM      1  N   UNL     1       2.092   7.493  19.849  0.00  0.00    +0.000 N 
ATOM      2  C   UNL     1       1.533   8.391  18.979  0.00  0.00    +0.000 C 
ATOM      3  O   UNL     1       1.544   8.249  17.757  0.00  0.00    +0.000 OA
ATOM      4  N   UNL     1       0.947   9.509  19.553  0.00  0.00    +0.000 N 
ATOM      5  C   UNL     1       0.079  10.311  18.699  0.00  0.00    +0.000 C 
ATOM      6  C   UNL     1       0.357  11.799  18.856  0.00  0.00    +0.000 C 
ATOM      7  C   UNL     1       0.197  12.238  20.313  0.00  0.00    +0.000 C 
ATOM      8  C   UNL     1       1.198  11.394  21.136  0.00  0.00    +0.000 C 
ATOM      9  C   UNL     1       0.991   9.890  20.967  0.00  0.00    +0.000 C 
ATOM     10  H   UNL     1       1.864   7.555  20.833  0.00  0.00    +0.000 HD
ENDROOT
BRANCH   7  11
ATOM     11  N   UNL     1      -1.155  12.247  20.872  0.00  0.00    +0.000 N 
ATOM     12  C   UNL     1      -1.398  12.595  22.233  0.00  0.00    +0.000 A 
ATOM     13  O   UNL     1      -0.580  12.826  23.108  0.00  0.00    +0.000 OA
ATOM     14  N   UNL     1      -2.775  12.653  22.405  0.00  0.00    +0.000 N 
ATOM     15  C   UNL     1      -3.400  12.445  21.195  0.00  0.00    +0.000 A 
ATOM     16  N   UNL     1      -4.724  12.492  21.005  0.00  0.00    +0.000 NA
ATOM     17  C   UNL     1      -5.105  12.295  19.724  0.00  0.00    +0.000 A 
ATOM     18  C   UNL     1      -4.217  12.076  18.671  0.00  0.00    +0.000 A 
ATOM     19  C   UNL     1      -2.841  12.049  18.925  0.00  0.00    +0.000 A 
ATOM     20  C   UNL     1      -2.419  12.224  20.228  0.00  0.00    +0.000 A 
ATOM     21  H   UNL     1      -3.248  12.891  23.259  0.00  0.00    +0.000 HD
ENDBRANCH   7  11
BRANCH   1  27
ATOM     22  C   UNL     1       2.745   2.665  20.310  0.00  0.00    +0.000 C 
ATOM     23  N   UNL     1       3.181   3.958  19.813  0.00  0.00    +0.000 N 
ATOM     24  C   UNL     1       4.349   4.043  19.076  0.00  0.00    +0.000 A 
ATOM     25  C   UNL     1       4.783   5.210  18.564  0.00  0.00    +0.000 A 
ATOM     26  C   UNL     1       4.001   6.403  18.830  0.00  0.00    +0.000 A 
ATOM     27  C   UNL     1       2.864   6.387  19.535  0.00  0.00    +0.000 A 
ATOM     28  C   UNL     1       2.370   5.062  20.067  0.00  0.00    +0.000 A 
ATOM     29  O   UNL     1       1.308   5.022  20.688  0.00  0.00    +0.000 OA
BRANCH  25  30
ATOM     30  C   UNL     1       5.995   5.373  17.683  0.00  0.00    +0.000 C 
ATOM     31  C   UNL     1       5.927   6.607  16.828  0.00  0.00    +0.000 C 
ATOM     32  N   UNL     1       6.909   7.412  17.035  0.00  0.00    +0.000 NA
ATOM     33  C   UNL     1       7.649   6.793  18.007  0.00  0.00    +0.000 C 
ATOM     34  N   UNL     1       7.232   5.646  18.451  0.00  0.00    +0.000 NA
ENDBRANCH  25  30
ENDBRANCH   1  27
TORSDOF 3
ENDMDL
