MODEL 1
REMARK VINA RESULT:      -8.8      0.000      0.000
REMARK  Name = 
REMARK  10 active torsions:
REMARK  status: ('A' for Active; 'I' for Inactive)
REMARK    1  A    between atoms: C_1  and  C_2
REMARK    2  A    between atoms: C_4  and  C_5
REMARK    3  A    between atoms: C_13  and  C_14
REMARK    4  A    between atoms: C_14  and  S_15
REMARK    5  A    between atoms: S_15  and  C_18
REMARK    6  A    between atoms: C_18  and  C_19
REMARK    7  A    between atoms: N_21  and  C_22
REMARK    8  A    between atoms: C_22  and  C_23
REMARK    9  A    between atoms: C_23  and  C_24
REMARK   10  A    between atoms: C_24  and  N_25
REMARK                            x       y       z     vdW  Elec       q    Type
REMARK                         _______ _______ _______ _____ _____    ______ ____
ROOT
ATOM      1  C   UNL     1       7.519   6.241  18.693  0.00  0.00    +0.000 C 
ENDROOT
BRANCH   1   2
ATOM      2  C   UNL     1       7.944   7.547  18.061  0.00  0.00    +0.000 C 
ATOM      3  O   UNL     1       7.773   7.770  16.865  0.00  0.00    +0.000 OA
ATOM      4  N   UNL     1       8.601   8.427  18.900  0.00  0.00    +0.000 N 
ATOM      5  H   UNL     1       8.568   8.248  19.904  0.00  0.00    +0.000 HD
BRANCH   4   6
ATOM      6  C   UNL     1       8.960   9.772  18.484  0.00  0.00    +0.000 C 
BRANCH   6   7
ATOM      7  C   UNL     1       9.452  10.656  19.634  0.00  0.00    +0.000 C 
BRANCH   7   8
ATOM      8  C   UNL     1      10.818  11.307  19.352  0.00  0.00    +0.000 C 
BRANCH   8   9
ATOM      9  N   UNL     1      10.801  12.778  19.324  0.00  0.00    +0.000 NA
ATOM     10  C   UNL     1       9.828  13.327  20.298  0.00  0.00    +0.000 C 
ATOM     11  C   UNL     1       8.696  14.207  19.728  0.00  0.00    +0.000 C 
ATOM     12  C   UNL     1       9.289  15.236  18.807  0.00  0.00    +0.000 A 
ATOM     13  C   UNL     1       8.875  16.570  18.787  0.00  0.00    +0.000 A 
ATOM     14  C   UNL     1       9.505  17.472  17.931  0.00  0.00    +0.000 A 
ATOM     15  C   UNL     1      10.536  17.045  17.092  0.00  0.00    +0.000 A 
ATOM     16  C   UNL     1      10.934  15.707  17.090  0.00  0.00    +0.000 A 
ATOM     17  C   UNL     1      10.308  14.798  17.954  0.00  0.00    +0.000 A 
ATOM     18  C   UNL     1      10.650  13.326  17.964  0.00  0.00    +0.000 C 
ENDBRANCH   8   9
ENDBRANCH   7   8
ENDBRANCH   6   7
ENDBRANCH   4   6
ENDBRANCH   1   2
BRANCH   1  19
ATOM     19  S   UNL     1       6.895   5.186  17.403  0.00  0.00    +0.000 S 
ATOM     20  O   UNL     1       7.985   4.340  16.952  0.00  0.00    +0.000 OA
ATOM     21  O   UNL     1       6.199   6.031  16.441  0.00  0.00    +0.000 OA
BRANCH  19  22
ATOM     22  C   UNL     1       5.683   4.105  18.142  0.00  0.00    +0.000 C 
BRANCH  22  28
ATOM     23  C   UNL     1       2.536   2.991  17.414  0.00  0.00    +0.000 C 
ATOM     24  C   UNL     1       3.089   4.229  17.997  0.00  0.00    +0.000 A 
ATOM     25  O   UNL     1       2.178   5.179  18.361  0.00  0.00    +0.000 OA
ATOM     26  C   UNL     1       2.924   6.214  18.851  0.00  0.00    +0.000 A 
ATOM     27  N   UNL     1       4.227   5.988  18.815  0.00  0.00    +0.000 NA
ATOM     28  C   UNL     1       4.347   4.722  18.286  0.00  0.00    +0.000 A 
BRANCH  26  29
ATOM     29  C   UNL     1       2.184   7.377  19.324  0.00  0.00    +0.000 A 
ATOM     30  C   UNL     1       1.679   7.442  20.635  0.00  0.00    +0.000 A 
ATOM     31  C   UNL     1       0.977   8.567  21.079  0.00  0.00    +0.000 A 
ATOM     32  C   UNL     1       0.774   9.645  20.221  0.00  0.00    +0.000 A 
ATOM     33  C   UNL     1       1.260   9.595  18.917  0.00  0.00    +0.000 A 
ATOM     34  C   UNL     1       1.956   8.468  18.479  0.00  0.00    +0.000 A 
ATOM     35  F   UNL     1       2.401   8.465  17.213  0.00  0.00    +0.000 F 
ENDBRANCH  26  29
ENDBRANCH  22  28
ENDBRANCH  19  22
ENDBRANCH   1  19
TORSDOF 9
ENDMDL
MODEL 2
REMARK VINA RESULT:      -8.7      5.974      8.334
REMARK  Name = 
REMARK  10 active torsions:
REMARK  status: ('A' for Active; 'I' for Inactive)
REMARK    1  A    between atoms: C_1  and  C_2
REMARK    2  A    between atoms: C_4  and  C_5
REMARK    3  A    between atoms: C_13  and  C_14
REMARK    4  A    between atoms: C_14  and  S_15
REMARK    5  A    between atoms: S_15  and  C_18
REMARK    6  A    between atoms: C_18  and  C_19
REMARK    7  A    between atoms: N_21  and  C_22
REMARK    8  A    between atoms: C_22  and  C_23
REMARK    9  A    between atoms: C_23  and  C_24
REMARK   10  A    between atoms: C_24  and  N_25
REMARK                            x       y       z     vdW  Elec       q    Type
REMARK                         _______ _______ _______ _____ _____    ______ ____
ROOT
ATOM      1  C   UNL     1       1.033   3.378  20.045  0.00  0.00    +0.000 C 
ENDROOT
BRANCH   1   2
ATOM      2  C   UNL     1       1.671   4.513  20.813  0.00  0.00    +0.000 C 
ATOM      3  O   UNL     1       2.378   4.310  21.797  0.00  0.00    +0.000 OA
ATOM      4  N   UNL     1       1.343   5.783  20.377  0.00  0.00    +0.000 N 
ATOM      5  H   UNL     1       0.887   5.876  19.469  0.00  0.00    +0.000 HD
BRANCH   4   6
ATOM      6  C   UNL     1       1.970   6.975  20.922  0.00  0.00    +0.000 C 
BRANCH   6   7
ATOM      7  C   UNL     1       1.157   8.253  20.690  0.00  0.00    +0.000 C 
BRANCH   7   8
ATOM      8  C   UNL     1       0.959   9.081  21.972  0.00  0.00    +0.000 C 
BRANCH   8   9
ATOM      9  N   UNL     1       0.811  10.529  21.749  0.00  0.00    +0.000 NA
ATOM     10  C   UNL     1      -0.422  11.051  22.382  0.00  0.00    +0.000 C 
ATOM     11  C   UNL     1      -1.451  11.721  21.449  0.00  0.00    +0.000 C 
ATOM     12  C   UNL     1      -0.745  12.715  20.569  0.00  0.00    +0.000 A 
ATOM     13  C   UNL     1      -1.264  13.979  20.278  0.00  0.00    +0.000 A 
ATOM     14  C   UNL     1      -0.525  14.859  19.487  0.00  0.00    +0.000 A 
ATOM     15  C   UNL     1       0.719  14.477  18.981  0.00  0.00    +0.000 A 
ATOM     16  C   UNL     1       1.228  13.205  19.249  0.00  0.00    +0.000 A 
ATOM     17  C   UNL     1       0.492  12.320  20.049  0.00  0.00    +0.000 A 
ATOM     18  C   UNL     1       0.957  10.911  20.333  0.00  0.00    +0.000 C 
ENDBRANCH   8   9
ENDBRANCH   7   8
ENDBRANCH   6   7
ENDBRANCH   4   6
ENDBRANCH   1   2
BRANCH   1  19
ATOM     19  S   UNL     1       1.861   3.245  18.475  0.00  0.00    +0.000 S 
ATOM     20  O   UNL     1       1.219   4.166  17.553  0.00  0.00    +0.000 OA
ATOM     21  O   UNL     1       1.939   1.831  18.136  0.00  0.00    +0.000 OA
BRANCH  19  22
ATOM     22  C   UNL     1       3.529   3.836  18.705  0.00  0.00    +0.000 C 
BRANCH  22  28
ATOM     23  C   UNL     1       3.835   7.109  17.773  0.00  0.00    +0.000 C 
ATOM     24  C   UNL     1       4.223   5.819  17.170  0.00  0.00    +0.000 A 
ATOM     25  O   UNL     1       4.870   5.886  15.969  0.00  0.00    +0.000 OA
ATOM     26  C   UNL     1       5.105   4.586  15.620  0.00  0.00    +0.000 A 
ATOM     27  N   UNL     1       4.652   3.713  16.504  0.00  0.00    +0.000 NA
ATOM     28  C   UNL     1       4.099   4.483  17.503  0.00  0.00    +0.000 A 
BRANCH  26  29
ATOM     29  C   UNL     1       5.802   4.372  14.358  0.00  0.00    +0.000 A 
ATOM     30  C   UNL     1       5.235   3.602  13.327  0.00  0.00    +0.000 A 
ATOM     31  C   UNL     1       5.912   3.412  12.118  0.00  0.00    +0.000 A 
ATOM     32  C   UNL     1       7.162   3.991  11.921  0.00  0.00    +0.000 A 
ATOM     33  C   UNL     1       7.744   4.750  12.934  0.00  0.00    +0.000 A 
ATOM     34  C   UNL     1       7.065   4.933  14.140  0.00  0.00    +0.000 A 
ATOM     35  F   UNL     1       7.667   5.669  15.086  0.00  0.00    +0.000 F 
ENDBRANCH  26  29
ENDBRANCH  22  28
ENDBRANCH  19  22
ENDBRANCH   1  19
TORSDOF 9
ENDMDL
MODEL 3
REMARK VINA RESULT:      -8.6      1.375      1.499
REMARK  Name = 
REMARK  10 active torsions:
REMARK  status: ('A' for Active; 'I' for Inactive)
REMARK    1  A    between atoms: C_1  and  C_2
REMARK    2  A    between atoms: C_4  and  C_5
REMARK    3  A    between atoms: C_13  and  C_14
REMARK    4  A    between atoms: C_14  and  S_15
REMARK    5  A    between atoms: S_15  and  C_18
REMARK    6  A    between atoms: C_18  and  C_19
REMARK    7  A    between atoms: N_21  and  C_22
REMARK    8  A    between atoms: C_22  and  C_23
REMARK    9  A    between atoms: C_23  and  C_24
REMARK   10  A    between atoms: C_24  and  N_25
REMARK                            x       y       z     vdW  Elec       q    Type
REMARK                         _______ _______ _______ _____ _____    ______ ____
ROOT
ATOM      1  C   UNL     1       5.835   6.384  17.640  0.00  0.00    +0.000 C 
ENDROOT
BRANCH   1   2
ATOM      2  C   UNL     1       7.089   7.123  17.231  0.00  0.00    +0.000 C 
ATOM      3  O   UNL     1       7.797   6.729  16.308  0.00  0.00    +0.000 OA
ATOM      4  N   UNL     1       7.416   8.216  18.011  0.00  0.00    +0.000 N 
ATOM      5  H   UNL     1       6.710   8.576  18.652  0.00  0.00    +0.000 HD
BRANCH   4   6
ATOM      6  C   UNL     1       8.514   9.106  17.675  0.00  0.00    +0.000 C 
BRANCH   6   7
ATOM      7  C   UNL     1       8.650  10.296  18.632  0.00  0.00    +0.000 C 
BRANCH   7   8
ATOM      8  C   UNL     1      10.099  10.794  18.770  0.00  0.00    +0.000 C 
BRANCH   8   9
ATOM      9  N   UNL     1      10.238  12.257  18.856  0.00  0.00    +0.000 NA
ATOM     10  C   UNL     1       9.015  12.885  19.410  0.00  0.00    +0.000 C 
ATOM     11  C   UNL     1       8.297  13.915  18.515  0.00  0.00    +0.000 C 
ATOM     12  C   UNL     1       9.305  14.896  17.986  0.00  0.00    +0.000 A 
ATOM     13  C   UNL     1       9.065  16.270  17.913  0.00  0.00    +0.000 A 
ATOM     14  C   UNL     1      10.070  17.119  17.448  0.00  0.00    +0.000 A 
ATOM     15  C   UNL     1      11.303  16.599  17.050  0.00  0.00    +0.000 A 
ATOM     16  C   UNL     1      11.537  15.224  17.097  0.00  0.00    +0.000 A 
ATOM     17  C   UNL     1      10.532  14.368  17.570  0.00  0.00    +0.000 A 
ATOM     18  C   UNL     1      10.697  12.866  17.595  0.00  0.00    +0.000 C 
ENDBRANCH   8   9
ENDBRANCH   7   8
ENDBRANCH   6   7
ENDBRANCH   4   6
ENDBRANCH   1   2
BRANCH   1  19
ATOM     19  S   UNL     1       6.321   4.990  18.633  0.00  0.00    +0.000 S 
ATOM     20  O   UNL     1       6.771   5.493  19.920  0.00  0.00    +0.000 OA
ATOM     21  O   UNL     1       7.220   4.170  17.832  0.00  0.00    +0.000 OA
BRANCH  19  22
ATOM     22  C   UNL     1       4.853   4.026  18.948  0.00  0.00    +0.000 C 
BRANCH  22  28
ATOM     23  C   UNL     1       2.368   3.293  21.176  0.00  0.00    +0.000 C 
ATOM     24  C   UNL     1       2.749   4.492  20.405  0.00  0.00    +0.000 A 
ATOM     25  O   UNL     1       1.974   5.600  20.597  0.00  0.00    +0.000 OA
ATOM     26  C   UNL     1       2.512   6.553  19.779  0.00  0.00    +0.000 A 
ATOM     27  N   UNL     1       3.556   6.127  19.087  0.00  0.00    +0.000 NA
ATOM     28  C   UNL     1       3.727   4.820  19.485  0.00  0.00    +0.000 A 
BRANCH  26  29
ATOM     29  C   UNL     1       1.865   7.860  19.796  0.00  0.00    +0.000 A 
ATOM     30  C   UNL     1       1.261   8.364  20.962  0.00  0.00    +0.000 A 
ATOM     31  C   UNL     1       0.651   9.623  20.968  0.00  0.00    +0.000 A 
ATOM     32  C   UNL     1       0.639  10.396  19.810  0.00  0.00    +0.000 A 
ATOM     33  C   UNL     1       1.224   9.909  18.644  0.00  0.00    +0.000 A 
ATOM     34  C   UNL     1       1.828   8.651  18.644  0.00  0.00    +0.000 A 
ATOM     35  F   UNL     1       2.375   8.224  17.495  0.00  0.00    +0.000 F 
ENDBRANCH  26  29
ENDBRANCH  22  28
ENDBRANCH  19  22
ENDBRANCH   1  19
TORSDOF 9
ENDMDL
MODEL 4
REMARK VINA RESULT:      -8.5      6.814      9.476
REMARK  Name = 
REMARK  10 active torsions:
REMARK  status: ('A' for Active; 'I' for Inactive)
REMARK    1  A    between atoms: C_1  and  C_2
REMARK    2  A    between atoms: C_4  and  C_5
REMARK    3  A    between atoms: C_13  and  C_14
REMARK    4  A    between atoms: C_14  and  S_15
REMARK    5  A    between atoms: S_15  and  C_18
REMARK    6  A    between atoms: C_18  and  C_19
REMARK    7  A    between atoms: N_21  and  C_22
REMARK    8  A    between atoms: C_22  and  C_23
REMARK    9  A    between atoms: C_23  and  C_24
REMARK   10  A    between atoms: C_24  and  N_25
REMARK                            x       y       z     vdW  Elec       q    Type
REMARK                         _______ _______ _______ _____ _____    ______ ____
ROOT
ATOM      1  C   UNL     1       0.002   8.457  21.558  0.00  0.00    +0.000 C 
ENDROOT
BRANCH   1   2
ATOM      2  C   UNL     1       1.066   7.888  20.646  0.00  0.00    +0.000 C 
ATOM      3  O   UNL     1       1.469   8.504  19.662  0.00  0.00    +0.000 OA
ATOM      4  N   UNL     1       1.491   6.610  20.954  0.00  0.00    +0.000 N 
ATOM      5  H   UNL     1       1.236   6.225  21.863  0.00  0.00    +0.000 HD
BRANCH   4   6
ATOM      6  C   UNL     1       2.595   5.972  20.257  0.00  0.00    +0.000 C 
BRANCH   6   7
ATOM      7  C   UNL     1       2.200   4.675  19.543  0.00  0.00    +0.000 C 
BRANCH   7   8
ATOM      8  C   UNL     1       3.229   3.547  19.730  0.00  0.00    +0.000 C 
BRANCH   8   9
ATOM      9  N   UNL     1       4.332   3.557  18.756  0.00  0.00    +0.000 NA
ATOM     10  C   UNL     1       5.469   4.378  19.235  0.00  0.00    +0.000 C 
ATOM     11  C   UNL     1       5.884   5.572  18.352  0.00  0.00    +0.000 C 
ATOM     12  C   UNL     1       6.018   5.109  16.928  0.00  0.00    +0.000 A 
ATOM     13  C   UNL     1       7.061   5.512  16.090  0.00  0.00    +0.000 A 
ATOM     14  C   UNL     1       7.137   5.003  14.794  0.00  0.00    +0.000 A 
ATOM     15  C   UNL     1       6.172   4.105  14.332  0.00  0.00    +0.000 A 
ATOM     16  C   UNL     1       5.114   3.721  15.157  0.00  0.00    +0.000 A 
ATOM     17  C   UNL     1       5.038   4.225  16.464  0.00  0.00    +0.000 A 
ATOM     18  C   UNL     1       3.891   3.895  17.391  0.00  0.00    +0.000 C 
ENDBRANCH   8   9
ENDBRANCH   7   8
ENDBRANCH   6   7
ENDBRANCH   4   6
ENDBRANCH   1   2
BRANCH   1  19
ATOM     19  S   UNL     1       0.727   9.800  22.473  0.00  0.00    +0.000 S 
ATOM     20  O   UNL     1       2.111   9.455  22.751  0.00  0.00    +0.000 OA
ATOM     21  O   UNL     1      -0.168  10.114  23.578  0.00  0.00    +0.000 OA
BRANCH  19  22
ATOM     22  C   UNL     1       0.763  11.219  21.392  0.00  0.00    +0.000 C 
BRANCH  22  28
ATOM     23  C   UNL     1      -2.081  12.958  22.141  0.00  0.00    +0.000 C 
ATOM     24  C   UNL     1      -1.626  12.164  20.984  0.00  0.00    +0.000 A 
ATOM     25  O   UNL     1      -2.495  12.081  19.933  0.00  0.00    +0.000 OA
ATOM     26  C   UNL     1      -1.861  11.297  19.011  0.00  0.00    +0.000 A 
ATOM     27  N   UNL     1      -0.670  10.878  19.404  0.00  0.00    +0.000 NA
ATOM     28  C   UNL     1      -0.500  11.433  20.653  0.00  0.00    +0.000 A 
BRANCH  26  29
ATOM     29  C   UNL     1      -2.582  11.051  17.768  0.00  0.00    +0.000 A 
ATOM     30  C   UNL     1      -2.002  10.320  16.715  0.00  0.00    +0.000 A 
ATOM     31  C   UNL     1      -2.707  10.084  15.531  0.00  0.00    +0.000 A 
ATOM     32  C   UNL     1      -4.004  10.571  15.384  0.00  0.00    +0.000 A 
ATOM     33  C   UNL     1      -4.591  11.304  16.412  0.00  0.00    +0.000 A 
ATOM     34  C   UNL     1      -3.880  11.539  17.590  0.00  0.00    +0.000 A 
ATOM     35  F   UNL     1      -4.487  12.254  18.550  0.00  0.00    +0.000 F 
ENDBRANCH  26  29
ENDBRANCH  22  28
ENDBRANCH  19  22
ENDBRANCH   1  19
TORSDOF 9
ENDMDL
MODEL 5
REMARK VINA RESULT:      -8.5      1.730      2.350
REMARK  Name = 
REMARK  10 active torsions:
REMARK  status: ('A' for Active; 'I' for Inactive)
REMARK    1  A    between atoms: C_1  and  C_2
REMARK    2  A    between atoms: C_4  and  C_5
REMARK    3  A    between atoms: C_13  and  C_14
REMARK    4  A    between atoms: C_14  and  S_15
REMARK    5  A    between atoms: S_15  and  C_18
REMARK    6  A    between atoms: C_18  and  C_19
REMARK    7  A    between atoms: N_21  and  C_22
REMARK    8  A    between atoms: C_22  and  C_23
REMARK    9  A    between atoms: C_23  and  C_24
REMARK   10  A    between atoms: C_24  and  N_25
REMARK                            x       y       z     vdW  Elec       q    Type
REMARK                         _______ _______ _______ _____ _____    ______ ____
ROOT
ATOM      1  C   UNL     1       6.868   6.648  17.034  0.00  0.00    +0.000 C 
ENDROOT
BRANCH   1   2
ATOM      2  C   UNL     1       7.786   7.246  18.075  0.00  0.00    +0.000 C 
ATOM      3  O   UNL     1       8.191   6.590  19.032  0.00  0.00    +0.000 OA
ATOM      4  N   UNL     1       8.072   8.589  17.915  0.00  0.00    +0.000 N 
ATOM      5  H   UNL     1       7.836   9.026  17.024  0.00  0.00    +0.000 HD
BRANCH   4   6
ATOM      6  C   UNL     1       9.037   9.281  18.751  0.00  0.00    +0.000 C 
BRANCH   6   7
ATOM      7  C   UNL     1       8.881  10.805  18.731  0.00  0.00    +0.000 C 
BRANCH   7   8
ATOM      8  C   UNL     1      10.154  11.535  18.268  0.00  0.00    +0.000 C 
BRANCH   8   9
ATOM      9  N   UNL     1      10.223  12.953  18.659  0.00  0.00    +0.000 NA
ATOM     10  C   UNL     1      11.124  13.717  17.763  0.00  0.00    +0.000 C 
ATOM     11  C   UNL     1      12.331  14.414  18.423  0.00  0.00    +0.000 C 
ATOM     12  C   UNL     1      11.858  15.186  19.624  0.00  0.00    +0.000 A 
ATOM     13  C   UNL     1      12.318  16.468  19.934  0.00  0.00    +0.000 A 
ATOM     14  C   UNL     1      11.797  17.134  21.043  0.00  0.00    +0.000 A 
ATOM     15  C   UNL     1      10.831  16.521  21.844  0.00  0.00    +0.000 A 
ATOM     16  C   UNL     1      10.389  15.230  21.552  0.00  0.00    +0.000 A 
ATOM     17  C   UNL     1      10.905  14.560  20.433  0.00  0.00    +0.000 A 
ATOM     18  C   UNL     1      10.513  13.141  20.091  0.00  0.00    +0.000 C 
ENDBRANCH   8   9
ENDBRANCH   7   8
ENDBRANCH   6   7
ENDBRANCH   4   6
ENDBRANCH   1   2
BRANCH   1  19
ATOM     19  S   UNL     1       6.838   4.885  17.279  0.00  0.00    +0.000 S 
ATOM     20  O   UNL     1       6.751   4.634  18.707  0.00  0.00    +0.000 OA
ATOM     21  O   UNL     1       7.943   4.316  16.518  0.00  0.00    +0.000 OA
BRANCH  19  22
ATOM     22  C   UNL     1       5.322   4.276  16.562  0.00  0.00    +0.000 C 
BRANCH  22  28
ATOM     23  C   UNL     1       2.415   2.807  17.594  0.00  0.00    +0.000 C 
ATOM     24  C   UNL     1       2.951   4.182  17.628  0.00  0.00    +0.000 A 
ATOM     25  O   UNL     1       2.150   5.125  18.206  0.00  0.00    +0.000 OA
ATOM     26  C   UNL     1       2.850   6.294  18.104  0.00  0.00    +0.000 A 
ATOM     27  N   UNL     1       4.020   6.158  17.502  0.00  0.00    +0.000 NA
ATOM     28  C   UNL     1       4.104   4.815  17.205  0.00  0.00    +0.000 A 
BRANCH  26  29
ATOM     29  C   UNL     1       2.211   7.480  18.661  0.00  0.00    +0.000 A 
ATOM     30  C   UNL     1       1.951   8.614  17.870  0.00  0.00    +0.000 A 
ATOM     31  C   UNL     1       1.330   9.742  18.415  0.00  0.00    +0.000 A 
ATOM     32  C   UNL     1       0.956   9.752  19.756  0.00  0.00    +0.000 A 
ATOM     33  C   UNL     1       1.214   8.641  20.557  0.00  0.00    +0.000 A 
ATOM     34  C   UNL     1       1.837   7.520  20.008  0.00  0.00    +0.000 A 
ATOM     35  F   UNL     1       2.066   6.476  20.819  0.00  0.00    +0.000 F 
ENDBRANCH  26  29
ENDBRANCH  22  28
ENDBRANCH  19  22
ENDBRANCH   1  19
TORSDOF 9
ENDMDL
MODEL 6
REMARK VINA RESULT:      -8.5      4.864      8.176
REMARK  Name = 
REMARK  10 active torsions:
REMARK  status: ('A' for Active; 'I' for Inactive)
REMARK    1  A    between atoms: C_1  and  C_2
REMARK    2  A    between atoms: C_4  and  C_5
REMARK    3  A    between atoms: C_13  and  C_14
REMARK    4  A    between atoms: C_14  and  S_15
REMARK    5  A    between atoms: S_15  and  C_18
REMARK    6  A    between atoms: C_18  and  C_19
REMARK    7  A    between atoms: N_21  and  C_22
REMARK    8  A    between atoms: C_22  and  C_23
REMARK    9  A    between atoms: C_23  and  C_24
REMARK   10  A    between atoms: C_24  and  N_25
REMARK                            x       y       z     vdW  Elec       q    Type
REMARK                         _______ _______ _______ _____ _____    ______ ____
ROOT
ATOM      1  C   UNL     1       2.403   4.476  21.086  0.00  0.00    +0.000 C 
ENDROOT
BRANCH   1   2
ATOM      2  C   UNL     1       1.935   5.019  19.755  0.00  0.00    +0.000 C 
ATOM      3  O   UNL     1       1.018   4.492  19.129  0.00  0.00    +0.000 OA
ATOM      4  N   UNL     1       2.656   6.090  19.263  0.00  0.00    +0.000 N 
ATOM      5  H   UNL     1       3.293   6.572  19.898  0.00  0.00    +0.000 HD
BRANCH   4   6
ATOM      6  C   UNL     1       2.258   6.808  18.064  0.00  0.00    +0.000 C 
BRANCH   6   7
ATOM      7  C   UNL     1       2.590   8.303  18.108  0.00  0.00    +0.000 C 
BRANCH   7   8
ATOM      8  C   UNL     1       1.342   9.200  18.038  0.00  0.00    +0.000 C 
BRANCH   8   9
ATOM      9  N   UNL     1       1.039   9.924  19.283  0.00  0.00    +0.000 NA
ATOM     10  C   UNL     1       1.402   9.124  20.477  0.00  0.00    +0.000 C 
ATOM     11  C   UNL     1       0.264   8.790  21.462  0.00  0.00    +0.000 C 
ATOM     12  C   UNL     1      -0.502  10.046  21.774  0.00  0.00    +0.000 A 
ATOM     13  C   UNL     1      -0.937  10.373  23.061  0.00  0.00    +0.000 A 
ATOM     14  C   UNL     1      -1.604  11.579  23.274  0.00  0.00    +0.000 A 
ATOM     15  C   UNL     1      -1.846  12.449  22.208  0.00  0.00    +0.000 A 
ATOM     16  C   UNL     1      -1.436  12.112  20.917  0.00  0.00    +0.000 A 
ATOM     17  C   UNL     1      -0.758  10.904  20.700  0.00  0.00    +0.000 A 
ATOM     18  C   UNL     1      -0.336  10.452  19.321  0.00  0.00    +0.000 C 
ENDBRANCH   8   9
ENDBRANCH   7   8
ENDBRANCH   6   7
ENDBRANCH   4   6
ENDBRANCH   1   2
BRANCH   1  19
ATOM     19  S   UNL     1       2.381   2.699  20.991  0.00  0.00    +0.000 S 
ATOM     20  O   UNL     1       1.344   2.316  20.048  0.00  0.00    +0.000 OA
ATOM     21  O   UNL     1       2.335   2.185  22.353  0.00  0.00    +0.000 OA
BRANCH  19  22
ATOM     22  C   UNL     1       3.933   2.188  20.275  0.00  0.00    +0.000 C 
BRANCH  22  28
ATOM     23  C   UNL     1       3.266   2.559  16.944  0.00  0.00    +0.000 C 
ATOM     24  C   UNL     1       4.138   3.255  17.911  0.00  0.00    +0.000 A 
ATOM     25  O   UNL     1       4.858   4.306  17.421  0.00  0.00    +0.000 OA
ATOM     26  C   UNL     1       5.583   4.764  18.485  0.00  0.00    +0.000 A 
ATOM     27  N   UNL     1       5.377   4.079  19.598  0.00  0.00    +0.000 NA
ATOM     28  C   UNL     1       4.449   3.122  19.251  0.00  0.00    +0.000 A 
BRANCH  26  29
ATOM     29  C   UNL     1       6.448   5.910  18.232  0.00  0.00    +0.000 A 
ATOM     30  C   UNL     1       7.627   6.117  18.971  0.00  0.00    +0.000 A 
ATOM     31  C   UNL     1       8.452   7.216  18.713  0.00  0.00    +0.000 A 
ATOM     32  C   UNL     1       8.114   8.121  17.709  0.00  0.00    +0.000 A 
ATOM     33  C   UNL     1       6.947   7.936  16.974  0.00  0.00    +0.000 A 
ATOM     34  C   UNL     1       6.125   6.840  17.239  0.00  0.00    +0.000 A 
ATOM     35  F   UNL     1       5.009   6.707  16.505  0.00  0.00    +0.000 F 
ENDBRANCH  26  29
ENDBRANCH  22  28
ENDBRANCH  19  22
ENDBRANCH   1  19
TORSDOF 9
ENDMDL
MODEL 7
REMARK VINA RESULT:      -8.4      4.026      9.824
REMARK  Name = 
REMARK  10 active torsions:
REMARK  status: ('A' for Active; 'I' for Inactive)
REMARK    1  A    between atoms: C_1  and  C_2
REMARK    2  A    between atoms: C_4  and  C_5
REMARK    3  A    between atoms: C_13  and  C_14
REMARK    4  A    between atoms: C_14  and  S_15
REMARK    5  A    between atoms: S_15  and  C_18
REMARK    6  A    between atoms: C_18  and  C_19
REMARK    7  A    between atoms: N_21  and  C_22
REMARK    8  A    between atoms: C_22  and  C_23
REMARK    9  A    between atoms: C_23  and  C_24
REMARK   10  A    between atoms: C_24  and  N_25
REMARK                            x       y       z     vdW  Elec       q    Type
REMARK                         _______ _______ _______ _____ _____    ______ ____
ROOT
ATOM      1  C   UNL     1      11.057  11.493  19.036  0.00  0.00    +0.000 C 
ENDROOT
BRANCH   1   2
ATOM      2  C   UNL     1       9.747  10.771  19.258  0.00  0.00    +0.000 C 
ATOM      3  O   UNL     1       9.215  10.725  20.365  0.00  0.00    +0.000 OA
ATOM      4  N   UNL     1       9.239  10.110  18.156  0.00  0.00    +0.000 N 
ATOM      5  H   UNL     1       9.643  10.319  17.243  0.00  0.00    +0.000 HD
BRANCH   4   6
ATOM      6  C   UNL     1       7.931   9.478  18.166  0.00  0.00    +0.000 C 
BRANCH   6   7
ATOM      7  C   UNL     1       7.883   8.158  17.390  0.00  0.00    +0.000 C 
BRANCH   7   8
ATOM      8  C   UNL     1       7.744   6.927  18.303  0.00  0.00    +0.000 C 
BRANCH   8   9
ATOM      9  N   UNL     1       6.648   6.015  17.938  0.00  0.00    +0.000 NA
ATOM     10  C   UNL     1       5.664   6.679  17.050  0.00  0.00    +0.000 C 
ATOM     11  C   UNL     1       4.212   6.762  17.563  0.00  0.00    +0.000 C 
ATOM     12  C   UNL     1       3.783   5.405  18.048  0.00  0.00    +0.000 A 
ATOM     13  C   UNL     1       2.522   4.865  17.786  0.00  0.00    +0.000 A 
ATOM     14  C   UNL     1       2.217   3.581  18.236  0.00  0.00    +0.000 A 
ATOM     15  C   UNL     1       3.161   2.843  18.953  0.00  0.00    +0.000 A 
ATOM     16  C   UNL     1       4.413   3.390  19.240  0.00  0.00    +0.000 A 
ATOM     17  C   UNL     1       4.726   4.678  18.783  0.00  0.00    +0.000 A 
ATOM     18  C   UNL     1       6.040   5.351  19.104  0.00  0.00    +0.000 C 
ENDBRANCH   8   9
ENDBRANCH   7   8
ENDBRANCH   6   7
ENDBRANCH   4   6
ENDBRANCH   1   2
BRANCH   1  19
ATOM     19  S   UNL     1      10.702  13.027  18.207  0.00  0.00    +0.000 S 
ATOM     20  O   UNL     1       9.550  12.813  17.348  0.00  0.00    +0.000 OA
ATOM     21  O   UNL     1      11.947  13.513  17.627  0.00  0.00    +0.000 OA
BRANCH  19  22
ATOM     22  C   UNL     1      10.197  14.199  19.454  0.00  0.00    +0.000 C 
BRANCH  22  28
ATOM     23  C   UNL     1       9.776  17.150  17.784  0.00  0.00    +0.000 C 
ATOM     24  C   UNL     1       8.862  16.161  18.388  0.00  0.00    +0.000 A 
ATOM     25  O   UNL     1       7.527  16.426  18.271  0.00  0.00    +0.000 OA
ATOM     26  C   UNL     1       6.904  15.391  18.909  0.00  0.00    +0.000 A 
ATOM     27  N   UNL     1       7.742  14.504  19.420  0.00  0.00    +0.000 NA
ATOM     28  C   UNL     1       8.993  14.974  19.085  0.00  0.00    +0.000 A 
BRANCH  26  29
ATOM     29  C   UNL     1       5.447  15.426  18.925  0.00  0.00    +0.000 A 
ATOM     30  C   UNL     1       4.689  14.963  17.835  0.00  0.00    +0.000 A 
ATOM     31  C   UNL     1       3.291  14.994  17.867  0.00  0.00    +0.000 A 
ATOM     32  C   UNL     1       2.631  15.485  18.991  0.00  0.00    +0.000 A 
ATOM     33  C   UNL     1       3.365  15.956  20.076  0.00  0.00    +0.000 A 
ATOM     34  C   UNL     1       4.760  15.925  20.037  0.00  0.00    +0.000 A 
ATOM     35  F   UNL     1       5.423  16.393  21.105  0.00  0.00    +0.000 F 
ENDBRANCH  26  29
ENDBRANCH  22  28
ENDBRANCH  19  22
ENDBRANCH   1  19
TORSDOF 9
ENDMDL
MODEL 8
REMARK VINA RESULT:      -8.4      5.833      7.535
REMARK  Name = 
REMARK  10 active torsions:
REMARK  status: ('A' for Active; 'I' for Inactive)
REMARK    1  A    between atoms: C_1  and  C_2
REMARK    2  A    between atoms: C_4  and  C_5
REMARK    3  A    between atoms: C_13  and  C_14
REMARK    4  A    between atoms: C_14  and  S_15
REMARK    5  A    between atoms: S_15  and  C_18
REMARK    6  A    between atoms: C_18  and  C_19
REMARK    7  A    between atoms: N_21  and  C_22
REMARK    8  A    between atoms: C_22  and  C_23
REMARK    9  A    between atoms: C_23  and  C_24
REMARK   10  A    between atoms: C_24  and  N_25
REMARK                            x       y       z     vdW  Elec       q    Type
REMARK                         _______ _______ _______ _____ _____    ______ ____
ROOT
ATOM      1  C   UNL     1       5.239   6.159  15.318  0.00  0.00    +0.000 C 
ENDROOT
BRANCH   1   2
ATOM      2  C   UNL     1       5.075   7.005  16.560  0.00  0.00    +0.000 C 
ATOM      3  O   UNL     1       5.958   7.770  16.942  0.00  0.00    +0.000 OA
ATOM      4  N   UNL     1       3.905   6.801  17.268  0.00  0.00    +0.000 N 
ATOM      5  H   UNL     1       3.156   6.277  16.816  0.00  0.00    +0.000 HD
BRANCH   4   6
ATOM      6  C   UNL     1       3.537   7.623  18.408  0.00  0.00    +0.000 C 
BRANCH   6   7
ATOM      7  C   UNL     1       2.044   7.562  18.748  0.00  0.00    +0.000 C 
BRANCH   7   8
ATOM      8  C   UNL     1       1.764   7.666  20.257  0.00  0.00    +0.000 C 
BRANCH   8   9
ATOM      9  N   UNL     1       1.335   8.999  20.710  0.00  0.00    +0.000 NA
ATOM     10  C   UNL     1       1.361   9.103  22.188  0.00  0.00    +0.000 C 
ATOM     11  C   UNL     1       0.025   9.434  22.884  0.00  0.00    +0.000 C 
ATOM     12  C   UNL     1      -0.610  10.611  22.197  0.00  0.00    +0.000 A 
ATOM     13  C   UNL     1      -1.228  11.655  22.890  0.00  0.00    +0.000 A 
ATOM     14  C   UNL     1      -1.756  12.732  22.179  0.00  0.00    +0.000 A 
ATOM     15  C   UNL     1      -1.677  12.763  20.785  0.00  0.00    +0.000 A 
ATOM     16  C   UNL     1      -1.084  11.709  20.089  0.00  0.00    +0.000 A 
ATOM     17  C   UNL     1      -0.546  10.628  20.800  0.00  0.00    +0.000 A 
ATOM     18  C   UNL     1       0.060   9.428  20.109  0.00  0.00    +0.000 C 
ENDBRANCH   8   9
ENDBRANCH   7   8
ENDBRANCH   6   7
ENDBRANCH   4   6
ENDBRANCH   1   2
BRANCH   1  19
ATOM     19  S   UNL     1       6.904   5.529  15.302  0.00  0.00    +0.000 S 
ATOM     20  O   UNL     1       7.739   6.458  16.043  0.00  0.00    +0.000 OA
ATOM     21  O   UNL     1       7.240   5.208  13.922  0.00  0.00    +0.000 OA
BRANCH  19  22
ATOM     22  C   UNL     1       6.900   4.001  16.224  0.00  0.00    +0.000 C 
BRANCH  22  28
ATOM     23  C   UNL     1       7.741   5.419  19.217  0.00  0.00    +0.000 C 
ATOM     24  C   UNL     1       6.560   4.695  18.708  0.00  0.00    +0.000 A 
ATOM     25  O   UNL     1       5.527   4.537  19.587  0.00  0.00    +0.000 OA
ATOM     26  C   UNL     1       4.578   3.838  18.896  0.00  0.00    +0.000 A 
ATOM     27  N   UNL     1       4.938   3.542  17.658  0.00  0.00    +0.000 NA
ATOM     28  C   UNL     1       6.193   4.092  17.519  0.00  0.00    +0.000 A 
BRANCH  26  29
ATOM     29  C   UNL     1       3.347   3.537  19.615  0.00  0.00    +0.000 A 
ATOM     30  C   UNL     1       3.368   2.957  20.897  0.00  0.00    +0.000 A 
ATOM     31  C   UNL     1       2.178   2.681  21.579  0.00  0.00    +0.000 A 
ATOM     32  C   UNL     1       0.952   2.983  20.993  0.00  0.00    +0.000 A 
ATOM     33  C   UNL     1       0.912   3.550  19.721  0.00  0.00    +0.000 A 
ATOM     34  C   UNL     1       2.102   3.820  19.044  0.00  0.00    +0.000 A 
ATOM     35  F   UNL     1       2.011   4.363  17.820  0.00  0.00    +0.000 F 
ENDBRANCH  26  29
ENDBRANCH  22  28
ENDBRANCH  19  22
ENDBRANCH   1  19
TORSDOF 9
ENDMDL
MODEL 9
REMARK VINA RESULT:      -8.4      1.814      2.546
REMARK  Name = 
REMARK  10 active torsions:
REMARK  status: ('A' for Active; 'I' for Inactive)
REMARK    1  A    between atoms: C_1  and  C_2
REMARK    2  A    between atoms: C_4  and  C_5
REMARK    3  A    between atoms: C_13  and  C_14
REMARK    4  A    between atoms: C_14  and  S_15
REMARK    5  A    between atoms: S_15  and  C_18
REMARK    6  A    between atoms: C_18  and  C_19
REMARK    7  A    between atoms: N_21  and  C_22
REMARK    8  A    between atoms: C_22  and  C_23
REMARK    9  A    between atoms: C_23  and  C_24
REMARK   10  A    between atoms: C_24  and  N_25
REMARK                            x       y       z     vdW  Elec       q    Type
REMARK                         _______ _______ _______ _____ _____    ______ ____
ROOT
ATOM      1  C   UNL     1       7.195   6.869  16.862  0.00  0.00    +0.000 C 
ENDROOT
BRANCH   1   2
ATOM      2  C   UNL     1       7.957   7.641  17.914  0.00  0.00    +0.000 C 
ATOM      3  O   UNL     1       8.421   7.090  18.910  0.00  0.00    +0.000 OA
ATOM      4  N   UNL     1       8.027   9.007  17.715  0.00  0.00    +0.000 N 
ATOM      5  H   UNL     1       7.763   9.373  16.800  0.00  0.00    +0.000 HD
BRANCH   4   6
ATOM      6  C   UNL     1       8.829   9.874  18.561  0.00  0.00    +0.000 C 
BRANCH   6   7
ATOM      7  C   UNL     1       9.342  11.126  17.843  0.00  0.00    +0.000 C 
BRANCH   7   8
ATOM      8  C   UNL     1      10.605  11.719  18.491  0.00  0.00    +0.000 C 
BRANCH   8   9
ATOM      9  N   UNL     1      10.345  12.743  19.515  0.00  0.00    +0.000 NA
ATOM     10  C   UNL     1      10.604  12.224  20.879  0.00  0.00    +0.000 C 
ATOM     11  C   UNL     1       9.418  12.236  21.864  0.00  0.00    +0.000 C 
ATOM     12  C   UNL     1       8.768  13.591  21.836  0.00  0.00    +0.000 A 
ATOM     13  C   UNL     1       8.338  14.254  22.989  0.00  0.00    +0.000 A 
ATOM     14  C   UNL     1       7.783  15.528  22.882  0.00  0.00    +0.000 A 
ATOM     15  C   UNL     1       7.649  16.135  21.631  0.00  0.00    +0.000 A 
ATOM     16  C   UNL     1       8.053  15.466  20.475  0.00  0.00    +0.000 A 
ATOM     17  C   UNL     1       8.618  14.187  20.580  0.00  0.00    +0.000 A 
ATOM     18  C   UNL     1       9.025  13.383  19.367  0.00  0.00    +0.000 C 
ENDBRANCH   8   9
ENDBRANCH   7   8
ENDBRANCH   6   7
ENDBRANCH   4   6
ENDBRANCH   1   2
BRANCH   1  19
ATOM     19  S   UNL     1       6.867   5.243  17.507  0.00  0.00    +0.000 S 
ATOM     20  O   UNL     1       6.523   5.382  18.912  0.00  0.00    +0.000 OA
ATOM     21  O   UNL     1       7.978   4.384  17.124  0.00  0.00    +0.000 OA
BRANCH  19  22
ATOM     22  C   UNL     1       5.407   4.632  16.684  0.00  0.00    +0.000 C 
BRANCH  22  28
ATOM     23  C   UNL     1       2.394   3.181  17.386  0.00  0.00    +0.000 C 
ATOM     24  C   UNL     1       2.948   4.541  17.529  0.00  0.00    +0.000 A 
ATOM     25  O   UNL     1       2.114   5.475  18.076  0.00  0.00    +0.000 OA
ATOM     26  C   UNL     1       2.840   6.633  18.088  0.00  0.00    +0.000 A 
ATOM     27  N   UNL     1       4.057   6.498  17.588  0.00  0.00    +0.000 NA
ATOM     28  C   UNL     1       4.145   5.168  17.240  0.00  0.00    +0.000 A 
BRANCH  26  29
ATOM     29  C   UNL     1       2.174   7.807  18.639  0.00  0.00    +0.000 A 
ATOM     30  C   UNL     1       2.032   8.989  17.890  0.00  0.00    +0.000 A 
ATOM     31  C   UNL     1       1.383  10.105  18.427  0.00  0.00    +0.000 A 
ATOM     32  C   UNL     1       0.863  10.055  19.718  0.00  0.00    +0.000 A 
ATOM     33  C   UNL     1       1.003   8.896  20.477  0.00  0.00    +0.000 A 
ATOM     34  C   UNL     1       1.654   7.786  19.937  0.00  0.00    +0.000 A 
ATOM     35  F   UNL     1       1.766   6.694  20.708  0.00  0.00    +0.000 F 
ENDBRANCH  26  29
ENDBRANCH  22  28
ENDBRANCH  19  22
ENDBRANCH   1  19
TORSDOF 9
ENDMDL
