MODEL 1
REMARK VINA RESULT:      -7.5      0.000      0.000
REMARK  Name = 
REMARK  5 active torsions:
REMARK  status: ('A' for Active; 'I' for Inactive)
REMARK    1  A    between atoms: C_1  and  C_2
REMARK    2  A    between atoms: C_2  and  S_3
REMARK    3  A    between atoms: S_3  and  C_6
REMARK    4  A    between atoms: C_8  and  C_9
REMARK    5  A    between atoms: C_15  and  C_16
REMARK                            x       y       z     vdW  Elec       q    Type
REMARK                         _______ _______ _______ _____ _____    ______ ____
ROOT
ATOM      1  C   UNL     1       5.440   5.110  18.252  0.00  0.00    +0.000 A 
ATOM      2  N   UNL     1       4.703   6.231  18.317  0.00  0.00    +0.000 NA
ATOM      3  C   UNL     1       3.381   6.044  18.470  0.00  0.00    +0.000 A 
ATOM      4  C   UNL     1       2.810   4.783  18.514  0.00  0.00    +0.000 A 
ATOM      5  C   UNL     1       3.660   3.688  18.451  0.00  0.00    +0.000 A 
ATOM      6  N   UNL     1       5.006   3.838  18.340  0.00  0.00    +0.000 NA
ENDROOT
BRANCH   3   7
ATOM      7  C   UNL     1       2.597   7.280  18.597  0.00  0.00    +0.000 A 
ATOM      8  C   UNL     1       2.391   8.275  17.655  0.00  0.00    +0.000 A 
ATOM      9  C   UNL     1       1.596   9.352  18.149  0.00  0.00    +0.000 A 
ATOM     10  C   UNL     1       1.229   9.159  19.461  0.00  0.00    +0.000 A 
ATOM     11  S   UNL     1       1.833   7.691  20.084  0.00  0.00    +0.000 S 
ENDBRANCH   3   7
BRANCH   5  12
ATOM     12  C   UNL     1       3.068   2.285  18.521  0.00  0.00    +0.000 C 
ATOM     13  F   UNL     1       2.423   1.917  17.373  0.00  0.00    +0.000 F 
ATOM     14  F   UNL     1       4.004   1.321  18.739  0.00  0.00    +0.000 F 
ATOM     15  F   UNL     1       2.145   2.155  19.514  0.00  0.00    +0.000 F 
ENDBRANCH   5  12
BRANCH   1  16
ATOM     16  S   UNL     1       7.204   5.326  18.007  0.00  0.00    +0.000 S 
ATOM     17  O   UNL     1       7.651   4.381  16.993  0.00  0.00    +0.000 OA
ATOM     18  O   UNL     1       7.838   5.351  19.315  0.00  0.00    +0.000 OA
BRANCH  16  20
ATOM     19  C   UNL     1       8.149   7.885  18.158  0.00  0.00    +0.000 C 
ATOM     20  C   UNL     1       7.317   6.956  17.292  0.00  0.00    +0.000 C 
ENDBRANCH  16  20
ENDBRANCH   1  16
TORSDOF 4
ENDMDL
MODEL 2
REMARK VINA RESULT:      -7.5      0.691      1.221
REMARK  Name = 
REMARK  5 active torsions:
REMARK  status: ('A' for Active; 'I' for Inactive)
REMARK    1  A    between atoms: C_1  and  C_2
REMARK    2  A    between atoms: C_2  and  S_3
REMARK    3  A    between atoms: S_3  and  C_6
REMARK    4  A    between atoms: C_8  and  C_9
REMARK    5  A    between atoms: C_15  and  C_16
REMARK                            x       y       z     vdW  Elec       q    Type
REMARK                         _______ _______ _______ _____ _____    ______ ____
ROOT
ATOM      1  C   UNL     1       5.329   5.290  17.643  0.00  0.00    +0.000 A 
ATOM      2  N   UNL     1       4.592   6.394  17.855  0.00  0.00    +0.000 NA
ATOM      3  C   UNL     1       3.321   6.173  18.234  0.00  0.00    +0.000 A 
ATOM      4  C   UNL     1       2.793   4.899  18.356  0.00  0.00    +0.000 A 
ATOM      5  C   UNL     1       3.642   3.824  18.126  0.00  0.00    +0.000 A 
ATOM      6  N   UNL     1       4.944   4.008  17.784  0.00  0.00    +0.000 NA
ENDROOT
BRANCH   3   7
ATOM      7  C   UNL     1       2.546   7.389  18.517  0.00  0.00    +0.000 A 
ATOM      8  C   UNL     1       2.305   8.474  17.690  0.00  0.00    +0.000 A 
ATOM      9  C   UNL     1       1.533   9.493  18.322  0.00  0.00    +0.000 A 
ATOM     10  C   UNL     1       1.218   9.168  19.621  0.00  0.00    +0.000 A 
ATOM     11  S   UNL     1       1.843   7.645  20.067  0.00  0.00    +0.000 S 
ENDBRANCH   3   7
BRANCH   5  12
ATOM     12  C   UNL     1       3.101   2.407  18.275  0.00  0.00    +0.000 C 
ATOM     13  F   UNL     1       2.353   2.235  19.406  0.00  0.00    +0.000 F 
ATOM     14  F   UNL     1       2.296   2.032  17.244  0.00  0.00    +0.000 F 
ATOM     15  F   UNL     1       4.090   1.474  18.349  0.00  0.00    +0.000 F 
ENDBRANCH   5  12
BRANCH   1  16
ATOM     16  S   UNL     1       7.017   5.551  17.097  0.00  0.00    +0.000 S 
ATOM     17  O   UNL     1       6.989   6.196  15.792  0.00  0.00    +0.000 OA
ATOM     18  O   UNL     1       7.746   4.307  17.284  0.00  0.00    +0.000 OA
BRANCH  16  20
ATOM     19  C   UNL     1       7.825   8.110  17.612  0.00  0.00    +0.000 C 
ATOM     20  C   UNL     1       7.639   6.751  18.262  0.00  0.00    +0.000 C 
ENDBRANCH  16  20
ENDBRANCH   1  16
TORSDOF 4
ENDMDL
MODEL 3
REMARK VINA RESULT:      -7.4      1.340      1.885
REMARK  Name = 
REMARK  5 active torsions:
REMARK  status: ('A' for Active; 'I' for Inactive)
REMARK    1  A    between atoms: C_1  and  C_2
REMARK    2  A    between atoms: C_2  and  S_3
REMARK    3  A    between atoms: S_3  and  C_6
REMARK    4  A    between atoms: C_8  and  C_9
REMARK    5  A    between atoms: C_15  and  C_16
REMARK                            x       y       z     vdW  Elec       q    Type
REMARK                         _______ _______ _______ _____ _____    ______ ____
ROOT
ATOM      1  C   UNL     1       5.050   5.113  17.701  0.00  0.00    +0.000 A 
ATOM      2  N   UNL     1       4.403   6.277  17.880  0.00  0.00    +0.000 NA
ATOM      3  C   UNL     1       3.122   6.169  18.273  0.00  0.00    +0.000 A 
ATOM      4  C   UNL     1       2.497   4.944  18.442  0.00  0.00    +0.000 A 
ATOM      5  C   UNL     1       3.258   3.800  18.244  0.00  0.00    +0.000 A 
ATOM      6  N   UNL     1       4.568   3.870  17.888  0.00  0.00    +0.000 NA
ENDROOT
BRANCH   3   7
ATOM      7  C   UNL     1       2.447   7.450  18.520  0.00  0.00    +0.000 A 
ATOM      8  C   UNL     1       2.290   8.526  17.660  0.00  0.00    +0.000 A 
ATOM      9  C   UNL     1       1.603   9.621  18.261  0.00  0.00    +0.000 A 
ATOM     10  C   UNL     1       1.266   9.362  19.569  0.00  0.00    +0.000 A 
ATOM     11  S   UNL     1       1.769   7.808  20.061  0.00  0.00    +0.000 S 
ENDBRANCH   3   7
BRANCH   5  12
ATOM     12  C   UNL     1       2.610   2.435  18.444  0.00  0.00    +0.000 C 
ATOM     13  F   UNL     1       2.665   2.000  19.738  0.00  0.00    +0.000 F 
ATOM     14  F   UNL     1       1.291   2.416  18.108  0.00  0.00    +0.000 F 
ATOM     15  F   UNL     1       3.208   1.458  17.707  0.00  0.00    +0.000 F 
ENDBRANCH   5  12
BRANCH   1  16
ATOM     16  S   UNL     1       6.749   5.223  17.137  0.00  0.00    +0.000 S 
ATOM     17  O   UNL     1       7.606   4.570  18.117  0.00  0.00    +0.000 OA
ATOM     18  O   UNL     1       7.003   6.600  16.744  0.00  0.00    +0.000 OA
BRANCH  16  20
ATOM     19  C   UNL     1       5.831   4.761  14.605  0.00  0.00    +0.000 C 
ATOM     20  C   UNL     1       6.757   4.205  15.672  0.00  0.00    +0.000 C 
ENDBRANCH  16  20
ENDBRANCH   1  16
TORSDOF 4
ENDMDL
MODEL 4
REMARK VINA RESULT:      -7.4      0.874      1.057
REMARK  Name = 
REMARK  5 active torsions:
REMARK  status: ('A' for Active; 'I' for Inactive)
REMARK    1  A    between atoms: C_1  and  C_2
REMARK    2  A    between atoms: C_2  and  S_3
REMARK    3  A    between atoms: S_3  and  C_6
REMARK    4  A    between atoms: C_8  and  C_9
REMARK    5  A    between atoms: C_15  and  C_16
REMARK                            x       y       z     vdW  Elec       q    Type
REMARK                         _______ _______ _______ _____ _____    ______ ____
ROOT
ATOM      1  C   UNL     1       5.107   5.272  17.283  0.00  0.00    +0.000 A 
ATOM      2  N   UNL     1       4.404   6.383  17.560  0.00  0.00    +0.000 NA
ATOM      3  C   UNL     1       3.198   6.178  18.117  0.00  0.00    +0.000 A 
ATOM      4  C   UNL     1       2.694   4.909  18.351  0.00  0.00    +0.000 A 
ATOM      5  C   UNL     1       3.505   3.826  18.040  0.00  0.00    +0.000 A 
ATOM      6  N   UNL     1       4.747   3.995  17.516  0.00  0.00    +0.000 NA
ENDROOT
BRANCH   3   7
ATOM      7  C   UNL     1       2.468   7.404  18.466  0.00  0.00    +0.000 A 
ATOM      8  C   UNL     1       2.213   8.515  17.677  0.00  0.00    +0.000 A 
ATOM      9  C   UNL     1       1.498   9.536  18.370  0.00  0.00    +0.000 A 
ATOM     10  C   UNL     1       1.238   9.187  19.675  0.00  0.00    +0.000 A 
ATOM     11  S   UNL     1       1.847   7.639  20.055  0.00  0.00    +0.000 S 
ENDBRANCH   3   7
BRANCH   5  12
ATOM     12  C   UNL     1       2.992   2.416  18.307  0.00  0.00    +0.000 C 
ATOM     13  F   UNL     1       2.414   1.840  17.211  0.00  0.00    +0.000 F 
ATOM     14  F   UNL     1       3.972   1.556  18.697  0.00  0.00    +0.000 F 
ATOM     15  F   UNL     1       2.041   2.380  19.281  0.00  0.00    +0.000 F 
ENDBRANCH   5  12
BRANCH   1  16
ATOM     16  S   UNL     1       6.703   5.511  16.501  0.00  0.00    +0.000 S 
ATOM     17  O   UNL     1       6.487   5.875  15.107  0.00  0.00    +0.000 OA
ATOM     18  O   UNL     1       7.543   4.373  16.839  0.00  0.00    +0.000 OA
BRANCH  16  20
ATOM     19  C   UNL     1       7.942   6.602  18.678  0.00  0.00    +0.000 C 
ATOM     20  C   UNL     1       7.347   6.955  17.327  0.00  0.00    +0.000 C 
ENDBRANCH  16  20
ENDBRANCH   1  16
TORSDOF 4
ENDMDL
MODEL 5
REMARK VINA RESULT:      -7.4      1.478      1.877
REMARK  Name = 
REMARK  5 active torsions:
REMARK  status: ('A' for Active; 'I' for Inactive)
REMARK    1  A    between atoms: C_1  and  C_2
REMARK    2  A    between atoms: C_2  and  S_3
REMARK    3  A    between atoms: S_3  and  C_6
REMARK    4  A    between atoms: C_8  and  C_9
REMARK    5  A    between atoms: C_15  and  C_16
REMARK                            x       y       z     vdW  Elec       q    Type
REMARK                         _______ _______ _______ _____ _____    ______ ____
ROOT
ATOM      1  C   UNL     1       5.284   5.088  18.137  0.00  0.00    +0.000 A 
ATOM      2  N   UNL     1       4.528   6.197  18.062  0.00  0.00    +0.000 NA
ATOM      3  C   UNL     1       3.380   6.159  18.760  0.00  0.00    +0.000 A 
ATOM      4  C   UNL     1       2.980   5.041  19.473  0.00  0.00    +0.000 A 
ATOM      5  C   UNL     1       3.840   3.951  19.498  0.00  0.00    +0.000 A 
ATOM      6  N   UNL     1       5.029   3.968  18.840  0.00  0.00    +0.000 NA
ENDROOT
BRANCH   3   7
ATOM      7  C   UNL     1       2.594   7.400  18.713  0.00  0.00    +0.000 A 
ATOM      8  C   UNL     1       2.451   8.295  17.666  0.00  0.00    +0.000 A 
ATOM      9  C   UNL     1       1.629   9.412  17.998  0.00  0.00    +0.000 A 
ATOM     10  C   UNL     1       1.179   9.351  19.297  0.00  0.00    +0.000 A 
ATOM     11  S   UNL     1       1.737   7.953  20.100  0.00  0.00    +0.000 S 
ENDBRANCH   3   7
BRANCH   5  12
ATOM     12  C   UNL     1       3.443   2.712  20.293  0.00  0.00    +0.000 C 
ATOM     13  F   UNL     1       2.596   1.886  19.610  0.00  0.00    +0.000 F 
ATOM     14  F   UNL     1       4.507   1.938  20.641  0.00  0.00    +0.000 F 
ATOM     15  F   UNL     1       2.796   3.019  21.452  0.00  0.00    +0.000 F 
ENDBRANCH   5  12
BRANCH   1  16
ATOM     16  S   UNL     1       6.803   5.092  17.184  0.00  0.00    +0.000 S 
ATOM     17  O   UNL     1       7.838   4.422  17.958  0.00  0.00    +0.000 OA
ATOM     18  O   UNL     1       7.018   6.442  16.688  0.00  0.00    +0.000 OA
BRANCH  16  20
ATOM     19  C   UNL     1       5.630   4.781  14.736  0.00  0.00    +0.000 C 
ATOM     20  C   UNL     1       6.416   4.036  15.800  0.00  0.00    +0.000 C 
ENDBRANCH  16  20
ENDBRANCH   1  16
TORSDOF 4
ENDMDL
MODEL 6
REMARK VINA RESULT:      -7.3      3.188      4.365
REMARK  Name = 
REMARK  5 active torsions:
REMARK  status: ('A' for Active; 'I' for Inactive)
REMARK    1  A    between atoms: C_1  and  C_2
REMARK    2  A    between atoms: C_2  and  S_3
REMARK    3  A    between atoms: S_3  and  C_6
REMARK    4  A    between atoms: C_8  and  C_9
REMARK    5  A    between atoms: C_15  and  C_16
REMARK                            x       y       z     vdW  Elec       q    Type
REMARK                         _______ _______ _______ _____ _____    ______ ____
ROOT
ATOM      1  C   UNL     1       4.104   4.173  18.764  0.00  0.00    +0.000 A 
ATOM      2  N   UNL     1       3.290   5.219  18.983  0.00  0.00    +0.000 NA
ATOM      3  C   UNL     1       3.622   6.352  18.340  0.00  0.00    +0.000 A 
ATOM      4  C   UNL     1       4.748   6.449  17.540  0.00  0.00    +0.000 A 
ATOM      5  C   UNL     1       5.517   5.306  17.368  0.00  0.00    +0.000 A 
ATOM      6  N   UNL     1       5.189   4.132  17.967  0.00  0.00    +0.000 NA
ENDROOT
BRANCH   3   7
ATOM      7  C   UNL     1       2.690   7.469  18.546  0.00  0.00    +0.000 A 
ATOM      8  C   UNL     1       2.351   8.487  17.669  0.00  0.00    +0.000 A 
ATOM      9  C   UNL     1       1.431   9.420  18.230  0.00  0.00    +0.000 A 
ATOM     10  C   UNL     1       1.102   9.101  19.528  0.00  0.00    +0.000 A 
ATOM     11  S   UNL     1       1.893   7.685  20.056  0.00  0.00    +0.000 S 
ENDBRANCH   3   7
BRANCH   5  12
ATOM     12  C   UNL     1       6.751   5.371  16.475  0.00  0.00    +0.000 C 
ATOM     13  F   UNL     1       7.535   6.462  16.722  0.00  0.00    +0.000 F 
ATOM     14  F   UNL     1       7.570   4.293  16.617  0.00  0.00    +0.000 F 
ATOM     15  F   UNL     1       6.436   5.441  15.151  0.00  0.00    +0.000 F 
ENDBRANCH   5  12
BRANCH   1  16
ATOM     16  S   UNL     1       3.711   2.658  19.640  0.00  0.00    +0.000 S 
ATOM     17  O   UNL     1       4.928   2.149  20.255  0.00  0.00    +0.000 OA
ATOM     18  O   UNL     1       2.932   1.814  18.748  0.00  0.00    +0.000 OA
BRANCH  16  20
ATOM     19  C   UNL     1       1.192   2.912  20.667  0.00  0.00    +0.000 C 
ATOM     20  C   UNL     1       2.650   3.217  20.960  0.00  0.00    +0.000 C 
ENDBRANCH  16  20
ENDBRANCH   1  16
TORSDOF 4
ENDMDL
MODEL 7
REMARK VINA RESULT:      -7.3      3.186      4.384
REMARK  Name = 
REMARK  5 active torsions:
REMARK  status: ('A' for Active; 'I' for Inactive)
REMARK    1  A    between atoms: C_1  and  C_2
REMARK    2  A    between atoms: C_2  and  S_3
REMARK    3  A    between atoms: S_3  and  C_6
REMARK    4  A    between atoms: C_8  and  C_9
REMARK    5  A    between atoms: C_15  and  C_16
REMARK                            x       y       z     vdW  Elec       q    Type
REMARK                         _______ _______ _______ _____ _____    ______ ____
ROOT
ATOM      1  C   UNL     1       4.063   4.015  18.621  0.00  0.00    +0.000 A 
ATOM      2  N   UNL     1       3.254   5.067  18.834  0.00  0.00    +0.000 NA
ATOM      3  C   UNL     1       3.677   6.233  18.316  0.00  0.00    +0.000 A 
ATOM      4  C   UNL     1       4.882   6.354  17.644  0.00  0.00    +0.000 A 
ATOM      5  C   UNL     1       5.639   5.203  17.466  0.00  0.00    +0.000 A 
ATOM      6  N   UNL     1       5.224   3.999  17.938  0.00  0.00    +0.000 NA
ENDROOT
BRANCH   3   7
ATOM      7  C   UNL     1       2.754   7.360  18.509  0.00  0.00    +0.000 A 
ATOM      8  C   UNL     1       2.429   8.374  17.623  0.00  0.00    +0.000 A 
ATOM      9  C   UNL     1       1.514   9.320  18.174  0.00  0.00    +0.000 A 
ATOM     10  C   UNL     1       1.176   9.013  19.472  0.00  0.00    +0.000 A 
ATOM     11  S   UNL     1       1.951   7.593  20.014  0.00  0.00    +0.000 S 
ENDBRANCH   3   7
BRANCH   5  12
ATOM     12  C   UNL     1       6.959   5.295  16.710  0.00  0.00    +0.000 C 
ATOM     13  F   UNL     1       6.815   5.149  15.359  0.00  0.00    +0.000 F 
ATOM     14  F   UNL     1       7.592   6.487  16.884  0.00  0.00    +0.000 F 
ATOM     15  F   UNL     1       7.846   4.331  17.087  0.00  0.00    +0.000 F 
ENDBRANCH   5  12
BRANCH   1  16
ATOM     16  S   UNL     1       3.546   2.453  19.335  0.00  0.00    +0.000 S 
ATOM     17  O   UNL     1       4.414   2.150  20.464  0.00  0.00    +0.000 OA
ATOM     18  O   UNL     1       3.391   1.494  18.253  0.00  0.00    +0.000 OA
BRANCH  16  20
ATOM     19  C   UNL     1       1.954   2.873  21.515  0.00  0.00    +0.000 C 
ATOM     20  C   UNL     1       1.932   2.824  19.998  0.00  0.00    +0.000 C 
ENDBRANCH  16  20
ENDBRANCH   1  16
TORSDOF 4
ENDMDL
MODEL 8
REMARK VINA RESULT:      -7.2      0.882      1.080
REMARK  Name = 
REMARK  5 active torsions:
REMARK  status: ('A' for Active; 'I' for Inactive)
REMARK    1  A    between atoms: C_1  and  C_2
REMARK    2  A    between atoms: C_2  and  S_3
REMARK    3  A    between atoms: S_3  and  C_6
REMARK    4  A    between atoms: C_8  and  C_9
REMARK    5  A    between atoms: C_15  and  C_16
REMARK                            x       y       z     vdW  Elec       q    Type
REMARK                         _______ _______ _______ _____ _____    ______ ____
ROOT
ATOM      1  C   UNL     1       4.744   4.850  17.999  0.00  0.00    +0.000 A 
ATOM      2  N   UNL     1       4.167   6.060  18.091  0.00  0.00    +0.000 NA
ATOM      3  C   UNL     1       2.888   6.058  18.505  0.00  0.00    +0.000 A 
ATOM      4  C   UNL     1       2.198   4.889  18.779  0.00  0.00    +0.000 A 
ATOM      5  C   UNL     1       2.889   3.691  18.665  0.00  0.00    +0.000 A 
ATOM      6  N   UNL     1       4.195   3.655  18.290  0.00  0.00    +0.000 NA
ENDROOT
BRANCH   3   7
ATOM      7  C   UNL     1       2.291   7.392  18.655  0.00  0.00    +0.000 A 
ATOM      8  C   UNL     1       2.155   8.391  17.705  0.00  0.00    +0.000 A 
ATOM      9  C   UNL     1       1.551   9.574  18.225  0.00  0.00    +0.000 A 
ATOM     10  C   UNL     1       1.256   9.454  19.564  0.00  0.00    +0.000 A 
ATOM     11  S   UNL     1       1.698   7.926  20.180  0.00  0.00    +0.000 S 
ENDBRANCH   3   7
BRANCH   5  12
ATOM     12  C   UNL     1       2.167   2.386  18.981  0.00  0.00    +0.000 C 
ATOM     13  F   UNL     1       2.868   1.278  18.594  0.00  0.00    +0.000 F 
ATOM     14  F   UNL     1       1.924   2.219  20.310  0.00  0.00    +0.000 F 
ATOM     15  F   UNL     1       0.961   2.290  18.355  0.00  0.00    +0.000 F 
ENDBRANCH   5  12
BRANCH   1  16
ATOM     16  S   UNL     1       6.438   4.816  17.410  0.00  0.00    +0.000 S 
ATOM     17  O   UNL     1       6.484   4.044  16.176  0.00  0.00    +0.000 OA
ATOM     18  O   UNL     1       7.295   4.459  18.529  0.00  0.00    +0.000 OA
BRANCH  16  20
ATOM     19  C   UNL     1       7.713   7.170  17.954  0.00  0.00    +0.000 C 
ATOM     20  C   UNL     1       6.751   6.517  16.977  0.00  0.00    +0.000 C 
ENDBRANCH  16  20
ENDBRANCH   1  16
TORSDOF 4
ENDMDL
MODEL 9
REMARK VINA RESULT:      -7.2      1.673      2.229
REMARK  Name = 
REMARK  5 active torsions:
REMARK  status: ('A' for Active; 'I' for Inactive)
REMARK    1  A    between atoms: C_1  and  C_2
REMARK    2  A    between atoms: C_2  and  S_3
REMARK    3  A    between atoms: S_3  and  C_6
REMARK    4  A    between atoms: C_8  and  C_9
REMARK    5  A    between atoms: C_15  and  C_16
REMARK                            x       y       z     vdW  Elec       q    Type
REMARK                         _______ _______ _______ _____ _____    ______ ____
ROOT
ATOM      1  C   UNL     1       4.243   5.070  18.773  0.00  0.00    +0.000 A 
ATOM      2  N   UNL     1       3.673   6.287  18.766  0.00  0.00    +0.000 NA
ATOM      3  C   UNL     1       2.546   6.399  19.490  0.00  0.00    +0.000 A 
ATOM      4  C   UNL     1       1.985   5.326  20.162  0.00  0.00    +0.000 A 
ATOM      5  C   UNL     1       2.659   4.113  20.117  0.00  0.00    +0.000 A 
ATOM      6  N   UNL     1       3.824   3.972  19.431  0.00  0.00    +0.000 NA
ENDROOT
BRANCH   3   7
ATOM      7  C   UNL     1       1.968   7.750  19.518  0.00  0.00    +0.000 A 
ATOM      8  C   UNL     1       1.328   8.396  20.563  0.00  0.00    +0.000 A 
ATOM      9  C   UNL     1       0.865   9.698  20.210  0.00  0.00    +0.000 A 
ATOM     10  C   UNL     1       1.150  10.008  18.900  0.00  0.00    +0.000 A 
ATOM     11  S   UNL     1       1.974   8.740  18.110  0.00  0.00    +0.000 S 
ENDBRANCH   3   7
BRANCH   5  12
ATOM     12  C   UNL     1       2.083   2.917  20.866  0.00  0.00    +0.000 C 
ATOM     13  F   UNL     1       2.871   2.504  21.903  0.00  0.00    +0.000 F 
ATOM     14  F   UNL     1       0.862   3.166  21.411  0.00  0.00    +0.000 F 
ATOM     15  F   UNL     1       1.931   1.824  20.067  0.00  0.00    +0.000 F 
ENDBRANCH   5  12
BRANCH   1  16
ATOM     16  S   UNL     1       5.727   4.877  17.783  0.00  0.00    +0.000 S 
ATOM     17  O   UNL     1       5.405   4.062  16.620  0.00  0.00    +0.000 OA
ATOM     18  O   UNL     1       6.811   4.490  18.672  0.00  0.00    +0.000 OA
BRANCH  16  20
ATOM     19  C   UNL     1       7.438   6.995  17.560  0.00  0.00    +0.000 C 
ATOM     20  C   UNL     1       6.040   6.531  17.195  0.00  0.00    +0.000 C 
ENDBRANCH  16  20
ENDBRANCH   1  16
TORSDOF 4
ENDMDL
