MODEL 1
REMARK VINA RESULT:      -6.7      0.000      0.000
REMARK  Name = 
REMARK  12 active torsions:
REMARK  status: ('A' for Active; 'I' for Inactive)
REMARK    1  A    between atoms: C_2  and  C_3
REMARK    2  A    between atoms: C_3  and  N_4
REMARK    3  A    between atoms: N_4  and  C_5
REMARK    4  A    between atoms: N_4  and  C_8
REMARK    5  A    between atoms: C_5  and  C_6
REMARK    6  A    between atoms: C_17  and  C_18
REMARK    7  A    between atoms: C_18  and  C_19
REMARK    8  A    between atoms: C_18  and  C_21
REMARK    9  A    between atoms: C_21  and  O_23
REMARK   10  A    between atoms: O_23  and  C_24
REMARK   11  A    between atoms: C_24  and  C_25
REMARK   12  A    between atoms: C_24  and  C_26
REMARK                            x       y       z     vdW  Elec       q    Type
REMARK                         _______ _______ _______ _____ _____    ______ ____
ROOT
ATOM      1  C   UNL     1       6.661   5.794  16.313  0.00  0.00    +0.000 A 
ATOM      2  N   UNL     1       7.398   5.668  15.165  0.00  0.00    +0.000 NA
ATOM      3  C   UNL     1       6.949   4.950  14.096  0.00  0.00    +0.000 A 
ATOM      4  C   UNL     1       7.691   4.834  12.920  0.00  0.00    +0.000 A 
ATOM      5  C   UNL     1       7.252   4.041  11.846  0.00  0.00    +0.000 A 
ATOM      6  C   UNL     1       6.052   3.354  11.939  0.00  0.00    +0.000 A 
ATOM      7  C   UNL     1       5.286   3.490  13.093  0.00  0.00    +0.000 A 
ATOM      8  C   UNL     1       5.719   4.296  14.146  0.00  0.00    +0.000 A 
ATOM      9  N   UNL     1       4.940   4.434  15.213  0.00  0.00    +0.000 NA
ATOM     10  C   UNL     1       5.393   5.200  16.265  0.00  0.00    +0.000 A 
ENDROOT
BRANCH   1  11
ATOM     11  N   UNL     1       7.256   6.455  17.396  0.00  0.00    +0.000 N 
BRANCH  11  12
ATOM     12  C   UNL     1       7.277   7.924  17.287  0.00  0.00    +0.000 C 
BRANCH  12  14
ATOM     13  C   UNL     1       8.608   9.925  18.182  0.00  0.00    +0.000 C 
ATOM     14  C   UNL     1       8.318   8.616  18.131  0.00  0.00    +0.000 C 
ENDBRANCH  12  14
ENDBRANCH  11  12
BRANCH  11  15
ATOM     15  C   UNL     1       7.977   5.820  18.497  0.00  0.00    +0.000 C 
BRANCH  15  16
ATOM     16  C   UNL     1       7.238   5.525  19.761  0.00  0.00    +0.000 C 
ATOM     17  C   UNL     1       6.143   4.756  19.841  0.00  0.00    +0.000 C 
ENDBRANCH  15  16
ENDBRANCH  11  15
ENDBRANCH   1  11
BRANCH  10  18
ATOM     18  C   UNL     1       4.377   5.211  17.350  0.00  0.00    +0.000 C 
BRANCH  18  19
ATOM     19  C   UNL     1       3.782   6.601  17.512  0.00  0.00    +0.000 C 
ATOM     20  N   UNL     1       3.287   7.753  17.647  0.00  0.00    +0.000 NA
ENDBRANCH  18  19
BRANCH  18  21
ATOM     21  C   UNL     1       3.554   3.951  17.504  0.00  0.00    +0.000 C 
ATOM     22  O   UNL     1       4.051   2.854  17.732  0.00  0.00    +0.000 OA
BRANCH  21  23
ATOM     23  O   UNL     1       2.211   4.158  17.424  0.00  0.00    +0.000 OA
BRANCH  23  24
ATOM     24  C   UNL     1       1.356   3.911  18.577  0.00  0.00    +0.000 C 
ATOM     25  C   UNL     1       0.915   2.456  18.738  0.00  0.00    +0.000 C 
ATOM     26  C   UNL     1       1.951   4.469  19.866  0.00  0.00    +0.000 C 
ENDBRANCH  23  24
ENDBRANCH  21  23
ENDBRANCH  18  21
ENDBRANCH  10  18
TORSDOF 10
ENDMDL
MODEL 2
REMARK VINA RESULT:      -6.6      2.407      5.619
REMARK  Name = 
REMARK  12 active torsions:
REMARK  status: ('A' for Active; 'I' for Inactive)
REMARK    1  A    between atoms: C_2  and  C_3
REMARK    2  A    between atoms: C_3  and  N_4
REMARK    3  A    between atoms: N_4  and  C_5
REMARK    4  A    between atoms: N_4  and  C_8
REMARK    5  A    between atoms: C_5  and  C_6
REMARK    6  A    between atoms: C_17  and  C_18
REMARK    7  A    between atoms: C_18  and  C_19
REMARK    8  A    between atoms: C_18  and  C_21
REMARK    9  A    between atoms: C_21  and  O_23
REMARK   10  A    between atoms: O_23  and  C_24
REMARK   11  A    between atoms: C_24  and  C_25
REMARK   12  A    between atoms: C_24  and  C_26
REMARK                            x       y       z     vdW  Elec       q    Type
REMARK                         _______ _______ _______ _____ _____    ______ ____
ROOT
ATOM      1  C   UNL     1       5.492   4.915  17.039  0.00  0.00    +0.000 A 
ATOM      2  N   UNL     1       5.265   4.179  15.907  0.00  0.00    +0.000 NA
ATOM      3  C   UNL     1       6.041   4.315  14.793  0.00  0.00    +0.000 A 
ATOM      4  C   UNL     1       5.822   3.555  13.643  0.00  0.00    +0.000 A 
ATOM      5  C   UNL     1       6.584   3.744  12.478  0.00  0.00    +0.000 A 
ATOM      6  C   UNL     1       7.585   4.703  12.454  0.00  0.00    +0.000 A 
ATOM      7  C   UNL     1       7.836   5.442  13.606  0.00  0.00    +0.000 A 
ATOM      8  C   UNL     1       7.089   5.234  14.765  0.00  0.00    +0.000 A 
ATOM      9  N   UNL     1       7.387   5.930  15.856  0.00  0.00    +0.000 NA
ATOM     10  C   UNL     1       6.619   5.746  16.986  0.00  0.00    +0.000 A 
ENDROOT
BRANCH   1  11
ATOM     11  N   UNL     1       4.573   4.787  18.090  0.00  0.00    +0.000 N 
BRANCH  11  12
ATOM     12  C   UNL     1       4.881   3.715  19.053  0.00  0.00    +0.000 C 
BRANCH  12  14
ATOM     13  C   UNL     1       3.486   1.757  18.160  0.00  0.00    +0.000 C 
ATOM     14  C   UNL     1       3.860   2.607  19.129  0.00  0.00    +0.000 C 
ENDBRANCH  12  14
ENDBRANCH  11  12
BRANCH  11  15
ATOM     15  C   UNL     1       3.299   5.493  18.205  0.00  0.00    +0.000 C 
BRANCH  15  16
ATOM     16  C   UNL     1       3.044   6.317  19.425  0.00  0.00    +0.000 C 
ATOM     17  C   UNL     1       1.925   6.262  20.160  0.00  0.00    +0.000 C 
ENDBRANCH  15  16
ENDBRANCH  11  15
ENDBRANCH   1  11
BRANCH  10  18
ATOM     18  C   UNL     1       7.116   6.624  18.077  0.00  0.00    +0.000 C 
BRANCH  18  19
ATOM     19  C   UNL     1       7.899   5.816  19.100  0.00  0.00    +0.000 C 
ATOM     20  N   UNL     1       8.547   5.146  19.949  0.00  0.00    +0.000 NA
ENDBRANCH  18  19
BRANCH  18  21
ATOM     21  C   UNL     1       7.510   8.028  17.675  0.00  0.00    +0.000 C 
ATOM     22  O   UNL     1       6.876   8.691  16.861  0.00  0.00    +0.000 OA
BRANCH  21  23
ATOM     23  O   UNL     1       8.597   8.506  18.340  0.00  0.00    +0.000 OA
BRANCH  23  24
ATOM     24  C   UNL     1       8.693   9.920  18.678  0.00  0.00    +0.000 C 
ATOM     25  C   UNL     1       9.143  10.200  20.111  0.00  0.00    +0.000 C 
ATOM     26  C   UNL     1       9.521  10.700  17.660  0.00  0.00    +0.000 C 
ENDBRANCH  23  24
ENDBRANCH  21  23
ENDBRANCH  18  21
ENDBRANCH  10  18
TORSDOF 10
ENDMDL
MODEL 3
REMARK VINA RESULT:      -6.5      1.620      2.074
REMARK  Name = 
REMARK  12 active torsions:
REMARK  status: ('A' for Active; 'I' for Inactive)
REMARK    1  A    between atoms: C_2  and  C_3
REMARK    2  A    between atoms: C_3  and  N_4
REMARK    3  A    between atoms: N_4  and  C_5
REMARK    4  A    between atoms: N_4  and  C_8
REMARK    5  A    between atoms: C_5  and  C_6
REMARK    6  A    between atoms: C_17  and  C_18
REMARK    7  A    between atoms: C_18  and  C_19
REMARK    8  A    between atoms: C_18  and  C_21
REMARK    9  A    between atoms: C_21  and  O_23
REMARK   10  A    between atoms: O_23  and  C_24
REMARK   11  A    between atoms: C_24  and  C_25
REMARK   12  A    between atoms: C_24  and  C_26
REMARK                            x       y       z     vdW  Elec       q    Type
REMARK                         _______ _______ _______ _____ _____    ______ ____
ROOT
ATOM      1  C   UNL     1       6.661   5.700  16.382  0.00  0.00    +0.000 A 
ATOM      2  N   UNL     1       7.353   5.615  15.203  0.00  0.00    +0.000 NA
ATOM      3  C   UNL     1       6.877   4.909  14.138  0.00  0.00    +0.000 A 
ATOM      4  C   UNL     1       7.572   4.835  12.930  0.00  0.00    +0.000 A 
ATOM      5  C   UNL     1       7.108   4.054  11.859  0.00  0.00    +0.000 A 
ATOM      6  C   UNL     1       5.929   3.336  11.986  0.00  0.00    +0.000 A 
ATOM      7  C   UNL     1       5.208   3.431  13.172  0.00  0.00    +0.000 A 
ATOM      8  C   UNL     1       5.665   4.225  14.224  0.00  0.00    +0.000 A 
ATOM      9  N   UNL     1       4.928   4.322  15.325  0.00  0.00    +0.000 NA
ATOM     10  C   UNL     1       5.406   5.077  16.374  0.00  0.00    +0.000 A 
ENDROOT
BRANCH   1  11
ATOM     11  N   UNL     1       7.285   6.353  17.454  0.00  0.00    +0.000 N 
BRANCH  11  12
ATOM     12  C   UNL     1       7.181   7.822  17.427  0.00  0.00    +0.000 C 
BRANCH  12  14
ATOM     13  C   UNL     1       8.519   9.886  18.154  0.00  0.00    +0.000 C 
ATOM     14  C   UNL     1       8.337   8.560  18.055  0.00  0.00    +0.000 C 
ENDBRANCH  12  14
ENDBRANCH  11  12
BRANCH  11  15
ATOM     15  C   UNL     1       8.137   5.726  18.461  0.00  0.00    +0.000 C 
BRANCH  15  16
ATOM     16  C   UNL     1       7.628   5.612  19.861  0.00  0.00    +0.000 C 
ATOM     17  C   UNL     1       8.356   5.190  20.903  0.00  0.00    +0.000 C 
ENDBRANCH  15  16
ENDBRANCH  11  15
ENDBRANCH   1  11
BRANCH  10  18
ATOM     18  C   UNL     1       4.436   5.042  17.499  0.00  0.00    +0.000 C 
BRANCH  18  19
ATOM     19  C   UNL     1       4.806   3.954  18.494  0.00  0.00    +0.000 C 
ATOM     20  N   UNL     1       5.112   3.052  19.319  0.00  0.00    +0.000 NA
ENDBRANCH  18  19
BRANCH  18  21
ATOM     21  C   UNL     1       3.867   6.377  17.928  0.00  0.00    +0.000 C 
ATOM     22  O   UNL     1       3.640   7.289  17.141  0.00  0.00    +0.000 OA
BRANCH  21  23
ATOM     23  O   UNL     1       3.579   6.450  19.256  0.00  0.00    +0.000 OA
BRANCH  23  24
ATOM     24  C   UNL     1       2.195   6.427  19.714  0.00  0.00    +0.000 C 
ATOM     25  C   UNL     1       1.828   5.209  20.561  0.00  0.00    +0.000 C 
ATOM     26  C   UNL     1       1.791   7.733  20.392  0.00  0.00    +0.000 C 
ENDBRANCH  23  24
ENDBRANCH  21  23
ENDBRANCH  18  21
ENDBRANCH  10  18
TORSDOF 10
ENDMDL
MODEL 4
REMARK VINA RESULT:      -6.4      2.033      5.197
REMARK  Name = 
REMARK  12 active torsions:
REMARK  status: ('A' for Active; 'I' for Inactive)
REMARK    1  A    between atoms: C_2  and  C_3
REMARK    2  A    between atoms: C_3  and  N_4
REMARK    3  A    between atoms: N_4  and  C_5
REMARK    4  A    between atoms: N_4  and  C_8
REMARK    5  A    between atoms: C_5  and  C_6
REMARK    6  A    between atoms: C_17  and  C_18
REMARK    7  A    between atoms: C_18  and  C_19
REMARK    8  A    between atoms: C_18  and  C_21
REMARK    9  A    between atoms: C_21  and  O_23
REMARK   10  A    between atoms: O_23  and  C_24
REMARK   11  A    between atoms: C_24  and  C_25
REMARK   12  A    between atoms: C_24  and  C_26
REMARK                            x       y       z     vdW  Elec       q    Type
REMARK                         _______ _______ _______ _____ _____    ______ ____
ROOT
ATOM      1  C   UNL     1       4.698   6.224  17.284  0.00  0.00    +0.000 A 
ATOM      2  N   UNL     1       3.915   7.322  17.043  0.00  0.00    +0.000 NA
ATOM      3  C   UNL     1       3.019   7.782  17.962  0.00  0.00    +0.000 A 
ATOM      4  C   UNL     1       2.232   8.910  17.725  0.00  0.00    +0.000 A 
ATOM      5  C   UNL     1       1.265   9.341  18.648  0.00  0.00    +0.000 A 
ATOM      6  C   UNL     1       1.077   8.643  19.831  0.00  0.00    +0.000 A 
ATOM      7  C   UNL     1       1.881   7.538  20.095  0.00  0.00    +0.000 A 
ATOM      8  C   UNL     1       2.853   7.129  19.182  0.00  0.00    +0.000 A 
ATOM      9  N   UNL     1       3.628   6.094  19.489  0.00  0.00    +0.000 NA
ATOM     10  C   UNL     1       4.559   5.672  18.565  0.00  0.00    +0.000 A 
ENDROOT
BRANCH   1  11
ATOM     11  N   UNL     1       5.506   5.762  16.236  0.00  0.00    +0.000 N 
BRANCH  11  12
ATOM     12  C   UNL     1       6.699   6.583  15.968  0.00  0.00    +0.000 C 
BRANCH  12  14
ATOM     13  C   UNL     1       7.767   8.236  17.612  0.00  0.00    +0.000 C 
ATOM     14  C   UNL     1       7.484   6.995  17.188  0.00  0.00    +0.000 C 
ENDBRANCH  12  14
ENDBRANCH  11  12
BRANCH  11  15
ATOM     15  C   UNL     1       5.181   4.671  15.320  0.00  0.00    +0.000 C 
BRANCH  15  16
ATOM     16  C   UNL     1       6.158   4.324  14.245  0.00  0.00    +0.000 C 
ATOM     17  C   UNL     1       5.855   3.635  13.136  0.00  0.00    +0.000 C 
ENDBRANCH  15  16
ENDBRANCH  11  15
ENDBRANCH   1  11
BRANCH  10  18
ATOM     18  C   UNL     1       5.305   4.505  19.103  0.00  0.00    +0.000 C 
BRANCH  18  19
ATOM     19  C   UNL     1       6.628   4.947  19.710  0.00  0.00    +0.000 C 
ATOM     20  N   UNL     1       7.724   5.316  20.212  0.00  0.00    +0.000 NA
ENDBRANCH  18  19
BRANCH  18  21
ATOM     21  C   UNL     1       4.466   3.397  19.702  0.00  0.00    +0.000 C 
ATOM     22  O   UNL     1       4.893   2.263  19.885  0.00  0.00    +0.000 OA
BRANCH  21  23
ATOM     23  O   UNL     1       3.216   3.792  20.069  0.00  0.00    +0.000 OA
BRANCH  23  24
ATOM     24  C   UNL     1       2.053   2.998  19.697  0.00  0.00    +0.000 C 
ATOM     25  C   UNL     1       0.946   2.965  20.751  0.00  0.00    +0.000 C 
ATOM     26  C   UNL     1       1.515   3.374  18.320  0.00  0.00    +0.000 C 
ENDBRANCH  23  24
ENDBRANCH  21  23
ENDBRANCH  18  21
ENDBRANCH  10  18
TORSDOF 10
ENDMDL
MODEL 5
REMARK VINA RESULT:      -6.4      2.088      5.504
REMARK  Name = 
REMARK  12 active torsions:
REMARK  status: ('A' for Active; 'I' for Inactive)
REMARK    1  A    between atoms: C_2  and  C_3
REMARK    2  A    between atoms: C_3  and  N_4
REMARK    3  A    between atoms: N_4  and  C_5
REMARK    4  A    between atoms: N_4  and  C_8
REMARK    5  A    between atoms: C_5  and  C_6
REMARK    6  A    between atoms: C_17  and  C_18
REMARK    7  A    between atoms: C_18  and  C_19
REMARK    8  A    between atoms: C_18  and  C_21
REMARK    9  A    between atoms: C_21  and  O_23
REMARK   10  A    between atoms: O_23  and  C_24
REMARK   11  A    between atoms: C_24  and  C_25
REMARK   12  A    between atoms: C_24  and  C_26
REMARK                            x       y       z     vdW  Elec       q    Type
REMARK                         _______ _______ _______ _____ _____    ______ ____
ROOT
ATOM      1  C   UNL     1       4.563   6.384  17.428  0.00  0.00    +0.000 A 
ATOM      2  N   UNL     1       3.761   7.483  17.270  0.00  0.00    +0.000 NA
ATOM      3  C   UNL     1       2.862   7.860  18.223  0.00  0.00    +0.000 A 
ATOM      4  C   UNL     1       2.054   8.989  18.072  0.00  0.00    +0.000 A 
ATOM      5  C   UNL     1       1.086   9.336  19.029  0.00  0.00    +0.000 A 
ATOM      6  C   UNL     1       0.916   8.551  20.159  0.00  0.00    +0.000 A 
ATOM      7  C   UNL     1       1.740   7.443  20.338  0.00  0.00    +0.000 A 
ATOM      8  C   UNL     1       2.713   7.118  19.394  0.00  0.00    +0.000 A 
ATOM      9  N   UNL     1       3.507   6.077  19.621  0.00  0.00    +0.000 NA
ATOM     10  C   UNL     1       4.440   5.738  18.665  0.00  0.00    +0.000 A 
ENDROOT
BRANCH   1  11
ATOM     11  N   UNL     1       5.372   6.013  16.345  0.00  0.00    +0.000 N 
BRANCH  11  12
ATOM     12  C   UNL     1       4.875   4.864  15.568  0.00  0.00    +0.000 C 
BRANCH  12  14
ATOM     13  C   UNL     1       6.157   3.829  13.603  0.00  0.00    +0.000 C 
ATOM     14  C   UNL     1       5.941   4.021  14.913  0.00  0.00    +0.000 C 
ENDBRANCH  12  14
ENDBRANCH  11  12
BRANCH  11  15
ATOM     15  C   UNL     1       6.699   6.546  16.043  0.00  0.00    +0.000 C 
BRANCH  15  16
ATOM     16  C   UNL     1       7.581   6.958  17.177  0.00  0.00    +0.000 C 
ATOM     17  C   UNL     1       7.755   8.222  17.584  0.00  0.00    +0.000 C 
ENDBRANCH  15  16
ENDBRANCH  11  15
ENDBRANCH   1  11
BRANCH  10  18
ATOM     18  C   UNL     1       5.209   4.549  19.115  0.00  0.00    +0.000 C 
BRANCH  18  19
ATOM     19  C   UNL     1       6.543   4.966  19.712  0.00  0.00    +0.000 C 
ATOM     20  N   UNL     1       7.649   5.312  20.209  0.00  0.00    +0.000 NA
ENDBRANCH  18  19
BRANCH  18  21
ATOM     21  C   UNL     1       4.394   3.400  19.668  0.00  0.00    +0.000 C 
ATOM     22  O   UNL     1       4.901   2.414  20.190  0.00  0.00    +0.000 OA
BRANCH  21  23
ATOM     23  O   UNL     1       3.049   3.591  19.585  0.00  0.00    +0.000 OA
BRANCH  23  24
ATOM     24  C   UNL     1       2.282   2.978  18.508  0.00  0.00    +0.000 C 
ATOM     25  C   UNL     1       1.475   3.965  17.664  0.00  0.00    +0.000 C 
ATOM     26  C   UNL     1       3.139   2.059  17.641  0.00  0.00    +0.000 C 
ENDBRANCH  23  24
ENDBRANCH  21  23
ENDBRANCH  18  21
ENDBRANCH  10  18
TORSDOF 10
ENDMDL
MODEL 6
REMARK VINA RESULT:      -6.3      3.009      6.929
REMARK  Name = 
REMARK  12 active torsions:
REMARK  status: ('A' for Active; 'I' for Inactive)
REMARK    1  A    between atoms: C_2  and  C_3
REMARK    2  A    between atoms: C_3  and  N_4
REMARK    3  A    between atoms: N_4  and  C_5
REMARK    4  A    between atoms: N_4  and  C_8
REMARK    5  A    between atoms: C_5  and  C_6
REMARK    6  A    between atoms: C_17  and  C_18
REMARK    7  A    between atoms: C_18  and  C_19
REMARK    8  A    between atoms: C_18  and  C_21
REMARK    9  A    between atoms: C_21  and  O_23
REMARK   10  A    between atoms: O_23  and  C_24
REMARK   11  A    between atoms: C_24  and  C_25
REMARK   12  A    between atoms: C_24  and  C_26
REMARK                            x       y       z     vdW  Elec       q    Type
REMARK                         _______ _______ _______ _____ _____    ______ ____
ROOT
ATOM      1  C   UNL     1       2.807   5.830  19.639  0.00  0.00    +0.000 A 
ATOM      2  N   UNL     1       2.028   6.760  20.275  0.00  0.00    +0.000 NA
ATOM      3  C   UNL     1       1.745   7.969  19.710  0.00  0.00    +0.000 A 
ATOM      4  C   UNL     1       0.937   8.912  20.348  0.00  0.00    +0.000 A 
ATOM      5  C   UNL     1       0.702  10.179  19.790  0.00  0.00    +0.000 A 
ATOM      6  C   UNL     1       1.274  10.517  18.574  0.00  0.00    +0.000 A 
ATOM      7  C   UNL     1       2.052   9.573  17.910  0.00  0.00    +0.000 A 
ATOM      8  C   UNL     1       2.264   8.309  18.461  0.00  0.00    +0.000 A 
ATOM      9  N   UNL     1       2.978   7.421  17.778  0.00  0.00    +0.000 NA
ATOM     10  C   UNL     1       3.215   6.188  18.347  0.00  0.00    +0.000 A 
ENDROOT
BRANCH   1  11
ATOM     11  N   UNL     1       3.134   4.666  20.348  0.00  0.00    +0.000 N 
BRANCH  11  12
ATOM     12  C   UNL     1       2.129   4.244  21.339  0.00  0.00    +0.000 C 
BRANCH  12  14
ATOM     13  C   UNL     1       0.750   2.899  19.647  0.00  0.00    +0.000 C 
ATOM     14  C   UNL     1       1.202   3.144  20.886  0.00  0.00    +0.000 C 
ENDBRANCH  12  14
ENDBRANCH  11  12
BRANCH  11  15
ATOM     15  C   UNL     1       4.415   3.965  20.301  0.00  0.00    +0.000 C 
BRANCH  15  16
ATOM     16  C   UNL     1       4.435   2.538  19.860  0.00  0.00    +0.000 C 
ATOM     17  C   UNL     1       4.871   1.516  20.609  0.00  0.00    +0.000 C 
ENDBRANCH  15  16
ENDBRANCH  11  15
ENDBRANCH   1  11
BRANCH  10  18
ATOM     18  C   UNL     1       4.035   5.360  17.425  0.00  0.00    +0.000 C 
BRANCH  18  19
ATOM     19  C   UNL     1       3.233   4.175  16.912  0.00  0.00    +0.000 C 
ATOM     20  N   UNL     1       2.569   3.190  16.488  0.00  0.00    +0.000 NA
ENDBRANCH  18  19
BRANCH  18  21
ATOM     21  C   UNL     1       5.022   6.110  16.557  0.00  0.00    +0.000 C 
ATOM     22  O   UNL     1       5.123   5.924  15.350  0.00  0.00    +0.000 OA
BRANCH  21  23
ATOM     23  O   UNL     1       5.744   7.048  17.230  0.00  0.00    +0.000 OA
BRANCH  23  24
ATOM     24  C   UNL     1       7.184   6.896  17.390  0.00  0.00    +0.000 C 
ATOM     25  C   UNL     1       7.931   8.198  17.674  0.00  0.00    +0.000 C 
ATOM     26  C   UNL     1       7.540   5.806  18.398  0.00  0.00    +0.000 C 
ENDBRANCH  23  24
ENDBRANCH  21  23
ENDBRANCH  18  21
ENDBRANCH  10  18
TORSDOF 10
ENDMDL
MODEL 7
REMARK VINA RESULT:      -6.3      2.099      5.581
REMARK  Name = 
REMARK  12 active torsions:
REMARK  status: ('A' for Active; 'I' for Inactive)
REMARK    1  A    between atoms: C_2  and  C_3
REMARK    2  A    between atoms: C_3  and  N_4
REMARK    3  A    between atoms: N_4  and  C_5
REMARK    4  A    between atoms: N_4  and  C_8
REMARK    5  A    between atoms: C_5  and  C_6
REMARK    6  A    between atoms: C_17  and  C_18
REMARK    7  A    between atoms: C_18  and  C_19
REMARK    8  A    between atoms: C_18  and  C_21
REMARK    9  A    between atoms: C_21  and  O_23
REMARK   10  A    between atoms: O_23  and  C_24
REMARK   11  A    between atoms: C_24  and  C_25
REMARK   12  A    between atoms: C_24  and  C_26
REMARK                            x       y       z     vdW  Elec       q    Type
REMARK                         _______ _______ _______ _____ _____    ______ ____
ROOT
ATOM      1  C   UNL     1       4.486   6.646  17.646  0.00  0.00    +0.000 A 
ATOM      2  N   UNL     1       3.641   7.725  17.643  0.00  0.00    +0.000 NA
ATOM      3  C   UNL     1       2.699   7.903  18.612  0.00  0.00    +0.000 A 
ATOM      4  C   UNL     1       1.848   9.009  18.621  0.00  0.00    +0.000 A 
ATOM      5  C   UNL     1       0.837   9.154  19.586  0.00  0.00    +0.000 A 
ATOM      6  C   UNL     1       0.668   8.185  20.563  0.00  0.00    +0.000 A 
ATOM      7  C   UNL     1       1.534   7.096  20.586  0.00  0.00    +0.000 A 
ATOM      8  C   UNL     1       2.548   6.970  19.637  0.00  0.00    +0.000 A 
ATOM      9  N   UNL     1       3.380   5.937  19.718  0.00  0.00    +0.000 NA
ATOM     10  C   UNL     1       4.354   5.798  18.754  0.00  0.00    +0.000 A 
ENDROOT
BRANCH   1  11
ATOM     11  N   UNL     1       5.342   6.492  16.547  0.00  0.00    +0.000 N 
BRANCH  11  12
ATOM     12  C   UNL     1       4.822   5.626  15.475  0.00  0.00    +0.000 C 
BRANCH  12  14
ATOM     13  C   UNL     1       6.313   3.688  14.704  0.00  0.00    +0.000 C 
ATOM     14  C   UNL     1       5.871   4.952  14.627  0.00  0.00    +0.000 C 
ENDBRANCH  12  14
ENDBRANCH  11  12
BRANCH  11  15
ATOM     15  C   UNL     1       6.722   6.966  16.462  0.00  0.00    +0.000 C 
BRANCH  15  16
ATOM     16  C   UNL     1       7.324   7.637  17.653  0.00  0.00    +0.000 C 
ATOM     17  C   UNL     1       7.972   8.809  17.619  0.00  0.00    +0.000 C 
ENDBRANCH  15  16
ENDBRANCH  11  15
ENDBRANCH   1  11
BRANCH  10  18
ATOM     18  C   UNL     1       5.160   4.580  19.027  0.00  0.00    +0.000 C 
BRANCH  18  19
ATOM     19  C   UNL     1       6.499   4.951  19.645  0.00  0.00    +0.000 C 
ATOM     20  N   UNL     1       7.609   5.258  20.159  0.00  0.00    +0.000 NA
ENDBRANCH  18  19
BRANCH  18  21
ATOM     21  C   UNL     1       4.385   3.349  19.444  0.00  0.00    +0.000 C 
ATOM     22  O   UNL     1       4.855   2.480  20.169  0.00  0.00    +0.000 OA
BRANCH  21  23
ATOM     23  O   UNL     1       3.103   3.327  18.987  0.00  0.00    +0.000 OA
BRANCH  23  24
ATOM     24  C   UNL     1       2.074   2.596  19.715  0.00  0.00    +0.000 C 
ATOM     25  C   UNL     1       1.681   3.219  21.054  0.00  0.00    +0.000 C 
ATOM     26  C   UNL     1       0.854   2.301  18.846  0.00  0.00    +0.000 C 
ENDBRANCH  23  24
ENDBRANCH  21  23
ENDBRANCH  18  21
ENDBRANCH  10  18
TORSDOF 10
ENDMDL
MODEL 8
REMARK VINA RESULT:      -6.3      2.272      5.356
REMARK  Name = 
REMARK  12 active torsions:
REMARK  status: ('A' for Active; 'I' for Inactive)
REMARK    1  A    between atoms: C_2  and  C_3
REMARK    2  A    between atoms: C_3  and  N_4
REMARK    3  A    between atoms: N_4  and  C_5
REMARK    4  A    between atoms: N_4  and  C_8
REMARK    5  A    between atoms: C_5  and  C_6
REMARK    6  A    between atoms: C_17  and  C_18
REMARK    7  A    between atoms: C_18  and  C_19
REMARK    8  A    between atoms: C_18  and  C_21
REMARK    9  A    between atoms: C_21  and  O_23
REMARK   10  A    between atoms: O_23  and  C_24
REMARK   11  A    between atoms: C_24  and  C_25
REMARK   12  A    between atoms: C_24  and  C_26
REMARK                            x       y       z     vdW  Elec       q    Type
REMARK                         _______ _______ _______ _____ _____    ______ ____
ROOT
ATOM      1  C   UNL     1       5.364   5.018  16.895  0.00  0.00    +0.000 A 
ATOM      2  N   UNL     1       5.136   4.301  15.750  0.00  0.00    +0.000 NA
ATOM      3  C   UNL     1       5.966   4.386  14.671  0.00  0.00    +0.000 A 
ATOM      4  C   UNL     1       5.745   3.644  13.510  0.00  0.00    +0.000 A 
ATOM      5  C   UNL     1       6.567   3.783  12.379  0.00  0.00    +0.000 A 
ATOM      6  C   UNL     1       7.630   4.672  12.401  0.00  0.00    +0.000 A 
ATOM      7  C   UNL     1       7.882   5.391  13.566  0.00  0.00    +0.000 A 
ATOM      8  C   UNL     1       7.074   5.231  14.691  0.00  0.00    +0.000 A 
ATOM      9  N   UNL     1       7.372   5.904  15.797  0.00  0.00    +0.000 NA
ATOM     10  C   UNL     1       6.546   5.771  16.893  0.00  0.00    +0.000 A 
ENDROOT
BRANCH   1  11
ATOM     11  N   UNL     1       4.395   4.951  17.905  0.00  0.00    +0.000 N 
BRANCH  11  12
ATOM     12  C   UNL     1       4.065   6.243  18.531  0.00  0.00    +0.000 C 
BRANCH  12  14
ATOM     13  C   UNL     1       2.279   8.067  18.276  0.00  0.00    +0.000 C 
ATOM     14  C   UNL     1       3.038   7.069  17.797  0.00  0.00    +0.000 C 
ENDBRANCH  12  14
ENDBRANCH  11  12
BRANCH  11  15
ATOM     15  C   UNL     1       3.834   3.728  18.476  0.00  0.00    +0.000 C 
BRANCH  15  16
ATOM     16  C   UNL     1       2.516   3.241  17.970  0.00  0.00    +0.000 C 
ATOM     17  C   UNL     1       1.331   3.555  18.511  0.00  0.00    +0.000 C 
ENDBRANCH  15  16
ENDBRANCH  11  15
ENDBRANCH   1  11
BRANCH  10  18
ATOM     18  C   UNL     1       7.055   6.611  18.008  0.00  0.00    +0.000 C 
BRANCH  18  19
ATOM     19  C   UNL     1       7.841   5.768  18.999  0.00  0.00    +0.000 C 
ATOM     20  N   UNL     1       8.491   5.067  19.821  0.00  0.00    +0.000 NA
ENDBRANCH  18  19
BRANCH  18  21
ATOM     21  C   UNL     1       7.453   8.025  17.648  0.00  0.00    +0.000 C 
ATOM     22  O   UNL     1       6.806   8.724  16.876  0.00  0.00    +0.000 OA
BRANCH  21  23
ATOM     23  O   UNL     1       8.561   8.468  18.303  0.00  0.00    +0.000 OA
BRANCH  23  24
ATOM     24  C   UNL     1       8.708   9.879  18.634  0.00  0.00    +0.000 C 
ATOM     25  C   UNL     1       9.122  10.151  20.080  0.00  0.00    +0.000 C 
ATOM     26  C   UNL     1       9.603  10.614  17.640  0.00  0.00    +0.000 C 
ENDBRANCH  23  24
ENDBRANCH  21  23
ENDBRANCH  18  21
ENDBRANCH  10  18
TORSDOF 10
ENDMDL
MODEL 9
REMARK VINA RESULT:      -6.2      0.601      2.121
REMARK  Name = 
REMARK  12 active torsions:
REMARK  status: ('A' for Active; 'I' for Inactive)
REMARK    1  A    between atoms: C_2  and  C_3
REMARK    2  A    between atoms: C_3  and  N_4
REMARK    3  A    between atoms: N_4  and  C_5
REMARK    4  A    between atoms: N_4  and  C_8
REMARK    5  A    between atoms: C_5  and  C_6
REMARK    6  A    between atoms: C_17  and  C_18
REMARK    7  A    between atoms: C_18  and  C_19
REMARK    8  A    between atoms: C_18  and  C_21
REMARK    9  A    between atoms: C_21  and  O_23
REMARK   10  A    between atoms: O_23  and  C_24
REMARK   11  A    between atoms: C_24  and  C_25
REMARK   12  A    between atoms: C_24  and  C_26
REMARK                            x       y       z     vdW  Elec       q    Type
REMARK                         _______ _______ _______ _____ _____    ______ ____
ROOT
ATOM      1  C   UNL     1       6.583   5.929  16.461  0.00  0.00    +0.000 A 
ATOM      2  N   UNL     1       7.294   5.797  15.298  0.00  0.00    +0.000 NA
ATOM      3  C   UNL     1       6.858   5.009  14.274  0.00  0.00    +0.000 A 
ATOM      4  C   UNL     1       7.573   4.885  13.081  0.00  0.00    +0.000 A 
ATOM      5  C   UNL     1       7.152   4.022  12.055  0.00  0.00    +0.000 A 
ATOM      6  C   UNL     1       5.998   3.271  12.213  0.00  0.00    +0.000 A 
ATOM      7  C   UNL     1       5.257   3.413  13.383  0.00  0.00    +0.000 A 
ATOM      8  C   UNL     1       5.671   4.287  14.387  0.00  0.00    +0.000 A 
ATOM      9  N   UNL     1       4.915   4.425  15.472  0.00  0.00    +0.000 NA
ATOM     10  C   UNL     1       5.351   5.261  16.477  0.00  0.00    +0.000 A 
ENDROOT
BRANCH   1  11
ATOM     11  N   UNL     1       7.168   6.670  17.497  0.00  0.00    +0.000 N 
BRANCH  11  12
ATOM     12  C   UNL     1       7.053   6.060  18.833  0.00  0.00    +0.000 C 
BRANCH  12  14
ATOM     13  C   UNL     1       8.717   5.063  20.511  0.00  0.00    +0.000 C 
ATOM     14  C   UNL     1       8.240   5.237  19.269  0.00  0.00    +0.000 C 
ENDBRANCH  12  14
ENDBRANCH  11  12
BRANCH  11  15
ATOM     15  C   UNL     1       7.712   8.021  17.384  0.00  0.00    +0.000 C 
BRANCH  15  16
ATOM     16  C   UNL     1       8.393   8.621  18.571  0.00  0.00    +0.000 C 
ATOM     17  C   UNL     1       8.880   9.868  18.618  0.00  0.00    +0.000 C 
ENDBRANCH  15  16
ENDBRANCH  11  15
ENDBRANCH   1  11
BRANCH  10  18
ATOM     18  C   UNL     1       4.367   5.261  17.590  0.00  0.00    +0.000 C 
BRANCH  18  19
ATOM     19  C   UNL     1       3.640   6.594  17.664  0.00  0.00    +0.000 C 
ATOM     20  N   UNL     1       3.036   7.699  17.726  0.00  0.00    +0.000 NA
ENDBRANCH  18  19
BRANCH  18  21
ATOM     21  C   UNL     1       3.679   3.942  17.870  0.00  0.00    +0.000 C 
ATOM     22  O   UNL     1       4.289   2.887  18.002  0.00  0.00    +0.000 OA
BRANCH  21  23
ATOM     23  O   UNL     1       2.330   4.047  18.017  0.00  0.00    +0.000 OA
BRANCH  23  24
ATOM     24  C   UNL     1       1.680   3.555  19.225  0.00  0.00    +0.000 C 
ATOM     25  C   UNL     1       1.448   4.618  20.298  0.00  0.00    +0.000 C 
ATOM     26  C   UNL     1       0.406   2.774  18.915  0.00  0.00    +0.000 C 
ENDBRANCH  23  24
ENDBRANCH  21  23
ENDBRANCH  18  21
ENDBRANCH  10  18
TORSDOF 10
ENDMDL
