MODEL 1
REMARK VINA RESULT:      -7.8      0.000      0.000
REMARK  Name = 
REMARK  3 active torsions:
REMARK  status: ('A' for Active; 'I' for Inactive)
REMARK    1  A    between atoms: C_1  and  C_2
REMARK    2  A    between atoms: C_5  and  C_6
REMARK    3  A    between atoms: C_18  and  C_19
REMARK                            x       y       z     vdW  Elec       q    Type
REMARK                         _______ _______ _______ _____ _____    ______ ____
ROOT
ATOM      1  C   UNL     1       5.365   4.403  18.188  0.00  0.00    +0.000 C 
ATOM      2  O   UNL     1       6.110   3.974  19.063  0.00  0.00    +0.000 OA
ATOM      3  N   UNL     1       4.019   4.635  18.517  0.00  0.00    +0.000 N 
ATOM      4  C   UNL     1       3.178   5.527  17.887  0.00  0.00    +0.000 A 
ATOM      5  N   UNL     1       1.938   5.445  18.306  0.00  0.00    +0.000 NA
ATOM      6  C   UNL     1       1.963   4.489  19.286  0.00  0.00    +0.000 A 
ATOM      7  C   UNL     1       0.901   3.978  20.048  0.00  0.00    +0.000 A 
ATOM      8  C   UNL     1       1.165   2.980  20.990  0.00  0.00    +0.000 A 
ATOM      9  C   UNL     1       2.462   2.503  21.180  0.00  0.00    +0.000 A 
ATOM     10  C   UNL     1       3.535   3.001  20.429  0.00  0.00    +0.000 A 
ATOM     11  C   UNL     1       3.253   3.995  19.482  0.00  0.00    +0.000 A 
ENDROOT
BRANCH   1  16
ATOM     12  C   UNL     1       7.587   5.043  12.870  0.00  0.00    +0.000 C 
ATOM     13  C   UNL     1       6.980   4.883  14.238  0.00  0.00    +0.000 A 
ATOM     14  C   UNL     1       7.643   5.423  15.355  0.00  0.00    +0.000 A 
ATOM     15  C   UNL     1       7.118   5.279  16.642  0.00  0.00    +0.000 A 
ATOM     16  C   UNL     1       5.907   4.612  16.819  0.00  0.00    +0.000 A 
ATOM     17  C   UNL     1       5.245   4.054  15.718  0.00  0.00    +0.000 A 
ATOM     18  C   UNL     1       5.774   4.179  14.424  0.00  0.00    +0.000 A 
ATOM     19  C   UNL     1       5.055   3.530  13.271  0.00  0.00    +0.000 C 
ENDBRANCH   1  16
TORSDOF 1
ENDMDL
MODEL 2
REMARK VINA RESULT:      -7.0      1.376      1.501
REMARK  Name = 
REMARK  3 active torsions:
REMARK  status: ('A' for Active; 'I' for Inactive)
REMARK    1  A    between atoms: C_1  and  C_2
REMARK    2  A    between atoms: C_5  and  C_6
REMARK    3  A    between atoms: C_18  and  C_19
REMARK                            x       y       z     vdW  Elec       q    Type
REMARK                         _______ _______ _______ _____ _____    ______ ____
ROOT
ATOM      1  C   UNL     1       4.695   3.293  17.155  0.00  0.00    +0.000 C 
ATOM      2  O   UNL     1       4.444   2.093  17.169  0.00  0.00    +0.000 OA
ATOM      3  N   UNL     1       4.175   4.092  18.187  0.00  0.00    +0.000 N 
ATOM      4  C   UNL     1       4.705   5.286  18.627  0.00  0.00    +0.000 A 
ATOM      5  N   UNL     1       3.946   5.889  19.510  0.00  0.00    +0.000 NA
ATOM      6  C   UNL     1       2.888   5.041  19.698  0.00  0.00    +0.000 A 
ATOM      7  C   UNL     1       1.757   5.208  20.512  0.00  0.00    +0.000 A 
ATOM      8  C   UNL     1       0.785   4.205  20.531  0.00  0.00    +0.000 A 
ATOM      9  C   UNL     1       0.935   3.051  19.761  0.00  0.00    +0.000 A 
ATOM     10  C   UNL     1       2.057   2.866  18.942  0.00  0.00    +0.000 A 
ATOM     11  C   UNL     1       3.019   3.886  18.928  0.00  0.00    +0.000 A 
ENDROOT
BRANCH   1  16
ATOM     12  C   UNL     1       7.928   5.296  12.778  0.00  0.00    +0.000 C 
ATOM     13  C   UNL     1       7.062   4.782  13.896  0.00  0.00    +0.000 A 
ATOM     14  C   UNL     1       7.386   5.106  15.226  0.00  0.00    +0.000 A 
ATOM     15  C   UNL     1       6.615   4.633  16.290  0.00  0.00    +0.000 A 
ATOM     16  C   UNL     1       5.493   3.849  16.030  0.00  0.00    +0.000 A 
ATOM     17  C   UNL     1       5.168   3.504  14.712  0.00  0.00    +0.000 A 
ATOM     18  C   UNL     1       5.946   3.961  13.637  0.00  0.00    +0.000 A 
ATOM     19  C   UNL     1       5.590   3.535  12.239  0.00  0.00    +0.000 C 
ENDBRANCH   1  16
TORSDOF 1
ENDMDL
MODEL 3
REMARK VINA RESULT:      -7.0      3.887      6.643
REMARK  Name = 
REMARK  3 active torsions:
REMARK  status: ('A' for Active; 'I' for Inactive)
REMARK    1  A    between atoms: C_1  and  C_2
REMARK    2  A    between atoms: C_5  and  C_6
REMARK    3  A    between atoms: C_18  and  C_19
REMARK                            x       y       z     vdW  Elec       q    Type
REMARK                         _______ _______ _______ _____ _____    ______ ____
ROOT
ATOM      1  C   UNL     1       2.679   7.089  18.872  0.00  0.00    +0.000 C 
ATOM      2  O   UNL     1       3.623   7.247  18.105  0.00  0.00    +0.000 OA
ATOM      3  N   UNL     1       2.463   5.806  19.403  0.00  0.00    +0.000 N 
ATOM      4  C   UNL     1       1.821   5.523  20.589  0.00  0.00    +0.000 A 
ATOM      5  N   UNL     1       1.638   4.238  20.779  0.00  0.00    +0.000 NA
ATOM      6  C   UNL     1       2.220   3.639  19.693  0.00  0.00    +0.000 A 
ATOM      7  C   UNL     1       2.284   2.276  19.367  0.00  0.00    +0.000 A 
ATOM      8  C   UNL     1       2.920   1.894  18.183  0.00  0.00    +0.000 A 
ATOM      9  C   UNL     1       3.493   2.849  17.341  0.00  0.00    +0.000 A 
ATOM     10  C   UNL     1       3.439   4.214  17.650  0.00  0.00    +0.000 A 
ATOM     11  C   UNL     1       2.789   4.581  18.837  0.00  0.00    +0.000 A 
ENDROOT
BRANCH   1  16
ATOM     12  C   UNL     1      -0.959  11.464  19.989  0.00  0.00    +0.000 C 
ATOM     13  C   UNL     1       0.003  10.336  19.726  0.00  0.00    +0.000 A 
ATOM     14  C   UNL     1       0.421  10.078  18.408  0.00  0.00    +0.000 A 
ATOM     15  C   UNL     1       1.299   9.029  18.124  0.00  0.00    +0.000 A 
ATOM     16  C   UNL     1       1.788   8.243  19.165  0.00  0.00    +0.000 A 
ATOM     17  C   UNL     1       1.367   8.478  20.480  0.00  0.00    +0.000 A 
ATOM     18  C   UNL     1       0.472   9.518  20.773  0.00  0.00    +0.000 A 
ATOM     19  C   UNL     1       0.010   9.714  22.192  0.00  0.00    +0.000 C 
ENDBRANCH   1  16
TORSDOF 1
ENDMDL
MODEL 4
REMARK VINA RESULT:      -6.9      5.435      7.985
REMARK  Name = 
REMARK  3 active torsions:
REMARK  status: ('A' for Active; 'I' for Inactive)
REMARK    1  A    between atoms: C_1  and  C_2
REMARK    2  A    between atoms: C_5  and  C_6
REMARK    3  A    between atoms: C_18  and  C_19
REMARK                            x       y       z     vdW  Elec       q    Type
REMARK                         _______ _______ _______ _____ _____    ______ ____
ROOT
ATOM      1  C   UNL     1       1.434   9.519  18.317  0.00  0.00    +0.000 C 
ATOM      2  O   UNL     1       2.207  10.005  17.498  0.00  0.00    +0.000 OA
ATOM      3  N   UNL     1       1.857   8.392  19.041  0.00  0.00    +0.000 N 
ATOM      4  C   UNL     1       1.393   8.010  20.281  0.00  0.00    +0.000 A 
ATOM      5  N   UNL     1       1.859   6.846  20.667  0.00  0.00    +0.000 NA
ATOM      6  C   UNL     1       2.702   6.457  19.660  0.00  0.00    +0.000 A 
ATOM      7  C   UNL     1       3.442   5.271  19.538  0.00  0.00    +0.000 A 
ATOM      8  C   UNL     1       4.230   5.081  18.400  0.00  0.00    +0.000 A 
ATOM      9  C   UNL     1       4.290   6.056  17.403  0.00  0.00    +0.000 A 
ATOM     10  C   UNL     1       3.559   7.246  17.507  0.00  0.00    +0.000 A 
ATOM     11  C   UNL     1       2.766   7.418  18.651  0.00  0.00    +0.000 A 
ENDROOT
BRANCH   1  16
ATOM     12  C   UNL     1      -3.793  11.986  18.786  0.00  0.00    +0.000 C 
ATOM     13  C   UNL     1      -2.450  11.317  18.659  0.00  0.00    +0.000 A 
ATOM     14  C   UNL     1      -1.415  11.672  19.541  0.00  0.00    +0.000 A 
ATOM     15  C   UNL     1      -0.151  11.084  19.442  0.00  0.00    +0.000 A 
ATOM     16  C   UNL     1       0.079  10.113  18.470  0.00  0.00    +0.000 A 
ATOM     17  C   UNL     1      -0.938   9.761  17.574  0.00  0.00    +0.000 A 
ATOM     18  C   UNL     1      -2.205  10.359  17.655  0.00  0.00    +0.000 A 
ATOM     19  C   UNL     1      -3.260   9.985  16.648  0.00  0.00    +0.000 C 
ENDBRANCH   1  16
TORSDOF 1
ENDMDL
MODEL 5
REMARK VINA RESULT:      -6.9      1.505      1.630
REMARK  Name = 
REMARK  3 active torsions:
REMARK  status: ('A' for Active; 'I' for Inactive)
REMARK    1  A    between atoms: C_1  and  C_2
REMARK    2  A    between atoms: C_5  and  C_6
REMARK    3  A    between atoms: C_18  and  C_19
REMARK                            x       y       z     vdW  Elec       q    Type
REMARK                         _______ _______ _______ _____ _____    ______ ____
ROOT
ATOM      1  C   UNL     1       3.976   5.397  17.511  0.00  0.00    +0.000 C 
ATOM      2  O   UNL     1       3.878   6.445  18.140  0.00  0.00    +0.000 OA
ATOM      3  N   UNL     1       3.155   4.319  17.884  0.00  0.00    +0.000 N 
ATOM      4  C   UNL     1       2.757   3.287  17.062  0.00  0.00    +0.000 A 
ATOM      5  N   UNL     1       2.105   2.345  17.702  0.00  0.00    +0.000 NA
ATOM      6  C   UNL     1       2.029   2.790  18.995  0.00  0.00    +0.000 A 
ATOM      7  C   UNL     1       1.467   2.157  20.113  0.00  0.00    +0.000 A 
ATOM      8  C   UNL     1       1.522   2.800  21.352  0.00  0.00    +0.000 A 
ATOM      9  C   UNL     1       2.118   4.056  21.478  0.00  0.00    +0.000 A 
ATOM     10  C   UNL     1       2.685   4.704  20.373  0.00  0.00    +0.000 A 
ATOM     11  C   UNL     1       2.629   4.041  19.138  0.00  0.00    +0.000 A 
ENDROOT
BRANCH   1  16
ATOM     12  C   UNL     1       7.976   4.851  13.348  0.00  0.00    +0.000 C 
ATOM     13  C   UNL     1       6.915   4.998  14.406  0.00  0.00    +0.000 A 
ATOM     14  C   UNL     1       7.211   5.698  15.589  0.00  0.00    +0.000 A 
ATOM     15  C   UNL     1       6.256   5.840  16.599  0.00  0.00    +0.000 A 
ATOM     16  C   UNL     1       4.984   5.302  16.422  0.00  0.00    +0.000 A 
ATOM     17  C   UNL     1       4.680   4.587  15.256  0.00  0.00    +0.000 A 
ATOM     18  C   UNL     1       5.638   4.425  14.243  0.00  0.00    +0.000 A 
ATOM     19  C   UNL     1       5.288   3.616  13.023  0.00  0.00    +0.000 C 
ENDBRANCH   1  16
TORSDOF 1
ENDMDL
MODEL 6
REMARK VINA RESULT:      -6.8      1.636      2.295
REMARK  Name = 
REMARK  3 active torsions:
REMARK  status: ('A' for Active; 'I' for Inactive)
REMARK    1  A    between atoms: C_1  and  C_2
REMARK    2  A    between atoms: C_5  and  C_6
REMARK    3  A    between atoms: C_18  and  C_19
REMARK                            x       y       z     vdW  Elec       q    Type
REMARK                         _______ _______ _______ _____ _____    ______ ____
ROOT
ATOM      1  C   UNL     1       3.523   3.524  16.940  0.00  0.00    +0.000 C 
ATOM      2  O   UNL     1       2.407   3.507  16.431  0.00  0.00    +0.000 OA
ATOM      3  N   UNL     1       3.658   3.059  18.259  0.00  0.00    +0.000 N 
ATOM      4  C   UNL     1       4.808   2.548  18.820  0.00  0.00    +0.000 A 
ATOM      5  N   UNL     1       4.692   2.314  20.105  0.00  0.00    +0.000 NA
ATOM      6  C   UNL     1       3.396   2.643  20.404  0.00  0.00    +0.000 A 
ATOM      7  C   UNL     1       2.744   2.618  21.646  0.00  0.00    +0.000 A 
ATOM      8  C   UNL     1       1.407   3.020  21.714  0.00  0.00    +0.000 A 
ATOM      9  C   UNL     1       0.726   3.431  20.568  0.00  0.00    +0.000 A 
ATOM     10  C   UNL     1       1.360   3.462  19.319  0.00  0.00    +0.000 A 
ATOM     11  C   UNL     1       2.704   3.064  19.269  0.00  0.00    +0.000 A 
ENDROOT
BRANCH   1  16
ATOM     12  C   UNL     1       8.084   5.523  13.971  0.00  0.00    +0.000 C 
ATOM     13  C   UNL     1       6.882   5.007  14.715  0.00  0.00    +0.000 A 
ATOM     14  C   UNL     1       6.649   5.436  16.034  0.00  0.00    +0.000 A 
ATOM     15  C   UNL     1       5.553   4.965  16.760  0.00  0.00    +0.000 A 
ATOM     16  C   UNL     1       4.663   4.077  16.161  0.00  0.00    +0.000 A 
ATOM     17  C   UNL     1       4.892   3.628  14.854  0.00  0.00    +0.000 A 
ATOM     18  C   UNL     1       6.000   4.082  14.122  0.00  0.00    +0.000 A 
ATOM     19  C   UNL     1       6.235   3.546  12.736  0.00  0.00    +0.000 C 
ENDBRANCH   1  16
TORSDOF 1
ENDMDL
MODEL 7
REMARK VINA RESULT:      -6.8      4.196      6.944
REMARK  Name = 
REMARK  3 active torsions:
REMARK  status: ('A' for Active; 'I' for Inactive)
REMARK    1  A    between atoms: C_1  and  C_2
REMARK    2  A    between atoms: C_5  and  C_6
REMARK    3  A    between atoms: C_18  and  C_19
REMARK                            x       y       z     vdW  Elec       q    Type
REMARK                         _______ _______ _______ _____ _____    ______ ____
ROOT
ATOM      1  C   UNL     1       2.362   7.165  19.387  0.00  0.00    +0.000 C 
ATOM      2  O   UNL     1       3.164   7.443  18.502  0.00  0.00    +0.000 OA
ATOM      3  N   UNL     1       2.199   5.814  19.737  0.00  0.00    +0.000 N 
ATOM      4  C   UNL     1       1.763   5.345  20.957  0.00  0.00    +0.000 A 
ATOM      5  N   UNL     1       1.575   4.047  20.968  0.00  0.00    +0.000 NA
ATOM      6  C   UNL     1       1.941   3.629  19.716  0.00  0.00    +0.000 A 
ATOM      7  C   UNL     1       1.905   2.337  19.171  0.00  0.00    +0.000 A 
ATOM      8  C   UNL     1       2.316   2.150  17.849  0.00  0.00    +0.000 A 
ATOM      9  C   UNL     1       2.765   3.226  17.083  0.00  0.00    +0.000 A 
ATOM     10  C   UNL     1       2.809   4.524  17.609  0.00  0.00    +0.000 A 
ATOM     11  C   UNL     1       2.384   4.696  18.935  0.00  0.00    +0.000 A 
ENDROOT
BRANCH   1  16
ATOM     12  C   UNL     1      -0.546  11.537  21.847  0.00  0.00    +0.000 C 
ATOM     13  C   UNL     1       0.187  10.402  21.185  0.00  0.00    +0.000 A 
ATOM     14  C   UNL     1       0.691   9.351  21.972  0.00  0.00    +0.000 A 
ATOM     15  C   UNL     1       1.391   8.290  21.392  0.00  0.00    +0.000 A 
ATOM     16  C   UNL     1       1.571   8.259  20.011  0.00  0.00    +0.000 A 
ATOM     17  C   UNL     1       1.090   9.308  19.217  0.00  0.00    +0.000 A 
ATOM     18  C   UNL     1       0.400  10.387  19.792  0.00  0.00    +0.000 A 
ATOM     19  C   UNL     1      -0.065  11.514  18.911  0.00  0.00    +0.000 C 
ENDBRANCH   1  16
TORSDOF 1
ENDMDL
MODEL 8
REMARK VINA RESULT:      -6.8      4.057      6.038
REMARK  Name = 
REMARK  3 active torsions:
REMARK  status: ('A' for Active; 'I' for Inactive)
REMARK    1  A    between atoms: C_1  and  C_2
REMARK    2  A    between atoms: C_5  and  C_6
REMARK    3  A    between atoms: C_18  and  C_19
REMARK                            x       y       z     vdW  Elec       q    Type
REMARK                         _______ _______ _______ _____ _____    ______ ____
ROOT
ATOM      1  C   UNL     1       2.100   7.043  20.053  0.00  0.00    +0.000 C 
ATOM      2  O   UNL     1       2.021   7.125  21.275  0.00  0.00    +0.000 OA
ATOM      3  N   UNL     1       1.833   8.193  19.292  0.00  0.00    +0.000 N 
ATOM      4  C   UNL     1       2.318   8.453  18.028  0.00  0.00    +0.000 A 
ATOM      5  N   UNL     1       1.803   9.535  17.495  0.00  0.00    +0.000 NA
ATOM      6  C   UNL     1       0.974  10.040  18.461  0.00  0.00    +0.000 A 
ATOM      7  C   UNL     1       0.144  11.170  18.409  0.00  0.00    +0.000 A 
ATOM      8  C   UNL     1      -0.638  11.486  19.523  0.00  0.00    +0.000 A 
ATOM      9  C   UNL     1      -0.591  10.698  20.674  0.00  0.00    +0.000 A 
ATOM     10  C   UNL     1       0.231   9.566  20.745  0.00  0.00    +0.000 A 
ATOM     11  C   UNL     1       1.003   9.258  19.615  0.00  0.00    +0.000 A 
ENDROOT
BRANCH   1  16
ATOM     12  C   UNL     1       3.438   1.851  17.845  0.00  0.00    +0.000 C 
ATOM     13  C   UNL     1       3.062   3.197  18.403  0.00  0.00    +0.000 A 
ATOM     14  C   UNL     1       4.026   4.220  18.449  0.00  0.00    +0.000 A 
ATOM     15  C   UNL     1       3.717   5.476  18.976  0.00  0.00    +0.000 A 
ATOM     16  C   UNL     1       2.428   5.729  19.440  0.00  0.00    +0.000 A 
ATOM     17  C   UNL     1       1.462   4.714  19.416  0.00  0.00    +0.000 A 
ATOM     18  C   UNL     1       1.768   3.443  18.904  0.00  0.00    +0.000 A 
ATOM     19  C   UNL     1       0.717   2.367  18.933  0.00  0.00    +0.000 C 
ENDBRANCH   1  16
TORSDOF 1
ENDMDL
MODEL 9
REMARK VINA RESULT:      -6.8      5.588      7.423
REMARK  Name = 
REMARK  3 active torsions:
REMARK  status: ('A' for Active; 'I' for Inactive)
REMARK    1  A    between atoms: C_1  and  C_2
REMARK    2  A    between atoms: C_5  and  C_6
REMARK    3  A    between atoms: C_18  and  C_19
REMARK                            x       y       z     vdW  Elec       q    Type
REMARK                         _______ _______ _______ _____ _____    ______ ____
ROOT
ATOM      1  C   UNL     1       1.329   8.735  21.060  0.00  0.00    +0.000 C 
ATOM      2  O   UNL     1       1.734   8.796  22.216  0.00  0.00    +0.000 OA
ATOM      3  N   UNL     1       0.527   9.784  20.582  0.00  0.00    +0.000 N 
ATOM      4  C   UNL     1       0.387  10.155  19.261  0.00  0.00    +0.000 A 
ATOM      5  N   UNL     1      -0.527  11.078  19.082  0.00  0.00    +0.000 NA
ATOM      6  C   UNL     1      -0.985  11.365  20.341  0.00  0.00    +0.000 A 
ATOM      7  C   UNL     1      -1.995  12.258  20.730  0.00  0.00    +0.000 A 
ATOM      8  C   UNL     1      -2.308  12.373  22.087  0.00  0.00    +0.000 A 
ATOM      9  C   UNL     1      -1.624  11.622  23.043  0.00  0.00    +0.000 A 
ATOM     10  C   UNL     1      -0.613  10.725  22.674  0.00  0.00    +0.000 A 
ATOM     11  C   UNL     1      -0.317  10.614  21.308  0.00  0.00    +0.000 A 
ENDROOT
BRANCH   1  16
ATOM     12  C   UNL     1       2.826   4.072  17.956  0.00  0.00    +0.000 C 
ATOM     13  C   UNL     1       2.409   5.268  18.769  0.00  0.00    +0.000 A 
ATOM     14  C   UNL     1       2.675   6.561  18.283  0.00  0.00    +0.000 A 
ATOM     15  C   UNL     1       2.317   7.693  19.019  0.00  0.00    +0.000 A 
ATOM     16  C   UNL     1       1.666   7.541  20.241  0.00  0.00    +0.000 A 
ATOM     17  C   UNL     1       1.410   6.259  20.745  0.00  0.00    +0.000 A 
ATOM     18  C   UNL     1       1.781   5.115  20.021  0.00  0.00    +0.000 A 
ATOM     19  C   UNL     1       1.527   3.756  20.615  0.00  0.00    +0.000 C 
ENDBRANCH   1  16
TORSDOF 1
ENDMDL
