MODEL 1
REMARK VINA RESULT:      -8.1      0.000      0.000
REMARK  Name = 
REMARK  12 active torsions:
REMARK  status: ('A' for Active; 'I' for Inactive)
REMARK    1  A    between atoms: C_1  and  O_2
REMARK    2  A    between atoms: O_2  and  C_3
REMARK    3  A    between atoms: C_6  and  N_7
REMARK    4  A    between atoms: N_7  and  C_8
REMARK    5  A    between atoms: C_11  and  C_12
REMARK    6  A    between atoms: C_12  and  N_13
REMARK    7  A    between atoms: N_13  and  CA_14
REMARK    8  A    between atoms: CA_14  and  CB_15
REMARK    9  A    between atoms: CA_14  and  C_16
REMARK   10  A    between atoms: C_16  and  O_17
REMARK   11  A    between atoms: C_19  and  C_20
REMARK   12  A    between atoms: C_22  and  C_23
REMARK                            x       y       z     vdW  Elec       q    Type
REMARK                         _______ _______ _______ _____ _____    ______ ____
ROOT
ATOM      1  C   UNL     1       4.263   6.146  17.693  0.00  0.00    +0.000 A 
ATOM      2  N   UNL     1       4.620   6.946  16.655  0.00  0.00    +0.000 NA
ATOM      3  C   UNL     1       5.242   6.402  15.593  0.00  0.00    +0.000 A 
ATOM      4  C   UNL     1       5.558   5.060  15.489  0.00  0.00    +0.000 A 
ATOM      5  C   UNL     1       5.158   4.234  16.545  0.00  0.00    +0.000 A 
ATOM      6  C   UNL     1       4.498   4.757  17.677  0.00  0.00    +0.000 A 
ENDROOT
BRANCH   6   7
ATOM      7  C   UNL     1       4.044   3.873  18.765  0.00  0.00    +0.000 A 
ATOM      8  N   UNL     1       2.807   4.036  19.235  0.00  0.00    +0.000 NA
ATOM      9  C   UNL     1       2.466   3.190  20.208  0.00  0.00    +0.000 A 
ATOM     10  C   UNL     1       1.069   3.267  20.741  0.00  0.00    +0.000 C 
ATOM     11  N   UNL     1       3.272   2.266  20.734  0.00  0.00    +0.000 NA
ATOM     12  C   UNL     1       4.477   2.196  20.200  0.00  0.00    +0.000 A 
ATOM     13  N   UNL     1       5.354   1.258  20.707  0.00  0.00    +0.000 N 
ATOM     14  N   UNL     1       4.922   2.968  19.221  0.00  0.00    +0.000 NA
ATOM     15  H   UNL     1       5.084   0.989  21.643  0.00  0.00    +0.000 HD
ATOM     16  H   UNL     1       6.315   1.535  20.569  0.00  0.00    +0.000 HD
ENDBRANCH   6   7
BRANCH   1  17
ATOM     17  N   UNL     1       3.762   6.794  18.858  0.00  0.00    +0.000 N 
ATOM     18  H   UNL     1       3.571   6.076  19.564  0.00  0.00    +0.000 HD
BRANCH  17  22
ATOM     19  C   UNL     1       0.656   9.558  18.913  0.00  0.00    +0.000 A 
ATOM     20  C   UNL     1       1.376   9.404  17.739  0.00  0.00    +0.000 A 
ATOM     21  C   UNL     1       2.403   8.458  17.708  0.00  0.00    +0.000 A 
ATOM     22  C   UNL     1       2.650   7.671  18.831  0.00  0.00    +0.000 A 
ATOM     23  C   UNL     1       1.869   7.920  19.961  0.00  0.00    +0.000 A 
ATOM     24  N   UNL     1       0.885   8.841  20.030  0.00  0.00    +0.000 NA
BRANCH  19  26
ATOM     25  C   UNL     1       0.217  11.837  19.083  0.00  0.00    +0.000 C 
ATOM     26  O   UNL     1      -0.326  10.527  18.926  0.00  0.00    +0.000 OA
ENDBRANCH  19  26
ENDBRANCH  17  22
ENDBRANCH   1  17
BRANCH   4  27
ATOM     27  C   ACE A   0       6.383   4.564  14.332  0.00  0.00    +0.000 C 
BRANCH  27  28
ATOM     28  N   UNL     1       5.814   3.372  13.698  0.00  0.00    +0.000 NA
ATOM     29  H   UNL     1       4.839   3.289  13.994  0.00  0.00    +0.000 HD
BRANCH  28  30
ATOM     30  CA  UNL     1       5.841   3.469  12.217  0.00  0.00    +0.000 C 
ATOM     31  CB  UNL     1       4.427   3.167  11.708  0.00  0.00    +0.000 C 
BRANCH  30  32
ATOM     32  C   UNL     1       6.851   2.493  11.575  0.00  0.00    +0.000 C 
BRANCH  32  33
ATOM     33  O   UNL     1       6.244   1.229  11.326  0.00  0.00    +0.000 OA
ATOM     34  H   UNL     1       5.869   0.948  12.184  0.00  0.00    +0.000 HD
ENDBRANCH  32  33
ENDBRANCH  30  32
ENDBRANCH  28  30
ENDBRANCH  27  28
ENDBRANCH   4  27
TORSDOF 9
ENDMDL
MODEL 2
REMARK VINA RESULT:      -8.1      1.041      1.041
REMARK  Name = 
REMARK  12 active torsions:
REMARK  status: ('A' for Active; 'I' for Inactive)
REMARK    1  A    between atoms: C_1  and  O_2
REMARK    2  A    between atoms: O_2  and  C_3
REMARK    3  A    between atoms: C_6  and  N_7
REMARK    4  A    between atoms: N_7  and  C_8
REMARK    5  A    between atoms: C_11  and  C_12
REMARK    6  A    between atoms: C_12  and  N_13
REMARK    7  A    between atoms: N_13  and  CA_14
REMARK    8  A    between atoms: CA_14  and  CB_15
REMARK    9  A    between atoms: CA_14  and  C_16
REMARK   10  A    between atoms: C_16  and  O_17
REMARK   11  A    between atoms: C_19  and  C_20
REMARK   12  A    between atoms: C_22  and  C_23
REMARK                            x       y       z     vdW  Elec       q    Type
REMARK                         _______ _______ _______ _____ _____    ______ ____
ROOT
ATOM      1  C   UNL     1       4.305   5.939  17.337  0.00  0.00    +0.000 A 
ATOM      2  N   UNL     1       4.923   6.876  16.571  0.00  0.00    +0.000 NA
ATOM      3  C   UNL     1       5.566   6.488  15.455  0.00  0.00    +0.000 A 
ATOM      4  C   UNL     1       5.653   5.175  15.032  0.00  0.00    +0.000 A 
ATOM      5  C   UNL     1       4.986   4.218  15.804  0.00  0.00    +0.000 A 
ATOM      6  C   UNL     1       4.293   4.576  16.980  0.00  0.00    +0.000 A 
ENDROOT
BRANCH   6   7
ATOM      7  C   UNL     1       3.560   3.567  17.765  0.00  0.00    +0.000 A 
ATOM      8  N   UNL     1       2.352   3.887  18.231  0.00  0.00    +0.000 NA
ATOM      9  C   UNL     1       1.747   2.917  18.918  0.00  0.00    +0.000 A 
ATOM     10  C   UNL     1       0.360   3.177  19.417  0.00  0.00    +0.000 C 
ATOM     11  N   UNL     1       2.279   1.723  19.184  0.00  0.00    +0.000 NA
ATOM     12  C   UNL     1       3.482   1.515  18.682  0.00  0.00    +0.000 A 
ATOM     13  N   UNL     1       4.082   0.295  18.926  0.00  0.00    +0.000 N 
ATOM     14  N   UNL     1       4.172   2.392  17.970  0.00  0.00    +0.000 NA
ATOM     15  H   UNL     1       3.676  -0.142  19.743  0.00  0.00    +0.000 HD
ATOM     16  H   UNL     1       5.088   0.364  18.896  0.00  0.00    +0.000 HD
ENDBRANCH   6   7
BRANCH   1  17
ATOM     17  N   UNL     1       3.785   6.376  18.589  0.00  0.00    +0.000 N 
ATOM     18  H   UNL     1       3.455   5.552  19.101  0.00  0.00    +0.000 HD
BRANCH  17  22
ATOM     19  C   UNL     1       1.041   9.466  19.054  0.00  0.00    +0.000 A 
ATOM     20  C   UNL     1       1.681   9.335  17.831  0.00  0.00    +0.000 A 
ATOM     21  C   UNL     1       2.584   8.283  17.662  0.00  0.00    +0.000 A 
ATOM     22  C   UNL     1       2.787   7.375  18.699  0.00  0.00    +0.000 A 
ATOM     23  C   UNL     1       2.096   7.610  19.889  0.00  0.00    +0.000 A 
ATOM     24  N   UNL     1       1.234   8.629  20.092  0.00  0.00    +0.000 NA
BRANCH  19  26
ATOM     25  C   UNL     1      -0.477  10.519  20.469  0.00  0.00    +0.000 C 
ATOM     26  O   UNL     1       0.184  10.536  19.204  0.00  0.00    +0.000 OA
ENDBRANCH  19  26
ENDBRANCH  17  22
ENDBRANCH   1  17
BRANCH   4  27
ATOM     27  C   ACE A   0       6.515   4.815  13.852  0.00  0.00    +0.000 C 
BRANCH  27  28
ATOM     28  N   UNL     1       6.356   3.419  13.437  0.00  0.00    +0.000 NA
ATOM     29  H   UNL     1       5.539   3.036  13.917  0.00  0.00    +0.000 HD
BRANCH  28  30
ATOM     30  CA  UNL     1       6.129   3.301  11.975  0.00  0.00    +0.000 C 
ATOM     31  CB  UNL     1       4.614   3.270  11.742  0.00  0.00    +0.000 C 
BRANCH  30  32
ATOM     32  C   UNL     1       6.780   2.036  11.372  0.00  0.00    +0.000 C 
BRANCH  32  33
ATOM     33  O   UNL     1       5.981   0.885  11.630  0.00  0.00    +0.000 OA
ATOM     34  H   UNL     1       5.234   1.204  12.175  0.00  0.00    +0.000 HD
ENDBRANCH  32  33
ENDBRANCH  30  32
ENDBRANCH  28  30
ENDBRANCH  27  28
ENDBRANCH   4  27
TORSDOF 9
ENDMDL
MODEL 3
REMARK VINA RESULT:      -7.8      1.621      7.436
REMARK  Name = 
REMARK  12 active torsions:
REMARK  status: ('A' for Active; 'I' for Inactive)
REMARK    1  A    between atoms: C_1  and  O_2
REMARK    2  A    between atoms: O_2  and  C_3
REMARK    3  A    between atoms: C_6  and  N_7
REMARK    4  A    between atoms: N_7  and  C_8
REMARK    5  A    between atoms: C_11  and  C_12
REMARK    6  A    between atoms: C_12  and  N_13
REMARK    7  A    between atoms: N_13  and  CA_14
REMARK    8  A    between atoms: CA_14  and  CB_15
REMARK    9  A    between atoms: CA_14  and  C_16
REMARK   10  A    between atoms: C_16  and  O_17
REMARK   11  A    between atoms: C_19  and  C_20
REMARK   12  A    between atoms: C_22  and  C_23
REMARK                            x       y       z     vdW  Elec       q    Type
REMARK                         _______ _______ _______ _____ _____    ______ ____
ROOT
ATOM      1  C   UNL     1       4.227   6.421  17.956  0.00  0.00    +0.000 A 
ATOM      2  N   UNL     1       4.322   7.682  17.460  0.00  0.00    +0.000 NA
ATOM      3  C   UNL     1       3.268   8.511  17.576  0.00  0.00    +0.000 A 
ATOM      4  C   UNL     1       2.071   8.158  18.168  0.00  0.00    +0.000 A 
ATOM      5  C   UNL     1       1.990   6.870  18.709  0.00  0.00    +0.000 A 
ATOM      6  C   UNL     1       3.069   5.966  18.617  0.00  0.00    +0.000 A 
ENDROOT
BRANCH   6   7
ATOM      7  C   UNL     1       2.990   4.626  19.225  0.00  0.00    +0.000 A 
ATOM      8  N   UNL     1       3.329   3.574  18.480  0.00  0.00    +0.000 NA
ATOM      9  C   UNL     1       3.246   2.399  19.105  0.00  0.00    +0.000 A 
ATOM     10  C   UNL     1       3.674   1.177  18.354  0.00  0.00    +0.000 C 
ATOM     11  N   UNL     1       2.822   2.230  20.359  0.00  0.00    +0.000 NA
ATOM     12  C   UNL     1       2.503   3.337  21.003  0.00  0.00    +0.000 A 
ATOM     13  N   UNL     1       2.057   3.221  22.305  0.00  0.00    +0.000 N 
ATOM     14  N   UNL     1       2.563   4.558  20.494  0.00  0.00    +0.000 NA
ATOM     15  H   UNL     1       1.701   2.290  22.476  0.00  0.00    +0.000 HD
ATOM     16  H   UNL     1       1.462   3.994  22.563  0.00  0.00    +0.000 HD
ENDBRANCH   6   7
BRANCH   1  17
ATOM     17  N   UNL     1       5.302   5.534  17.660  0.00  0.00    +0.000 N 
ATOM     18  H   UNL     1       6.112   5.820  18.218  0.00  0.00    +0.000 HD
BRANCH  17  22
ATOM     19  C   UNL     1       6.794   4.612  13.890  0.00  0.00    +0.000 A 
ATOM     20  C   UNL     1       5.526   4.160  14.223  0.00  0.00    +0.000 A 
ATOM     21  C   UNL     1       5.011   4.489  15.478  0.00  0.00    +0.000 A 
ATOM     22  C   UNL     1       5.756   5.290  16.341  0.00  0.00    +0.000 A 
ATOM     23  C   UNL     1       7.024   5.680  15.905  0.00  0.00    +0.000 A 
ATOM     24  N   UNL     1       7.559   5.361  14.708  0.00  0.00    +0.000 NA
BRANCH  19  26
ATOM     25  C   UNL     1       6.470   3.259  12.025  0.00  0.00    +0.000 C 
ATOM     26  O   UNL     1       7.292   4.239  12.659  0.00  0.00    +0.000 OA
ENDBRANCH  19  26
ENDBRANCH  17  22
ENDBRANCH   1  17
BRANCH   4  27
ATOM     27  C   ACE A   0       0.898   9.099  18.124  0.00  0.00    +0.000 C 
BRANCH  27  28
ATOM     28  N   UNL     1       1.294  10.507  18.224  0.00  0.00    +0.000 NA
ATOM     29  H   UNL     1       1.484  10.851  17.281  0.00  0.00    +0.000 HD
BRANCH  28  30
ATOM     30  CA  UNL     1       0.217  11.342  18.811  0.00  0.00    +0.000 C 
ATOM     31  CB  UNL     1       0.060  10.933  20.280  0.00  0.00    +0.000 C 
BRANCH  30  32
ATOM     32  C   UNL     1      -1.131  11.180  18.073  0.00  0.00    +0.000 C 
BRANCH  32  33
ATOM     33  O   UNL     1      -1.462  12.367  17.359  0.00  0.00    +0.000 OA
ATOM     34  H   UNL     1      -0.744  12.486  16.706  0.00  0.00    +0.000 HD
ENDBRANCH  32  33
ENDBRANCH  30  32
ENDBRANCH  28  30
ENDBRANCH  27  28
ENDBRANCH   4  27
TORSDOF 9
ENDMDL
MODEL 4
REMARK VINA RESULT:      -7.7      0.969      1.604
REMARK  Name = 
REMARK  12 active torsions:
REMARK  status: ('A' for Active; 'I' for Inactive)
REMARK    1  A    between atoms: C_1  and  O_2
REMARK    2  A    between atoms: O_2  and  C_3
REMARK    3  A    between atoms: C_6  and  N_7
REMARK    4  A    between atoms: N_7  and  C_8
REMARK    5  A    between atoms: C_11  and  C_12
REMARK    6  A    between atoms: C_12  and  N_13
REMARK    7  A    between atoms: N_13  and  CA_14
REMARK    8  A    between atoms: CA_14  and  CB_15
REMARK    9  A    between atoms: CA_14  and  C_16
REMARK   10  A    between atoms: C_16  and  O_17
REMARK   11  A    between atoms: C_19  and  C_20
REMARK   12  A    between atoms: C_22  and  C_23
REMARK                            x       y       z     vdW  Elec       q    Type
REMARK                         _______ _______ _______ _____ _____    ______ ____
ROOT
ATOM      1  C   UNL     1       4.493   5.858  17.336  0.00  0.00    +0.000 A 
ATOM      2  N   UNL     1       5.017   6.732  16.438  0.00  0.00    +0.000 NA
ATOM      3  C   UNL     1       5.594   6.254  15.320  0.00  0.00    +0.000 A 
ATOM      4  C   UNL     1       5.702   4.909  15.023  0.00  0.00    +0.000 A 
ATOM      5  C   UNL     1       5.130   4.013  15.934  0.00  0.00    +0.000 A 
ATOM      6  C   UNL     1       4.509   4.466  17.117  0.00  0.00    +0.000 A 
ENDROOT
BRANCH   6   7
ATOM      7  C   UNL     1       3.874   3.519  18.050  0.00  0.00    +0.000 A 
ATOM      8  N   UNL     1       4.612   3.018  19.040  0.00  0.00    +0.000 NA
ATOM      9  C   UNL     1       3.963   2.181  19.850  0.00  0.00    +0.000 A 
ATOM     10  C   UNL     1       4.708   1.628  21.025  0.00  0.00    +0.000 C 
ATOM     11  N   UNL     1       2.690   1.808  19.702  0.00  0.00    +0.000 NA
ATOM     12  C   UNL     1       2.055   2.357  18.684  0.00  0.00    +0.000 A 
ATOM     13  N   UNL     1       0.735   2.007  18.481  0.00  0.00    +0.000 N 
ATOM     14  N   UNL     1       2.588   3.214  17.826  0.00  0.00    +0.000 NA
ATOM     15  H   UNL     1       0.533   1.119  18.921  0.00  0.00    +0.000 HD
ATOM     16  H   UNL     1       0.467   2.110  17.514  0.00  0.00    +0.000 HD
ENDBRANCH   6   7
BRANCH   1  17
ATOM     17  N   UNL     1       4.047   6.402  18.574  0.00  0.00    +0.000 N 
ATOM     18  H   UNL     1       3.837   5.623  19.207  0.00  0.00    +0.000 HD
BRANCH  17  22
ATOM     19  C   UNL     1       1.070   9.274  19.003  0.00  0.00    +0.000 A 
ATOM     20  C   UNL     1       1.793   9.251  17.821  0.00  0.00    +0.000 A 
ATOM     21  C   UNL     1       2.776   8.271  17.662  0.00  0.00    +0.000 A 
ATOM     22  C   UNL     1       2.977   7.326  18.666  0.00  0.00    +0.000 A 
ATOM     23  C   UNL     1       2.198   7.452  19.817  0.00  0.00    +0.000 A 
ATOM     24  N   UNL     1       1.255   8.399  20.011  0.00  0.00    +0.000 NA
BRANCH  19  26
ATOM     25  C   UNL     1       0.687  11.567  18.889  0.00  0.00    +0.000 C 
ATOM     26  O   UNL     1       0.133  10.277  19.147  0.00  0.00    +0.000 OA
ENDBRANCH  19  26
ENDBRANCH  17  22
ENDBRANCH   1  17
BRANCH   4  27
ATOM     27  C   ACE A   0       6.491   4.459  13.823  0.00  0.00    +0.000 C 
BRANCH  27  28
ATOM     28  N   UNL     1       6.052   3.159  13.308  0.00  0.00    +0.000 NA
ATOM     29  H   UNL     1       5.143   2.944  13.723  0.00  0.00    +0.000 HD
BRANCH  28  30
ATOM     30  CA  UNL     1       5.892   3.177  11.832  0.00  0.00    +0.000 C 
ATOM     31  CB  UNL     1       4.390   3.171  11.529  0.00  0.00    +0.000 C 
BRANCH  30  32
ATOM     32  C   UNL     1       6.572   1.972  11.146  0.00  0.00    +0.000 C 
BRANCH  32  33
ATOM     33  O   UNL     1       6.015   0.745  11.609  0.00  0.00    +0.000 OA
ATOM     34  H   UNL     1       6.287   0.675  12.546  0.00  0.00    +0.000 HD
ENDBRANCH  32  33
ENDBRANCH  30  32
ENDBRANCH  28  30
ENDBRANCH  27  28
ENDBRANCH   4  27
TORSDOF 9
ENDMDL
MODEL 5
REMARK VINA RESULT:      -7.7      1.581      7.368
REMARK  Name = 
REMARK  12 active torsions:
REMARK  status: ('A' for Active; 'I' for Inactive)
REMARK    1  A    between atoms: C_1  and  O_2
REMARK    2  A    between atoms: O_2  and  C_3
REMARK    3  A    between atoms: C_6  and  N_7
REMARK    4  A    between atoms: N_7  and  C_8
REMARK    5  A    between atoms: C_11  and  C_12
REMARK    6  A    between atoms: C_12  and  N_13
REMARK    7  A    between atoms: N_13  and  CA_14
REMARK    8  A    between atoms: CA_14  and  CB_15
REMARK    9  A    between atoms: CA_14  and  C_16
REMARK   10  A    between atoms: C_16  and  O_17
REMARK   11  A    between atoms: C_19  and  C_20
REMARK   12  A    between atoms: C_22  and  C_23
REMARK                            x       y       z     vdW  Elec       q    Type
REMARK                         _______ _______ _______ _____ _____    ______ ____
ROOT
ATOM      1  C   UNL     1       4.209   6.267  17.823  0.00  0.00    +0.000 A 
ATOM      2  N   UNL     1       4.378   7.546  17.396  0.00  0.00    +0.000 NA
ATOM      3  C   UNL     1       3.359   8.416  17.519  0.00  0.00    +0.000 A 
ATOM      4  C   UNL     1       2.126   8.090  18.050  0.00  0.00    +0.000 A 
ATOM      5  C   UNL     1       1.968   6.781  18.521  0.00  0.00    +0.000 A 
ATOM      6  C   UNL     1       3.009   5.834  18.419  0.00  0.00    +0.000 A 
ENDROOT
BRANCH   6   7
ATOM      7  C   UNL     1       2.848   4.471  18.955  0.00  0.00    +0.000 A 
ATOM      8  N   UNL     1       2.237   4.323  20.130  0.00  0.00    +0.000 NA
ATOM      9  C   UNL     1       2.116   3.059  20.540  0.00  0.00    +0.000 A 
ATOM     10  C   UNL     1       1.382   2.808  21.820  0.00  0.00    +0.000 C 
ATOM     11  N   UNL     1       2.588   1.996  19.886  0.00  0.00    +0.000 NA
ATOM     12  C   UNL     1       3.183   2.257  18.737  0.00  0.00    +0.000 A 
ATOM     13  N   UNL     1       3.692   1.194  18.018  0.00  0.00    +0.000 N 
ATOM     14  N   UNL     1       3.345   3.466  18.221  0.00  0.00    +0.000 NA
ATOM     15  H   UNL     1       3.854   0.401  18.623  0.00  0.00    +0.000 HD
ATOM     16  H   UNL     1       4.456   1.480  17.423  0.00  0.00    +0.000 HD
ENDBRANCH   6   7
BRANCH   1  17
ATOM     17  N   UNL     1       5.254   5.348  17.519  0.00  0.00    +0.000 N 
ATOM     18  H   UNL     1       6.052   5.563  18.125  0.00  0.00    +0.000 HD
BRANCH  17  22
ATOM     19  C   UNL     1       6.867   4.573  13.766  0.00  0.00    +0.000 A 
ATOM     20  C   UNL     1       5.581   4.131  14.031  0.00  0.00    +0.000 A 
ATOM     21  C   UNL     1       5.026   4.411  15.281  0.00  0.00    +0.000 A 
ATOM     22  C   UNL     1       5.752   5.157  16.207  0.00  0.00    +0.000 A 
ATOM     23  C   UNL     1       7.042   5.541  15.836  0.00  0.00    +0.000 A 
ATOM     24  N   UNL     1       7.615   5.268  14.645  0.00  0.00    +0.000 NA
BRANCH  19  26
ATOM     25  C   UNL     1       6.644   3.238  11.873  0.00  0.00    +0.000 C 
ATOM     26  O   UNL     1       7.404   4.247  12.538  0.00  0.00    +0.000 OA
ENDBRANCH  19  26
ENDBRANCH  17  22
ENDBRANCH   1  17
BRANCH   4  27
ATOM     27  C   ACE A   0       0.998   9.085  18.014  0.00  0.00    +0.000 C 
BRANCH  27  28
ATOM     28  N   UNL     1       0.724   9.680  19.325  0.00  0.00    +0.000 NA
ATOM     29  H   UNL     1       1.554  10.201  19.617  0.00  0.00    +0.000 HD
BRANCH  28  30
ATOM     30  CA  UNL     1      -0.419  10.627  19.272  0.00  0.00    +0.000 C 
ATOM     31  CB  UNL     1      -1.319  10.202  18.107  0.00  0.00    +0.000 C 
BRANCH  30  32
ATOM     32  C   UNL     1       0.032  12.093  19.081  0.00  0.00    +0.000 C 
BRANCH  32  33
ATOM     33  O   UNL     1      -0.440  12.608  17.840  0.00  0.00    +0.000 OA
ATOM     34  H   UNL     1      -1.406  12.456  17.846  0.00  0.00    +0.000 HD
ENDBRANCH  32  33
ENDBRANCH  30  32
ENDBRANCH  28  30
ENDBRANCH  27  28
ENDBRANCH   4  27
TORSDOF 9
ENDMDL
MODEL 6
REMARK VINA RESULT:      -7.6      0.803      1.259
REMARK  Name = 
REMARK  12 active torsions:
REMARK  status: ('A' for Active; 'I' for Inactive)
REMARK    1  A    between atoms: C_1  and  O_2
REMARK    2  A    between atoms: O_2  and  C_3
REMARK    3  A    between atoms: C_6  and  N_7
REMARK    4  A    between atoms: N_7  and  C_8
REMARK    5  A    between atoms: C_11  and  C_12
REMARK    6  A    between atoms: C_12  and  N_13
REMARK    7  A    between atoms: N_13  and  CA_14
REMARK    8  A    between atoms: CA_14  and  CB_15
REMARK    9  A    between atoms: CA_14  and  C_16
REMARK   10  A    between atoms: C_16  and  O_17
REMARK   11  A    between atoms: C_19  and  C_20
REMARK   12  A    between atoms: C_22  and  C_23
REMARK                            x       y       z     vdW  Elec       q    Type
REMARK                         _______ _______ _______ _____ _____    ______ ____
ROOT
ATOM      1  C   UNL     1       3.972   6.214  17.906  0.00  0.00    +0.000 A 
ATOM      2  N   UNL     1       4.294   7.082  16.911  0.00  0.00    +0.000 NA
ATOM      3  C   UNL     1       5.010   6.637  15.862  0.00  0.00    +0.000 A 
ATOM      4  C   UNL     1       5.457   5.336  15.730  0.00  0.00    +0.000 A 
ATOM      5  C   UNL     1       5.093   4.437  16.739  0.00  0.00    +0.000 A 
ATOM      6  C   UNL     1       4.339   4.855  17.856  0.00  0.00    +0.000 A 
ENDROOT
BRANCH   6   7
ATOM      7  C   UNL     1       3.926   3.894  18.894  0.00  0.00    +0.000 A 
ATOM      8  N   UNL     1       2.678   3.965  19.358  0.00  0.00    +0.000 NA
ATOM      9  C   UNL     1       2.376   3.053  20.283  0.00  0.00    +0.000 A 
ATOM     10  C   UNL     1       0.973   3.027  20.805  0.00  0.00    +0.000 C 
ATOM     11  N   UNL     1       3.227   2.148  20.770  0.00  0.00    +0.000 NA
ATOM     12  C   UNL     1       4.438   2.171  20.246  0.00  0.00    +0.000 A 
ATOM     13  N   UNL     1       5.362   1.257  20.714  0.00  0.00    +0.000 N 
ATOM     14  N   UNL     1       4.847   3.015  19.312  0.00  0.00    +0.000 NA
ATOM     15  H   UNL     1       5.099   0.927  21.632  0.00  0.00    +0.000 HD
ATOM     16  H   UNL     1       6.306   1.593  20.600  0.00  0.00    +0.000 HD
ENDBRANCH   6   7
BRANCH   1  17
ATOM     17  N   UNL     1       3.362   6.769  19.067  0.00  0.00    +0.000 N 
ATOM     18  H   UNL     1       2.903   6.009  19.579  0.00  0.00    +0.000 HD
BRANCH  17  22
ATOM     19  C   UNL     1       0.506   9.782  18.814  0.00  0.00    +0.000 A 
ATOM     20  C   UNL     1       0.773   9.234  20.059  0.00  0.00    +0.000 A 
ATOM     21  C   UNL     1       1.750   8.240  20.152  0.00  0.00    +0.000 A 
ATOM     22  C   UNL     1       2.455   7.856  19.014  0.00  0.00    +0.000 A 
ATOM     23  C   UNL     1       2.095   8.468  17.812  0.00  0.00    +0.000 A 
ATOM     24  N   UNL     1       1.142   9.415  17.684  0.00  0.00    +0.000 NA
BRANCH  19  26
ATOM     25  C   UNL     1      -0.242  11.831  19.624  0.00  0.00    +0.000 C 
ATOM     26  O   UNL     1      -0.490  10.733  18.746  0.00  0.00    +0.000 OA
ENDBRANCH  19  26
ENDBRANCH  17  22
ENDBRANCH   1  17
BRANCH   4  27
ATOM     27  C   ACE A   0       6.374   4.962  14.597  0.00  0.00    +0.000 C 
BRANCH  27  28
ATOM     28  N   UNL     1       6.263   3.551  14.218  0.00  0.00    +0.000 NA
ATOM     29  H   UNL     1       5.392   3.185  14.608  0.00  0.00    +0.000 HD
BRANCH  28  30
ATOM     30  CA  UNL     1       6.216   3.378  12.744  0.00  0.00    +0.000 C 
ATOM     31  CB  UNL     1       7.161   4.413  12.125  0.00  0.00    +0.000 C 
BRANCH  30  32
ATOM     32  C   UNL     1       4.793   3.556  12.170  0.00  0.00    +0.000 C 
BRANCH  32  33
ATOM     33  O   UNL     1       4.527   2.580  11.166  0.00  0.00    +0.000 OA
ATOM     34  H   UNL     1       5.011   2.886  10.373  0.00  0.00    +0.000 HD
ENDBRANCH  32  33
ENDBRANCH  30  32
ENDBRANCH  28  30
ENDBRANCH  27  28
ENDBRANCH   4  27
TORSDOF 9
ENDMDL
MODEL 7
REMARK VINA RESULT:      -7.6      2.078      7.727
REMARK  Name = 
REMARK  12 active torsions:
REMARK  status: ('A' for Active; 'I' for Inactive)
REMARK    1  A    between atoms: C_1  and  O_2
REMARK    2  A    between atoms: O_2  and  C_3
REMARK    3  A    between atoms: C_6  and  N_7
REMARK    4  A    between atoms: N_7  and  C_8
REMARK    5  A    between atoms: C_11  and  C_12
REMARK    6  A    between atoms: C_12  and  N_13
REMARK    7  A    between atoms: N_13  and  CA_14
REMARK    8  A    between atoms: CA_14  and  CB_15
REMARK    9  A    between atoms: CA_14  and  C_16
REMARK   10  A    between atoms: C_16  and  O_17
REMARK   11  A    between atoms: C_19  and  C_20
REMARK   12  A    between atoms: C_22  and  C_23
REMARK                            x       y       z     vdW  Elec       q    Type
REMARK                         _______ _______ _______ _____ _____    ______ ____
ROOT
ATOM      1  C   UNL     1       3.469   6.030  17.985  0.00  0.00    +0.000 A 
ATOM      2  N   UNL     1       3.426   7.243  17.375  0.00  0.00    +0.000 NA
ATOM      3  C   UNL     1       2.752   8.248  17.964  0.00  0.00    +0.000 A 
ATOM      4  C   UNL     1       2.080   8.126  19.165  0.00  0.00    +0.000 A 
ATOM      5  C   UNL     1       2.155   6.884  19.807  0.00  0.00    +0.000 A 
ATOM      6  C   UNL     1       2.854   5.802  19.232  0.00  0.00    +0.000 A 
ENDROOT
BRANCH   6   7
ATOM      7  C   UNL     1       2.963   4.511  19.934  0.00  0.00    +0.000 A 
ATOM      8  N   UNL     1       2.009   4.186  20.807  0.00  0.00    +0.000 NA
ATOM      9  C   UNL     1       2.170   2.997  21.390  0.00  0.00    +0.000 A 
ATOM     10  C   UNL     1       1.106   2.533  22.334  0.00  0.00    +0.000 C 
ATOM     11  N   UNL     1       3.205   2.180  21.184  0.00  0.00    +0.000 NA
ATOM     12  C   UNL     1       4.094   2.603  20.306  0.00  0.00    +0.000 A 
ATOM     13  N   UNL     1       5.187   1.797  20.053  0.00  0.00    +0.000 N 
ATOM     14  N   UNL     1       4.031   3.753  19.652  0.00  0.00    +0.000 NA
ATOM     15  H   UNL     1       5.343   1.160  20.823  0.00  0.00    +0.000 HD
ATOM     16  H   UNL     1       5.979   2.335  19.736  0.00  0.00    +0.000 HD
ENDBRANCH   6   7
BRANCH   1  17
ATOM     17  N   UNL     1       4.049   4.961  17.244  0.00  0.00    +0.000 N 
ATOM     18  H   UNL     1       4.341   4.237  17.907  0.00  0.00    +0.000 HD
BRANCH  17  22
ATOM     19  C   UNL     1       7.304   5.321  14.681  0.00  0.00    +0.000 A 
ATOM     20  C   UNL     1       6.208   4.589  14.251  0.00  0.00    +0.000 A 
ATOM     21  C   UNL     1       5.103   4.487  15.098  0.00  0.00    +0.000 A 
ATOM     22  C   UNL     1       5.109   5.150  16.323  0.00  0.00    +0.000 A 
ATOM     23  C   UNL     1       6.269   5.850  16.657  0.00  0.00    +0.000 A 
ATOM     24  N   UNL     1       7.362   5.950  15.871  0.00  0.00    +0.000 NA
BRANCH  19  26
ATOM     25  C   UNL     1       8.011   5.427  12.467  0.00  0.00    +0.000 C 
ATOM     26  O   UNL     1       8.396   5.371  13.840  0.00  0.00    +0.000 OA
ENDBRANCH  19  26
ENDBRANCH  17  22
ENDBRANCH   1  17
BRANCH   4  27
ATOM     27  C   ACE A   0       1.232   9.258  19.677  0.00  0.00    +0.000 C 
BRANCH  27  28
ATOM     28  N   UNL     1       0.486   8.907  20.889  0.00  0.00    +0.000 NA
ATOM     29  H   UNL     1       0.934   8.092  21.312  0.00  0.00    +0.000 HD
BRANCH  28  30
ATOM     30  CA  UNL     1       0.501  10.009  21.884  0.00  0.00    +0.000 C 
ATOM     31  CB  UNL     1       0.061   9.424  23.230  0.00  0.00    +0.000 C 
BRANCH  30  32
ATOM     32  C   UNL     1      -0.427  11.179  21.490  0.00  0.00    +0.000 C 
BRANCH  32  33
ATOM     33  O   UNL     1      -0.989  11.790  22.647  0.00  0.00    +0.000 OA
ATOM     34  H   UNL     1      -0.236  12.204  23.114  0.00  0.00    +0.000 HD
ENDBRANCH  32  33
ENDBRANCH  30  32
ENDBRANCH  28  30
ENDBRANCH  27  28
ENDBRANCH   4  27
TORSDOF 9
ENDMDL
MODEL 8
REMARK VINA RESULT:      -7.6      1.513      7.362
REMARK  Name = 
REMARK  12 active torsions:
REMARK  status: ('A' for Active; 'I' for Inactive)
REMARK    1  A    between atoms: C_1  and  O_2
REMARK    2  A    between atoms: O_2  and  C_3
REMARK    3  A    between atoms: C_6  and  N_7
REMARK    4  A    between atoms: N_7  and  C_8
REMARK    5  A    between atoms: C_11  and  C_12
REMARK    6  A    between atoms: C_12  and  N_13
REMARK    7  A    between atoms: N_13  and  CA_14
REMARK    8  A    between atoms: CA_14  and  CB_15
REMARK    9  A    between atoms: CA_14  and  C_16
REMARK   10  A    between atoms: C_16  and  O_17
REMARK   11  A    between atoms: C_19  and  C_20
REMARK   12  A    between atoms: C_22  and  C_23
REMARK                            x       y       z     vdW  Elec       q    Type
REMARK                         _______ _______ _______ _____ _____    ______ ____
ROOT
ATOM      1  C   UNL     1       4.421   6.406  17.695  0.00  0.00    +0.000 A 
ATOM      2  N   UNL     1       4.572   7.707  17.334  0.00  0.00    +0.000 NA
ATOM      3  C   UNL     1       3.531   8.549  17.471  0.00  0.00    +0.000 A 
ATOM      4  C   UNL     1       2.292   8.170  17.952  0.00  0.00    +0.000 A 
ATOM      5  C   UNL     1       2.151   6.838  18.354  0.00  0.00    +0.000 A 
ATOM      6  C   UNL     1       3.215   5.919  18.236  0.00  0.00    +0.000 A 
ENDROOT
BRANCH   6   7
ATOM      7  C   UNL     1       3.071   4.528  18.700  0.00  0.00    +0.000 A 
ATOM      8  N   UNL     1       1.872   3.953  18.605  0.00  0.00    +0.000 NA
ATOM      9  C   UNL     1       1.825   2.690  19.031  0.00  0.00    +0.000 A 
ATOM     10  C   UNL     1       0.528   1.955  18.895  0.00  0.00    +0.000 C 
ATOM     11  N   UNL     1       2.854   2.023  19.558  0.00  0.00    +0.000 NA
ATOM     12  C   UNL     1       3.992   2.690  19.613  0.00  0.00    +0.000 A 
ATOM     13  N   UNL     1       5.090   2.049  20.150  0.00  0.00    +0.000 N 
ATOM     14  N   UNL     1       4.163   3.937  19.204  0.00  0.00    +0.000 NA
ATOM     15  H   UNL     1       4.799   1.287  20.747  0.00  0.00    +0.000 HD
ATOM     16  H   UNL     1       5.752   2.706  20.536  0.00  0.00    +0.000 HD
ENDBRANCH   6   7
BRANCH   1  17
ATOM     17  N   UNL     1       5.494   5.525  17.376  0.00  0.00    +0.000 N 
ATOM     18  H   UNL     1       6.334   5.861  17.856  0.00  0.00    +0.000 HD
BRANCH  17  22
ATOM     19  C   UNL     1       6.722   4.391  13.568  0.00  0.00    +0.000 A 
ATOM     20  C   UNL     1       5.455   4.016  13.988  0.00  0.00    +0.000 A 
ATOM     21  C   UNL     1       5.029   4.416  15.256  0.00  0.00    +0.000 A 
ATOM     22  C   UNL     1       5.860   5.210  16.044  0.00  0.00    +0.000 A 
ATOM     23  C   UNL     1       7.118   5.519  15.524  0.00  0.00    +0.000 A 
ATOM     24  N   UNL     1       7.568   5.129  14.313  0.00  0.00    +0.000 NA
BRANCH  19  26
ATOM     25  C   UNL     1       6.317   2.876  11.848  0.00  0.00    +0.000 C 
ATOM     26  O   UNL     1       7.130   3.947  12.328  0.00  0.00    +0.000 OA
ENDBRANCH  19  26
ENDBRANCH  17  22
ENDBRANCH   1  17
BRANCH   4  27
ATOM     27  C   ACE A   0       1.143   9.142  17.933  0.00  0.00    +0.000 C 
BRANCH  27  28
ATOM     28  N   UNL     1       1.570  10.530  18.134  0.00  0.00    +0.000 NA
ATOM     29  H   UNL     1       1.476  11.023  17.244  0.00  0.00    +0.000 HD
BRANCH  28  30
ATOM     30  CA  UNL     1       0.725  11.226  19.137  0.00  0.00    +0.000 C 
ATOM     31  CB  UNL     1       0.718  10.372  20.410  0.00  0.00    +0.000 C 
BRANCH  30  32
ATOM     32  C   UNL     1      -0.722  11.449  18.645  0.00  0.00    +0.000 C 
BRANCH  32  33
ATOM     33  O   UNL     1      -0.757  12.420  17.603  0.00  0.00    +0.000 OA
ATOM     34  H   UNL     1      -1.196  13.202  17.993  0.00  0.00    +0.000 HD
ENDBRANCH  32  33
ENDBRANCH  30  32
ENDBRANCH  28  30
ENDBRANCH  27  28
ENDBRANCH   4  27
TORSDOF 9
ENDMDL
MODEL 9
REMARK VINA RESULT:      -7.6      1.670      7.504
REMARK  Name = 
REMARK  12 active torsions:
REMARK  status: ('A' for Active; 'I' for Inactive)
REMARK    1  A    between atoms: C_1  and  O_2
REMARK    2  A    between atoms: O_2  and  C_3
REMARK    3  A    between atoms: C_6  and  N_7
REMARK    4  A    between atoms: N_7  and  C_8
REMARK    5  A    between atoms: C_11  and  C_12
REMARK    6  A    between atoms: C_12  and  N_13
REMARK    7  A    between atoms: N_13  and  CA_14
REMARK    8  A    between atoms: CA_14  and  CB_15
REMARK    9  A    between atoms: CA_14  and  C_16
REMARK   10  A    between atoms: C_16  and  O_17
REMARK   11  A    between atoms: C_19  and  C_20
REMARK   12  A    between atoms: C_22  and  C_23
REMARK                            x       y       z     vdW  Elec       q    Type
REMARK                         _______ _______ _______ _____ _____    ______ ____
ROOT
ATOM      1  C   UNL     1       4.225   5.929  18.078  0.00  0.00    +0.000 A 
ATOM      2  N   UNL     1       4.289   7.126  17.439  0.00  0.00    +0.000 NA
ATOM      3  C   UNL     1       3.391   8.081  17.748  0.00  0.00    +0.000 A 
ATOM      4  C   UNL     1       2.384   7.919  18.679  0.00  0.00    +0.000 A 
ATOM      5  C   UNL     1       2.343   6.696  19.359  0.00  0.00    +0.000 A 
ATOM      6  C   UNL     1       3.265   5.667  19.075  0.00  0.00    +0.000 A 
ENDROOT
BRANCH   6   7
ATOM      7  C   UNL     1       3.241   4.399  19.825  0.00  0.00    +0.000 A 
ATOM      8  N   UNL     1       2.204   4.162  20.629  0.00  0.00    +0.000 NA
ATOM      9  C   UNL     1       2.247   2.988  21.260  0.00  0.00    +0.000 A 
ATOM     10  C   UNL     1       1.085   2.621  22.130  0.00  0.00    +0.000 C 
ATOM     11  N   UNL     1       3.242   2.105  21.164  0.00  0.00    +0.000 NA
ATOM     12  C   UNL     1       4.222   2.444  20.347  0.00  0.00    +0.000 A 
ATOM     13  N   UNL     1       5.280   1.567  20.209  0.00  0.00    +0.000 N 
ATOM     14  N   UNL     1       4.280   3.570  19.654  0.00  0.00    +0.000 NA
ATOM     15  H   UNL     1       5.336   0.951  21.008  0.00  0.00    +0.000 HD
ATOM     16  H   UNL     1       6.126   2.046  19.939  0.00  0.00    +0.000 HD
ENDBRANCH   6   7
BRANCH   1  17
ATOM     17  N   UNL     1       5.087   4.901  17.598  0.00  0.00    +0.000 N 
ATOM     18  H   UNL     1       5.848   4.783  18.275  0.00  0.00    +0.000 HD
BRANCH  17  22
ATOM     19  C   UNL     1       6.958   4.766  13.887  0.00  0.00    +0.000 A 
ATOM     20  C   UNL     1       5.729   4.139  14.025  0.00  0.00    +0.000 A 
ATOM     21  C   UNL     1       5.086   4.204  15.263  0.00  0.00    +0.000 A 
ATOM     22  C   UNL     1       5.665   4.924  16.305  0.00  0.00    +0.000 A 
ATOM     23  C   UNL     1       6.909   5.507  16.056  0.00  0.00    +0.000 A 
ATOM     24  N   UNL     1       7.568   5.444  14.879  0.00  0.00    +0.000 NA
BRANCH  19  26
ATOM     25  C   UNL     1       6.922   3.729  11.804  0.00  0.00    +0.000 C 
ATOM     26  O   UNL     1       7.588   4.652  12.665  0.00  0.00    +0.000 OA
ENDBRANCH  19  26
ENDBRANCH  17  22
ENDBRANCH   1  17
BRANCH   4  27
ATOM     27  C   ACE A   0       1.336   8.985  18.855  0.00  0.00    +0.000 C 
BRANCH  27  28
ATOM     28  N   UNL     1       0.937   9.165  20.253  0.00  0.00    +0.000 NA
ATOM     29  H   UNL     1       1.722   9.585  20.756  0.00  0.00    +0.000 HD
BRANCH  28  30
ATOM     30  CA  UNL     1      -0.231  10.072  20.381  0.00  0.00    +0.000 C 
ATOM     31  CB  UNL     1      -0.132  11.115  19.263  0.00  0.00    +0.000 C 
BRANCH  30  32
ATOM     32  C   UNL     1      -0.289  10.777  21.755  0.00  0.00    +0.000 C 
BRANCH  32  33
ATOM     33  O   UNL     1       0.528  10.101  22.705  0.00  0.00    +0.000 OA
ATOM     34  H   UNL     1      -0.066   9.467  23.154  0.00  0.00    +0.000 HD
ENDBRANCH  32  33
ENDBRANCH  30  32
ENDBRANCH  28  30
ENDBRANCH  27  28
ENDBRANCH   4  27
TORSDOF 9
ENDMDL
