MODEL 1
REMARK VINA RESULT:      -7.2      0.000      0.000
REMARK  Name = 
REMARK  5 active torsions:
REMARK  status: ('A' for Active; 'I' for Inactive)
REMARK    1  A    between atoms: C_1  and  C_2
REMARK    2  A    between atoms: N_6  and  C_7
REMARK    3  A    between atoms: C_7  and  C_8
REMARK    4  A    between atoms: N_10  and  C_11
REMARK    5  A    between atoms: C_14  and  N_15
REMARK                            x       y       z     vdW  Elec       q    Type
REMARK                         _______ _______ _______ _____ _____    ______ ____
ROOT
ATOM      1  C   UNL     1       3.919   6.247  18.101  0.00  0.00    +0.000 C 
ATOM      2  O   UNL     1       3.967   7.270  17.420  0.00  0.00    +0.000 OA
ATOM      3  N   UNL     1       4.624   5.079  17.828  0.00  0.00    +0.000 N 
ATOM      4  H   UNL     1       4.360   4.215  18.290  0.00  0.00    +0.000 HD
ENDROOT
BRANCH   3   5
ATOM      5  C   UNL     1       5.473   4.935  16.702  0.00  0.00    +0.000 A 
ATOM      6  C   UNL     1       6.810   5.345  16.713  0.00  0.00    +0.000 A 
ATOM      7  C   UNL     1       7.564   5.374  15.542  0.00  0.00    +0.000 A 
ATOM      8  C   UNL     1       6.990   4.946  14.346  0.00  0.00    +0.000 A 
ATOM      9  C   UNL     1       5.689   4.424  14.336  0.00  0.00    +0.000 A 
ATOM     10  C   UNL     1       4.936   4.407  15.521  0.00  0.00    +0.000 A 
BRANCH   8  11
ATOM     11  N   UNL     1       7.747   5.090  13.098  0.00  0.00    +0.000 N 
ATOM     12  O   UNL     1       7.407   4.391  12.134  0.00  0.00    +0.000 OA
ATOM     13  O   UNL     1       8.698   5.883  13.097  0.00  0.00    +0.000 OA
ENDBRANCH   8  11
ENDBRANCH   3   5
BRANCH   1  14
ATOM     14  C   UNL     1       2.992   6.217  19.296  0.00  0.00    +0.000 C 
BRANCH  14  20
ATOM     15  C   UNL     1       1.499   2.410  22.068  0.00  0.00    +0.000 C 
ATOM     16  C   UNL     1       1.479   3.112  20.743  0.00  0.00    +0.000 A 
ATOM     17  C   UNL     1       0.900   2.525  19.622  0.00  0.00    +0.000 A 
ATOM     18  C   UNL     1       0.974   3.171  18.398  0.00  0.00    +0.000 A 
ATOM     19  C   UNL     1       1.650   4.381  18.305  0.00  0.00    +0.000 A 
ATOM     20  N   UNL     1       2.189   4.968  19.406  0.00  0.00    +0.000 N 
ATOM     21  C   UNL     1       2.092   4.359  20.610  0.00  0.00    +0.000 A 
ENDBRANCH  14  20
ENDBRANCH   1  14
TORSDOF 4
ENDMDL
MODEL 2
REMARK VINA RESULT:      -7.1      3.490      7.542
REMARK  Name = 
REMARK  5 active torsions:
REMARK  status: ('A' for Active; 'I' for Inactive)
REMARK    1  A    between atoms: C_1  and  C_2
REMARK    2  A    between atoms: N_6  and  C_7
REMARK    3  A    between atoms: C_7  and  C_8
REMARK    4  A    between atoms: N_10  and  C_11
REMARK    5  A    between atoms: C_14  and  N_15
REMARK                            x       y       z     vdW  Elec       q    Type
REMARK                         _______ _______ _______ _____ _____    ______ ____
ROOT
ATOM      1  C   UNL     1       2.801   4.754  18.395  0.00  0.00    +0.000 C 
ATOM      2  O   UNL     1       1.715   4.674  17.823  0.00  0.00    +0.000 OA
ATOM      3  N   UNL     1       3.192   5.810  19.212  0.00  0.00    +0.000 N 
ATOM      4  H   UNL     1       4.171   5.919  19.456  0.00  0.00    +0.000 HD
ENDROOT
BRANCH   3   5
ATOM      5  C   UNL     1       2.371   6.939  19.459  0.00  0.00    +0.000 A 
ATOM      6  C   UNL     1       2.212   7.969  18.526  0.00  0.00    +0.000 A 
ATOM      7  C   UNL     1       1.562   9.154  18.865  0.00  0.00    +0.000 A 
ATOM      8  C   UNL     1       1.024   9.299  20.143  0.00  0.00    +0.000 A 
ATOM      9  C   UNL     1       1.074   8.235  21.054  0.00  0.00    +0.000 A 
ATOM     10  C   UNL     1       1.737   7.049  20.703  0.00  0.00    +0.000 A 
BRANCH   8  11
ATOM     11  N   UNL     1       0.448  10.591  20.534  0.00  0.00    +0.000 N 
ATOM     12  O   UNL     1       1.010  11.221  21.440  0.00  0.00    +0.000 OA
ATOM     13  O   UNL     1      -0.581  10.956  19.950  0.00  0.00    +0.000 OA
ENDBRANCH   8  11
ENDBRANCH   3   5
BRANCH   1  14
ATOM     14  C   UNL     1       3.820   3.660  18.165  0.00  0.00    +0.000 C 
BRANCH  14  20
ATOM     15  C   UNL     1       6.005   3.947  13.743  0.00  0.00    +0.000 C 
ATOM     16  C   UNL     1       6.063   4.214  15.218  0.00  0.00    +0.000 A 
ATOM     17  C   UNL     1       7.231   4.662  15.826  0.00  0.00    +0.000 A 
ATOM     18  C   UNL     1       7.268   4.818  17.204  0.00  0.00    +0.000 A 
ATOM     19  C   UNL     1       6.145   4.499  17.955  0.00  0.00    +0.000 A 
ATOM     20  N   UNL     1       4.995   4.090  17.359  0.00  0.00    +0.000 N 
ATOM     21  C   UNL     1       4.942   3.966  16.012  0.00  0.00    +0.000 A 
ENDBRANCH  14  20
ENDBRANCH   1  14
TORSDOF 4
ENDMDL
MODEL 3
REMARK VINA RESULT:      -7.1      3.589      7.305
REMARK  Name = 
REMARK  5 active torsions:
REMARK  status: ('A' for Active; 'I' for Inactive)
REMARK    1  A    between atoms: C_1  and  C_2
REMARK    2  A    between atoms: N_6  and  C_7
REMARK    3  A    between atoms: C_7  and  C_8
REMARK    4  A    between atoms: N_10  and  C_11
REMARK    5  A    between atoms: C_14  and  N_15
REMARK                            x       y       z     vdW  Elec       q    Type
REMARK                         _______ _______ _______ _____ _____    ______ ____
ROOT
ATOM      1  C   UNL     1       2.750   5.125  18.467  0.00  0.00    +0.000 C 
ATOM      2  O   UNL     1       1.601   4.976  18.053  0.00  0.00    +0.000 OA
ATOM      3  N   UNL     1       3.261   6.315  18.975  0.00  0.00    +0.000 N 
ATOM      4  H   UNL     1       4.265   6.427  19.076  0.00  0.00    +0.000 HD
ENDROOT
BRANCH   3   5
ATOM      5  C   UNL     1       2.503   7.510  19.053  0.00  0.00    +0.000 A 
ATOM      6  C   UNL     1       1.820   7.892  20.212  0.00  0.00    +0.000 A 
ATOM      7  C   UNL     1       0.928   8.962  20.203  0.00  0.00    +0.000 A 
ATOM      8  C   UNL     1       0.745   9.693  19.030  0.00  0.00    +0.000 A 
ATOM      9  C   UNL     1       1.506   9.398  17.890  0.00  0.00    +0.000 A 
ATOM     10  C   UNL     1       2.396   8.312  17.909  0.00  0.00    +0.000 A 
BRANCH   8  11
ATOM     11  N   UNL     1      -0.281  10.741  18.993  0.00  0.00    +0.000 N 
ATOM     12  O   UNL     1      -1.276  10.547  18.282  0.00  0.00    +0.000 OA
ATOM     13  O   UNL     1      -0.072  11.766  19.655  0.00  0.00    +0.000 OA
ENDBRANCH   8  11
ENDBRANCH   3   5
BRANCH   1  14
ATOM     14  C   UNL     1       3.708   3.958  18.375  0.00  0.00    +0.000 C 
BRANCH  14  20
ATOM     15  C   UNL     1       6.011   3.985  14.005  0.00  0.00    +0.000 C 
ATOM     16  C   UNL     1       6.066   4.248  15.481  0.00  0.00    +0.000 A 
ATOM     17  C   UNL     1       7.263   4.562  16.115  0.00  0.00    +0.000 A 
ATOM     18  C   UNL     1       7.286   4.717  17.493  0.00  0.00    +0.000 A 
ATOM     19  C   UNL     1       6.117   4.529  18.219  0.00  0.00    +0.000 A 
ATOM     20  N   UNL     1       4.942   4.251  17.596  0.00  0.00    +0.000 N 
ATOM     21  C   UNL     1       4.906   4.130  16.248  0.00  0.00    +0.000 A 
ENDBRANCH  14  20
ENDBRANCH   1  14
TORSDOF 4
ENDMDL
MODEL 4
REMARK VINA RESULT:      -7.0      0.594      1.632
REMARK  Name = 
REMARK  5 active torsions:
REMARK  status: ('A' for Active; 'I' for Inactive)
REMARK    1  A    between atoms: C_1  and  C_2
REMARK    2  A    between atoms: N_6  and  C_7
REMARK    3  A    between atoms: C_7  and  C_8
REMARK    4  A    between atoms: N_10  and  C_11
REMARK    5  A    between atoms: C_14  and  N_15
REMARK                            x       y       z     vdW  Elec       q    Type
REMARK                         _______ _______ _______ _____ _____    ______ ____
ROOT
ATOM      1  C   UNL     1       3.722   6.247  18.308  0.00  0.00    +0.000 C 
ATOM      2  O   UNL     1       3.525   7.106  17.450  0.00  0.00    +0.000 OA
ATOM      3  N   UNL     1       4.627   5.198  18.188  0.00  0.00    +0.000 N 
ATOM      4  H   UNL     1       4.567   4.409  18.824  0.00  0.00    +0.000 HD
ENDROOT
BRANCH   3   5
ATOM      5  C   UNL     1       5.419   4.991  17.031  0.00  0.00    +0.000 A 
ATOM      6  C   UNL     1       6.753   5.403  16.951  0.00  0.00    +0.000 A 
ATOM      7  C   UNL     1       7.448   5.366  15.744  0.00  0.00    +0.000 A 
ATOM      8  C   UNL     1       6.816   4.869  14.604  0.00  0.00    +0.000 A 
ATOM      9  C   UNL     1       5.519   4.345  14.689  0.00  0.00    +0.000 A 
ATOM     10  C   UNL     1       4.826   4.395  15.909  0.00  0.00    +0.000 A 
BRANCH   8  11
ATOM     11  N   UNL     1       7.509   4.943  13.313  0.00  0.00    +0.000 N 
ATOM     12  O   UNL     1       8.442   5.752  13.207  0.00  0.00    +0.000 OA
ATOM     13  O   UNL     1       7.098   4.212  12.403  0.00  0.00    +0.000 OA
ENDBRANCH   8  11
ENDBRANCH   3   5
BRANCH   1  14
ATOM     14  C   UNL     1       2.892   6.287  19.573  0.00  0.00    +0.000 C 
BRANCH  14  20
ATOM     15  C   UNL     1       0.486   2.087  18.581  0.00  0.00    +0.000 C 
ATOM     16  C   UNL     1       1.256   2.918  19.564  0.00  0.00    +0.000 A 
ATOM     17  C   UNL     1       1.371   2.539  20.898  0.00  0.00    +0.000 A 
ATOM     18  C   UNL     1       2.022   3.376  21.792  0.00  0.00    +0.000 A 
ATOM     19  C   UNL     1       2.524   4.591  21.345  0.00  0.00    +0.000 A 
ATOM     20  N   UNL     1       2.438   4.947  20.037  0.00  0.00    +0.000 N 
ATOM     21  C   UNL     1       1.832   4.121  19.152  0.00  0.00    +0.000 A 
ENDBRANCH  14  20
ENDBRANCH   1  14
TORSDOF 4
ENDMDL
MODEL 5
REMARK VINA RESULT:      -6.8      3.601      7.110
REMARK  Name = 
REMARK  5 active torsions:
REMARK  status: ('A' for Active; 'I' for Inactive)
REMARK    1  A    between atoms: C_1  and  C_2
REMARK    2  A    between atoms: N_6  and  C_7
REMARK    3  A    between atoms: C_7  and  C_8
REMARK    4  A    between atoms: N_10  and  C_11
REMARK    5  A    between atoms: C_14  and  N_15
REMARK                            x       y       z     vdW  Elec       q    Type
REMARK                         _______ _______ _______ _____ _____    ______ ____
ROOT
ATOM      1  C   UNL     1       2.613   5.073  18.513  0.00  0.00    +0.000 C 
ATOM      2  O   UNL     1       1.565   4.944  17.882  0.00  0.00    +0.000 OA
ATOM      3  N   UNL     1       3.034   6.252  19.119  0.00  0.00    +0.000 N 
ATOM      4  H   UNL     1       4.000   6.346  19.415  0.00  0.00    +0.000 HD
ENDROOT
BRANCH   3   5
ATOM      5  C   UNL     1       2.295   7.460  19.054  0.00  0.00    +0.000 A 
ATOM      6  C   UNL     1       2.262   8.258  17.906  0.00  0.00    +0.000 A 
ATOM      7  C   UNL     1       1.694   9.530  17.929  0.00  0.00    +0.000 A 
ATOM      8  C   UNL     1       1.109   9.999  19.105  0.00  0.00    +0.000 A 
ATOM      9  C   UNL     1       1.032   9.169  20.233  0.00  0.00    +0.000 A 
ATOM     10  C   UNL     1       1.614   7.893  20.200  0.00  0.00    +0.000 A 
BRANCH   8  11
ATOM     11  N   UNL     1       0.621  11.381  19.158  0.00  0.00    +0.000 N 
ATOM     12  O   UNL     1       1.345  12.227  19.701  0.00  0.00    +0.000 OA
ATOM     13  O   UNL     1      -0.499  11.608  18.682  0.00  0.00    +0.000 OA
ENDBRANCH   8  11
ENDBRANCH   3   5
BRANCH   1  14
ATOM     14  C   UNL     1       3.551   3.889  18.604  0.00  0.00    +0.000 C 
BRANCH  14  20
ATOM     15  C   UNL     1       8.090   5.770  19.118  0.00  0.00    +0.000 C 
ATOM     16  C   UNL     1       7.089   5.065  18.252  0.00  0.00    +0.000 A 
ATOM     17  C   UNL     1       7.337   4.830  16.904  0.00  0.00    +0.000 A 
ATOM     18  C   UNL     1       6.353   4.249  16.119  0.00  0.00    +0.000 A 
ATOM     19  C   UNL     1       5.125   3.936  16.687  0.00  0.00    +0.000 A 
ATOM     20  N   UNL     1       4.893   4.138  18.011  0.00  0.00    +0.000 N 
ATOM     21  C   UNL     1       5.862   4.675  18.790  0.00  0.00    +0.000 A 
ENDBRANCH  14  20
ENDBRANCH   1  14
TORSDOF 4
ENDMDL
MODEL 6
REMARK VINA RESULT:      -6.8      4.644      6.552
REMARK  Name = 
REMARK  5 active torsions:
REMARK  status: ('A' for Active; 'I' for Inactive)
REMARK    1  A    between atoms: C_1  and  C_2
REMARK    2  A    between atoms: N_6  and  C_7
REMARK    3  A    between atoms: C_7  and  C_8
REMARK    4  A    between atoms: N_10  and  C_11
REMARK    5  A    between atoms: C_14  and  N_15
REMARK                            x       y       z     vdW  Elec       q    Type
REMARK                         _______ _______ _______ _____ _____    ______ ____
ROOT
ATOM      1  C   UNL     1       2.095   8.287  18.684  0.00  0.00    +0.000 C 
ATOM      2  O   UNL     1       1.795   8.181  19.873  0.00  0.00    +0.000 OA
ATOM      3  N   UNL     1       2.710   7.293  17.930  0.00  0.00    +0.000 N 
ATOM      4  H   UNL     1       3.133   7.530  17.039  0.00  0.00    +0.000 HD
ENDROOT
BRANCH   3   5
ATOM      5  C   UNL     1       3.083   6.036  18.468  0.00  0.00    +0.000 A 
ATOM      6  C   UNL     1       4.404   5.726  18.807  0.00  0.00    +0.000 A 
ATOM      7  C   UNL     1       4.776   4.427  19.146  0.00  0.00    +0.000 A 
ATOM      8  C   UNL     1       3.806   3.427  19.192  0.00  0.00    +0.000 A 
ATOM      9  C   UNL     1       2.458   3.740  18.968  0.00  0.00    +0.000 A 
ATOM     10  C   UNL     1       2.097   5.051  18.619  0.00  0.00    +0.000 A 
BRANCH   8  11
ATOM     11  N   UNL     1       4.221   2.040  19.433  0.00  0.00    +0.000 N 
ATOM     12  O   UNL     1       4.934   1.816  20.421  0.00  0.00    +0.000 OA
ATOM     13  O   UNL     1       3.855   1.186  18.615  0.00  0.00    +0.000 OA
ENDBRANCH   8  11
ENDBRANCH   3   5
BRANCH   1  14
ATOM     14  C   UNL     1       1.832   9.604  17.987  0.00  0.00    +0.000 C 
BRANCH  14  20
ATOM     15  C   UNL     1      -3.063   9.926  17.401  0.00  0.00    +0.000 C 
ATOM     16  C   UNL     1      -1.822  10.418  18.084  0.00  0.00    +0.000 A 
ATOM     17  C   UNL     1      -1.843  11.547  18.897  0.00  0.00    +0.000 A 
ATOM     18  C   UNL     1      -0.659  12.017  19.444  0.00  0.00    +0.000 A 
ATOM     19  C   UNL     1       0.533  11.369  19.149  0.00  0.00    +0.000 A 
ATOM     20  N   UNL     1       0.549  10.249  18.380  0.00  0.00    +0.000 N 
ATOM     21  C   UNL     1      -0.607   9.765  17.869  0.00  0.00    +0.000 A 
ENDBRANCH  14  20
ENDBRANCH   1  14
TORSDOF 4
ENDMDL
MODEL 7
REMARK VINA RESULT:      -6.7      4.660      6.861
REMARK  Name = 
REMARK  5 active torsions:
REMARK  status: ('A' for Active; 'I' for Inactive)
REMARK    1  A    between atoms: C_1  and  C_2
REMARK    2  A    between atoms: N_6  and  C_7
REMARK    3  A    between atoms: C_7  and  C_8
REMARK    4  A    between atoms: N_10  and  C_11
REMARK    5  A    between atoms: C_14  and  N_15
REMARK                            x       y       z     vdW  Elec       q    Type
REMARK                         _______ _______ _______ _____ _____    ______ ____
ROOT
ATOM      1  C   UNL     1       2.017   8.294  18.606  0.00  0.00    +0.000 C 
ATOM      2  O   UNL     1       1.811   8.207  19.815  0.00  0.00    +0.000 OA
ATOM      3  N   UNL     1       2.540   7.275  17.815  0.00  0.00    +0.000 N 
ATOM      4  H   UNL     1       2.896   7.492  16.890  0.00  0.00    +0.000 HD
ENDROOT
BRANCH   3   5
ATOM      5  C   UNL     1       2.918   6.012  18.334  0.00  0.00    +0.000 A 
ATOM      6  C   UNL     1       2.007   4.964  18.497  0.00  0.00    +0.000 A 
ATOM      7  C   UNL     1       2.356   3.805  19.187  0.00  0.00    +0.000 A 
ATOM      8  C   UNL     1       3.650   3.669  19.687  0.00  0.00    +0.000 A 
ATOM      9  C   UNL     1       4.611   4.658  19.435  0.00  0.00    +0.000 A 
ATOM     10  C   UNL     1       4.245   5.825  18.745  0.00  0.00    +0.000 A 
BRANCH   8  11
ATOM     11  N   UNL     1       3.978   2.502  20.514  0.00  0.00    +0.000 N 
ATOM     12  O   UNL     1       3.296   2.308  21.530  0.00  0.00    +0.000 OA
ATOM     13  O   UNL     1       4.935   1.803  20.159  0.00  0.00    +0.000 OA
ENDBRANCH   8  11
ENDBRANCH   3   5
BRANCH   1  14
ATOM     14  C   UNL     1       1.738   9.612  17.918  0.00  0.00    +0.000 C 
BRANCH  14  20
ATOM     15  C   UNL     1      -3.156   9.900  17.306  0.00  0.00    +0.000 C 
ATOM     16  C   UNL     1      -1.924  10.391  18.007  0.00  0.00    +0.000 A 
ATOM     17  C   UNL     1      -1.961  11.503  18.841  0.00  0.00    +0.000 A 
ATOM     18  C   UNL     1      -0.785  11.974  19.405  0.00  0.00    +0.000 A 
ATOM     19  C   UNL     1       0.415  11.342  19.106  0.00  0.00    +0.000 A 
ATOM     20  N   UNL     1       0.447  10.237  18.315  0.00  0.00    +0.000 N 
ATOM     21  C   UNL     1      -0.702   9.753  17.787  0.00  0.00    +0.000 A 
ENDBRANCH  14  20
ENDBRANCH   1  14
TORSDOF 4
ENDMDL
MODEL 8
REMARK VINA RESULT:      -6.6      3.704      7.155
REMARK  Name = 
REMARK  5 active torsions:
REMARK  status: ('A' for Active; 'I' for Inactive)
REMARK    1  A    between atoms: C_1  and  C_2
REMARK    2  A    between atoms: N_6  and  C_7
REMARK    3  A    between atoms: C_7  and  C_8
REMARK    4  A    between atoms: N_10  and  C_11
REMARK    5  A    between atoms: C_14  and  N_15
REMARK                            x       y       z     vdW  Elec       q    Type
REMARK                         _______ _______ _______ _____ _____    ______ ____
ROOT
ATOM      1  C   UNL     1       2.576   4.892  18.754  0.00  0.00    +0.000 C 
ATOM      2  O   UNL     1       1.392   4.761  18.444  0.00  0.00    +0.000 OA
ATOM      3  N   UNL     1       3.157   6.083  19.178  0.00  0.00    +0.000 N 
ATOM      4  H   UNL     1       4.168   6.170  19.190  0.00  0.00    +0.000 HD
ENDROOT
BRANCH   3   5
ATOM      5  C   UNL     1       2.437   7.300  19.281  0.00  0.00    +0.000 A 
ATOM      6  C   UNL     1       1.783   7.687  20.454  0.00  0.00    +0.000 A 
ATOM      7  C   UNL     1       0.924   8.784  20.472  0.00  0.00    +0.000 A 
ATOM      8  C   UNL     1       0.747   9.535  19.310  0.00  0.00    +0.000 A 
ATOM      9  C   UNL     1       1.482   9.231  18.156  0.00  0.00    +0.000 A 
ATOM     10  C   UNL     1       2.338   8.119  18.148  0.00  0.00    +0.000 A 
BRANCH   8  11
ATOM     11  N   UNL     1      -0.247  10.614  19.301  0.00  0.00    +0.000 N 
ATOM     12  O   UNL     1      -0.608  11.073  20.393  0.00  0.00    +0.000 OA
ATOM     13  O   UNL     1      -0.683  10.978  18.201  0.00  0.00    +0.000 OA
ENDBRANCH   8  11
ENDBRANCH   3   5
BRANCH   1  14
ATOM     14  C   UNL     1       3.494   3.698  18.620  0.00  0.00    +0.000 C 
BRANCH  14  20
ATOM     15  C   UNL     1       7.992   5.703  19.018  0.00  0.00    +0.000 C 
ATOM     16  C   UNL     1       6.976   5.000  18.167  0.00  0.00    +0.000 A 
ATOM     17  C   UNL     1       7.173   4.825  16.802  0.00  0.00    +0.000 A 
ATOM     18  C   UNL     1       6.174   4.242  16.036  0.00  0.00    +0.000 A 
ATOM     19  C   UNL     1       4.982   3.868  16.642  0.00  0.00    +0.000 A 
ATOM     20  N   UNL     1       4.802   4.012  17.981  0.00  0.00    +0.000 N 
ATOM     21  C   UNL     1       5.785   4.550  18.740  0.00  0.00    +0.000 A 
ENDBRANCH  14  20
ENDBRANCH   1  14
TORSDOF 4
ENDMDL
MODEL 9
REMARK VINA RESULT:      -6.6      2.857      7.636
REMARK  Name = 
REMARK  5 active torsions:
REMARK  status: ('A' for Active; 'I' for Inactive)
REMARK    1  A    between atoms: C_1  and  C_2
REMARK    2  A    between atoms: N_6  and  C_7
REMARK    3  A    between atoms: C_7  and  C_8
REMARK    4  A    between atoms: N_10  and  C_11
REMARK    5  A    between atoms: C_14  and  N_15
REMARK                            x       y       z     vdW  Elec       q    Type
REMARK                         _______ _______ _______ _____ _____    ______ ____
ROOT
ATOM      1  C   UNL     1       5.937   4.928  16.423  0.00  0.00    +0.000 C 
ATOM      2  O   UNL     1       5.112   5.815  16.211  0.00  0.00    +0.000 OA
ATOM      3  N   UNL     1       5.770   3.892  17.336  0.00  0.00    +0.000 N 
ATOM      4  H   UNL     1       6.574   3.343  17.623  0.00  0.00    +0.000 HD
ENDROOT
BRANCH   3   5
ATOM      5  C   UNL     1       4.617   3.757  18.149  0.00  0.00    +0.000 A 
ATOM      6  C   UNL     1       4.298   4.673  19.156  0.00  0.00    +0.000 A 
ATOM      7  C   UNL     1       3.274   4.416  20.065  0.00  0.00    +0.000 A 
ATOM      8  C   UNL     1       2.526   3.246  19.943  0.00  0.00    +0.000 A 
ATOM      9  C   UNL     1       2.755   2.371  18.872  0.00  0.00    +0.000 A 
ATOM     10  C   UNL     1       3.795   2.637  17.966  0.00  0.00    +0.000 A 
BRANCH   8  11
ATOM     11  N   UNL     1       1.531   2.923  20.972  0.00  0.00    +0.000 N 
ATOM     12  O   UNL     1       0.335   3.003  20.660  0.00  0.00    +0.000 OA
ATOM     13  O   UNL     1       1.951   2.619  22.096  0.00  0.00    +0.000 OA
ENDBRANCH   8  11
ENDBRANCH   3   5
BRANCH   1  14
ATOM     14  C   UNL     1       7.258   4.980  15.688  0.00  0.00    +0.000 C 
BRANCH  14  20
ATOM     15  C   UNL     1       5.460   2.416  11.868  0.00  0.00    +0.000 C 
ATOM     16  C   UNL     1       6.277   3.573  12.360  0.00  0.00    +0.000 A 
ATOM     17  C   UNL     1       7.036   4.345  11.486  0.00  0.00    +0.000 A 
ATOM     18  C   UNL     1       7.842   5.355  11.991  0.00  0.00    +0.000 A 
ATOM     19  C   UNL     1       7.898   5.560  13.363  0.00  0.00    +0.000 A 
ATOM     20  N   UNL     1       7.134   4.826  14.213  0.00  0.00    +0.000 N 
ATOM     21  C   UNL     1       6.320   3.861  13.725  0.00  0.00    +0.000 A 
ENDBRANCH  14  20
ENDBRANCH   1  14
TORSDOF 4
ENDMDL
