MODEL 1
REMARK VINA RESULT:      -8.7      0.000      0.000
REMARK  Name = 
REMARK  7 active torsions:
REMARK  status: ('A' for Active; 'I' for Inactive)
REMARK    1  A    between atoms: C_1  and  C_2
REMARK    2  A    between atoms: C_2  and  C_16
REMARK    3  A    between atoms: N_3  and  N_4
REMARK    4  A    between atoms: C_5  and  C_7
REMARK    5  A    between atoms: C_9  and  C_10
REMARK    6  A    between atoms: C_19  and  N_20
REMARK    7  A    between atoms: C_21  and  C_23
REMARK                            x       y       z     vdW  Elec       q    Type
REMARK                         _______ _______ _______ _____ _____    ______ ____
ROOT
ATOM      1  C   UNL     1       5.787   3.668  16.488  0.00  0.00    +0.000 C 
ATOM      2  C   UNL     1       5.915   4.374  17.826  0.00  0.00    +0.000 C 
ATOM      3  N   UNL     1       5.529   3.891  18.971  0.00  0.00    +0.000 NA
ENDROOT
BRANCH   2   4
ATOM      4  C   UNL     1       6.533   5.748  17.825  0.00  0.00    +0.000 A 
ATOM      5  C   UNL     1       7.664   6.032  18.590  0.00  0.00    +0.000 A 
ATOM      6  C   UNL     1       8.255   7.298  18.546  0.00  0.00    +0.000 A 
ATOM      7  C   UNL     1       7.735   8.310  17.739  0.00  0.00    +0.000 A 
ATOM      8  C   UNL     1       6.578   8.045  16.999  0.00  0.00    +0.000 A 
ATOM      9  C   UNL     1       5.990   6.770  17.031  0.00  0.00    +0.000 A 
BRANCH   7  10
ATOM     10  N   UNL     1       8.327   9.586  17.634  0.00  0.00    +0.000 N 
ATOM     11  C   UNL     1       9.020  10.259  18.632  0.00  0.00    +0.000 C 
ATOM     12  O   UNL     1       9.242   9.816  19.755  0.00  0.00    +0.000 OA
ATOM     13  H   UNL     1       8.329  10.036  16.724  0.00  0.00    +0.000 HD
BRANCH  11  14
ATOM     14  C   UNL     1       9.516  11.561  18.230  0.00  0.00    +0.000 A 
ATOM     15  C   UNL     1       8.825  12.705  17.878  0.00  0.00    +0.000 A 
ATOM     16  C   UNL     1       9.790  13.692  17.581  0.00  0.00    +0.000 A 
ATOM     17  C   UNL     1      11.014  13.093  17.765  0.00  0.00    +0.000 A 
ATOM     18  O   UNL     1      10.863  11.801  18.162  0.00  0.00    +0.000 OA
ENDBRANCH  11  14
ENDBRANCH   7  10
ENDBRANCH   2   4
BRANCH   3  19
ATOM     19  N   UNL     1       4.937   2.673  19.049  0.00  0.00    +0.000 N 
ATOM     20  C   UNL     1       3.591   2.497  18.810  0.00  0.00    +0.000 C 
ATOM     21  O   UNL     1       3.064   1.391  18.912  0.00  0.00    +0.000 OA
ATOM     22  H   UNL     1       5.453   1.831  19.266  0.00  0.00    +0.000 HD
BRANCH  20  23
ATOM     23  C   UNL     1       2.803   3.703  18.435  0.00  0.00    +0.000 C 
ATOM     24  C   UNL     1       1.311   3.730  18.626  0.00  0.00    +0.000 C 
ATOM     25  C   UNL     1       2.194   4.573  19.521  0.00  0.00    +0.000 C 
BRANCH  25  26
ATOM     26  C   UNL     1       2.156   6.075  19.363  0.00  0.00    +0.000 A 
ATOM     27  C   UNL     1       1.719   6.895  20.417  0.00  0.00    +0.000 A 
ATOM     28  C   UNL     1       1.625   8.281  20.275  0.00  0.00    +0.000 A 
ATOM     29  C   UNL     1       1.983   8.881  19.070  0.00  0.00    +0.000 A 
ATOM     30  C   UNL     1       2.450   8.095  18.020  0.00  0.00    +0.000 A 
ATOM     31  C   UNL     1       2.543   6.708  18.170  0.00  0.00    +0.000 A 
ENDBRANCH  25  26
ENDBRANCH  20  23
ENDBRANCH   3  19
TORSDOF 6
ENDMDL
MODEL 2
REMARK VINA RESULT:      -8.3      0.643      1.118
REMARK  Name = 
REMARK  7 active torsions:
REMARK  status: ('A' for Active; 'I' for Inactive)
REMARK    1  A    between atoms: C_1  and  C_2
REMARK    2  A    between atoms: C_2  and  C_16
REMARK    3  A    between atoms: N_3  and  N_4
REMARK    4  A    between atoms: C_5  and  C_7
REMARK    5  A    between atoms: C_9  and  C_10
REMARK    6  A    between atoms: C_19  and  N_20
REMARK    7  A    between atoms: C_21  and  C_23
REMARK                            x       y       z     vdW  Elec       q    Type
REMARK                         _______ _______ _______ _____ _____    ______ ____
ROOT
ATOM      1  C   UNL     1       6.055   3.863  16.542  0.00  0.00    +0.000 C 
ATOM      2  C   UNL     1       6.125   4.627  17.852  0.00  0.00    +0.000 C 
ATOM      3  N   UNL     1       5.714   4.184  19.004  0.00  0.00    +0.000 NA
ENDROOT
BRANCH   2   4
ATOM      4  C   UNL     1       6.713   6.015  17.811  0.00  0.00    +0.000 A 
ATOM      5  C   UNL     1       6.135   7.021  17.038  0.00  0.00    +0.000 A 
ATOM      6  C   UNL     1       6.664   8.315  17.042  0.00  0.00    +0.000 A 
ATOM      7  C   UNL     1       7.777   8.638  17.817  0.00  0.00    +0.000 A 
ATOM      8  C   UNL     1       8.386   7.625  18.565  0.00  0.00    +0.000 A 
ATOM      9  C   UNL     1       7.850   6.327  18.573  0.00  0.00    +0.000 A 
BRANCH   7  10
ATOM     10  N   UNL     1       8.313   9.941  17.883  0.00  0.00    +0.000 N 
ATOM     11  C   UNL     1       9.031  10.486  18.939  0.00  0.00    +0.000 C 
ATOM     12  O   UNL     1       9.331   9.887  19.969  0.00  0.00    +0.000 OA
ATOM     13  H   UNL     1       8.247  10.525  17.055  0.00  0.00    +0.000 HD
BRANCH  11  14
ATOM     14  C   UNL     1       9.452  11.856  18.722  0.00  0.00    +0.000 A 
ATOM     15  C   UNL     1       9.817  12.499  17.554  0.00  0.00    +0.000 A 
ATOM     16  C   UNL     1      10.131  13.831  17.900  0.00  0.00    +0.000 A 
ATOM     17  C   UNL     1       9.944  13.924  19.259  0.00  0.00    +0.000 A 
ATOM     18  O   UNL     1       9.529  12.734  19.771  0.00  0.00    +0.000 OA
ENDBRANCH  11  14
ENDBRANCH   7  10
ENDBRANCH   2   4
BRANCH   3  19
ATOM     19  N   UNL     1       5.148   2.957  19.116  0.00  0.00    +0.000 N 
ATOM     20  C   UNL     1       3.810   2.742  18.862  0.00  0.00    +0.000 C 
ATOM     21  O   UNL     1       3.305   1.630  18.994  0.00  0.00    +0.000 OA
ATOM     22  H   UNL     1       5.678   2.134  19.371  0.00  0.00    +0.000 HD
BRANCH  20  23
ATOM     23  C   UNL     1       3.003   3.917  18.432  0.00  0.00    +0.000 C 
ATOM     24  C   UNL     1       1.501   3.880  18.509  0.00  0.00    +0.000 C 
ATOM     25  C   UNL     1       2.277   4.753  19.471  0.00  0.00    +0.000 C 
BRANCH  25  26
ATOM     26  C   UNL     1       2.187   6.254  19.315  0.00  0.00    +0.000 A 
ATOM     27  C   UNL     1       1.711   7.056  20.365  0.00  0.00    +0.000 A 
ATOM     28  C   UNL     1       1.570   8.438  20.225  0.00  0.00    +0.000 A 
ATOM     29  C   UNL     1       1.918   9.052  19.025  0.00  0.00    +0.000 A 
ATOM     30  C   UNL     1       2.424   8.286  17.978  0.00  0.00    +0.000 A 
ATOM     31  C   UNL     1       2.563   6.902  18.127  0.00  0.00    +0.000 A 
ENDBRANCH  25  26
ENDBRANCH  20  23
ENDBRANCH   3  19
TORSDOF 6
ENDMDL
MODEL 3
REMARK VINA RESULT:      -8.1      4.566      7.190
REMARK  Name = 
REMARK  7 active torsions:
REMARK  status: ('A' for Active; 'I' for Inactive)
REMARK    1  A    between atoms: C_1  and  C_2
REMARK    2  A    between atoms: C_2  and  C_16
REMARK    3  A    between atoms: N_3  and  N_4
REMARK    4  A    between atoms: C_5  and  C_7
REMARK    5  A    between atoms: C_9  and  C_10
REMARK    6  A    between atoms: C_19  and  N_20
REMARK    7  A    between atoms: C_21  and  C_23
REMARK                            x       y       z     vdW  Elec       q    Type
REMARK                         _______ _______ _______ _____ _____    ______ ____
ROOT
ATOM      1  C   UNL     1       5.323   6.094  18.911  0.00  0.00    +0.000 C 
ATOM      2  C   UNL     1       4.165   6.493  18.014  0.00  0.00    +0.000 C 
ATOM      3  N   UNL     1       4.049   6.187  16.755  0.00  0.00    +0.000 NA
ENDROOT
BRANCH   2   4
ATOM      4  C   UNL     1       3.065   7.318  18.632  0.00  0.00    +0.000 A 
ATOM      5  C   UNL     1       2.521   6.983  19.872  0.00  0.00    +0.000 A 
ATOM      6  C   UNL     1       1.532   7.780  20.455  0.00  0.00    +0.000 A 
ATOM      7  C   UNL     1       1.064   8.930  19.819  0.00  0.00    +0.000 A 
ATOM      8  C   UNL     1       1.576   9.251  18.558  0.00  0.00    +0.000 A 
ATOM      9  C   UNL     1       2.579   8.459  17.975  0.00  0.00    +0.000 A 
BRANCH   7  10
ATOM     10  N   UNL     1       0.100   9.784  20.395  0.00  0.00    +0.000 N 
ATOM     11  C   UNL     1       0.154  10.354  21.660  0.00  0.00    +0.000 C 
ATOM     12  O   UNL     1       1.078  10.214  22.456  0.00  0.00    +0.000 OA
ATOM     13  H   UNL     1      -0.674  10.088  19.813  0.00  0.00    +0.000 HD
BRANCH  11  14
ATOM     14  C   UNL     1      -0.988  11.189  21.979  0.00  0.00    +0.000 A 
ATOM     15  C   UNL     1      -1.681  12.086  21.189  0.00  0.00    +0.000 A 
ATOM     16  C   UNL     1      -2.711  12.627  21.989  0.00  0.00    +0.000 A 
ATOM     17  C   UNL     1      -2.586  12.032  23.222  0.00  0.00    +0.000 A 
ATOM     18  O   UNL     1      -1.546  11.155  23.230  0.00  0.00    +0.000 OA
ENDBRANCH  11  14
ENDBRANCH   7  10
ENDBRANCH   2   4
BRANCH   3  19
ATOM     19  N   UNL     1       5.012   5.472  16.121  0.00  0.00    +0.000 N 
ATOM     20  C   UNL     1       5.043   4.095  16.154  0.00  0.00    +0.000 C 
ATOM     21  O   UNL     1       5.937   3.462  15.598  0.00  0.00    +0.000 OA
ATOM     22  H   UNL     1       5.744   5.909  15.576  0.00  0.00    +0.000 HD
BRANCH  20  23
ATOM     23  C   UNL     1       3.953   3.409  16.901  0.00  0.00    +0.000 C 
ATOM     24  C   UNL     1       4.035   1.934  17.187  0.00  0.00    +0.000 C 
ATOM     25  C   UNL     1       4.200   2.924  18.319  0.00  0.00    +0.000 C 
BRANCH  25  26
ATOM     26  C   UNL     1       3.108   3.019  19.359  0.00  0.00    +0.000 A 
ATOM     27  C   UNL     1       1.838   3.516  19.021  0.00  0.00    +0.000 A 
ATOM     28  C   UNL     1       0.831   3.662  19.977  0.00  0.00    +0.000 A 
ATOM     29  C   UNL     1       1.072   3.298  21.299  0.00  0.00    +0.000 A 
ATOM     30  C   UNL     1       2.311   2.773  21.656  0.00  0.00    +0.000 A 
ATOM     31  C   UNL     1       3.314   2.628  20.692  0.00  0.00    +0.000 A 
ENDBRANCH  25  26
ENDBRANCH  20  23
ENDBRANCH   3  19
TORSDOF 6
ENDMDL
MODEL 4
REMARK VINA RESULT:      -7.9      4.321      8.197
REMARK  Name = 
REMARK  7 active torsions:
REMARK  status: ('A' for Active; 'I' for Inactive)
REMARK    1  A    between atoms: C_1  and  C_2
REMARK    2  A    between atoms: C_2  and  C_16
REMARK    3  A    between atoms: N_3  and  N_4
REMARK    4  A    between atoms: C_5  and  C_7
REMARK    5  A    between atoms: C_9  and  C_10
REMARK    6  A    between atoms: C_19  and  N_20
REMARK    7  A    between atoms: C_21  and  C_23
REMARK                            x       y       z     vdW  Elec       q    Type
REMARK                         _______ _______ _______ _____ _____    ______ ____
ROOT
ATOM      1  C   UNL     1       3.466   5.323  18.278  0.00  0.00    +0.000 C 
ATOM      2  C   UNL     1       3.495   6.776  17.836  0.00  0.00    +0.000 C 
ATOM      3  N   UNL     1       4.277   7.268  16.920  0.00  0.00    +0.000 NA
ENDROOT
BRANCH   2   4
ATOM      4  C   UNL     1       2.545   7.725  18.520  0.00  0.00    +0.000 A 
ATOM      5  C   UNL     1       2.005   8.819  17.845  0.00  0.00    +0.000 A 
ATOM      6  C   UNL     1       1.091   9.667  18.477  0.00  0.00    +0.000 A 
ATOM      7  C   UNL     1       0.692   9.443  19.795  0.00  0.00    +0.000 A 
ATOM      8  C   UNL     1       1.258   8.371  20.491  0.00  0.00    +0.000 A 
ATOM      9  C   UNL     1       2.167   7.511  19.855  0.00  0.00    +0.000 A 
BRANCH   7  10
ATOM     10  N   UNL     1      -0.262  10.249  20.452  0.00  0.00    +0.000 N 
ATOM     11  C   UNL     1       0.004  11.293  21.329  0.00  0.00    +0.000 C 
ATOM     12  O   UNL     1       1.127  11.686  21.635  0.00  0.00    +0.000 OA
ATOM     13  H   UNL     1      -1.239  10.122  20.211  0.00  0.00    +0.000 HD
BRANCH  11  14
ATOM     14  C   UNL     1      -1.183  11.939  21.853  0.00  0.00    +0.000 A 
ATOM     15  C   UNL     1      -1.445  12.425  23.120  0.00  0.00    +0.000 A 
ATOM     16  C   UNL     1      -2.750  12.963  23.092  0.00  0.00    +0.000 A 
ATOM     17  C   UNL     1      -3.211  12.772  21.811  0.00  0.00    +0.000 A 
ATOM     18  O   UNL     1      -2.270  12.155  21.047  0.00  0.00    +0.000 OA
ENDBRANCH  11  14
ENDBRANCH   7  10
ENDBRANCH   2   4
BRANCH   3  19
ATOM     19  N   UNL     1       5.179   6.482  16.280  0.00  0.00    +0.000 N 
ATOM     20  C   UNL     1       6.521   6.506  16.591  0.00  0.00    +0.000 C 
ATOM     21  O   UNL     1       7.331   5.809  15.984  0.00  0.00    +0.000 OA
ATOM     22  H   UNL     1       4.914   5.827  15.557  0.00  0.00    +0.000 HD
BRANCH  20  23
ATOM     23  C   UNL     1       6.949   7.419  17.687  0.00  0.00    +0.000 C 
ATOM     24  C   UNL     1       7.972   6.973  18.696  0.00  0.00    +0.000 C 
ATOM     25  C   UNL     1       8.344   8.018  17.667  0.00  0.00    +0.000 C 
BRANCH  25  26
ATOM     26  C   UNL     1       8.571   9.439  18.131  0.00  0.00    +0.000 A 
ATOM     27  C   UNL     1       9.215   9.699  19.352  0.00  0.00    +0.000 A 
ATOM     28  C   UNL     1       9.388  11.001  19.825  0.00  0.00    +0.000 A 
ATOM     29  C   UNL     1       8.928  12.079  19.073  0.00  0.00    +0.000 A 
ATOM     30  C   UNL     1       8.315  11.852  17.844  0.00  0.00    +0.000 A 
ATOM     31  C   UNL     1       8.147  10.545  17.376  0.00  0.00    +0.000 A 
ENDBRANCH  25  26
ENDBRANCH  20  23
ENDBRANCH   3  19
TORSDOF 6
ENDMDL
MODEL 5
REMARK VINA RESULT:      -7.9      1.244      1.427
REMARK  Name = 
REMARK  7 active torsions:
REMARK  status: ('A' for Active; 'I' for Inactive)
REMARK    1  A    between atoms: C_1  and  C_2
REMARK    2  A    between atoms: C_2  and  C_16
REMARK    3  A    between atoms: N_3  and  N_4
REMARK    4  A    between atoms: C_5  and  C_7
REMARK    5  A    between atoms: C_9  and  C_10
REMARK    6  A    between atoms: C_19  and  N_20
REMARK    7  A    between atoms: C_21  and  C_23
REMARK                            x       y       z     vdW  Elec       q    Type
REMARK                         _______ _______ _______ _____ _____    ______ ____
ROOT
ATOM      1  C   UNL     1       5.601   3.942  15.734  0.00  0.00    +0.000 C 
ATOM      2  C   UNL     1       5.436   4.407  17.170  0.00  0.00    +0.000 C 
ATOM      3  N   UNL     1       4.585   3.921  18.025  0.00  0.00    +0.000 NA
ENDROOT
BRANCH   2   4
ATOM      4  C   UNL     1       6.329   5.528  17.639  0.00  0.00    +0.000 A 
ATOM      5  C   UNL     1       7.183   5.364  18.728  0.00  0.00    +0.000 A 
ATOM      6  C   UNL     1       8.037   6.397  19.126  0.00  0.00    +0.000 A 
ATOM      7  C   UNL     1       8.062   7.614  18.447  0.00  0.00    +0.000 A 
ATOM      8  C   UNL     1       7.181   7.801  17.378  0.00  0.00    +0.000 A 
ATOM      9  C   UNL     1       6.330   6.761  16.968  0.00  0.00    +0.000 A 
BRANCH   7  10
ATOM     10  N   UNL     1       8.941   8.664  18.790  0.00  0.00    +0.000 N 
ATOM     11  C   UNL     1       8.814   9.998  18.427  0.00  0.00    +0.000 C 
ATOM     12  O   UNL     1       7.887  10.463  17.769  0.00  0.00    +0.000 OA
ATOM     13  H   UNL     1       9.700   8.458  19.431  0.00  0.00    +0.000 HD
BRANCH  11  14
ATOM     14  C   UNL     1       9.878  10.848  18.926  0.00  0.00    +0.000 A 
ATOM     15  C   UNL     1      10.159  11.255  20.216  0.00  0.00    +0.000 A 
ATOM     16  C   UNL     1      11.309  12.071  20.148  0.00  0.00    +0.000 A 
ATOM     17  C   UNL     1      11.662  12.118  18.820  0.00  0.00    +0.000 A 
ATOM     18  O   UNL     1      10.804  11.378  18.067  0.00  0.00    +0.000 OA
ENDBRANCH  11  14
ENDBRANCH   7  10
ENDBRANCH   2   4
BRANCH   3  19
ATOM     19  N   UNL     1       3.729   2.931  17.669  0.00  0.00    +0.000 N 
ATOM     20  C   UNL     1       2.388   2.975  17.982  0.00  0.00    +0.000 C 
ATOM     21  O   UNL     1       1.630   2.058  17.677  0.00  0.00    +0.000 OA
ATOM     22  H   UNL     1       4.024   2.121  17.141  0.00  0.00    +0.000 HD
BRANCH  20  23
ATOM     23  C   UNL     1       1.900   4.176  18.715  0.00  0.00    +0.000 C 
ATOM     24  C   UNL     1       2.241   4.376  20.167  0.00  0.00    +0.000 C 
ATOM     25  C   UNL     1       2.882   5.262  19.120  0.00  0.00    +0.000 C 
BRANCH  25  26
ATOM     26  C   UNL     1       2.477   6.717  19.062  0.00  0.00    +0.000 A 
ATOM     27  C   UNL     1       1.885   7.340  20.173  0.00  0.00    +0.000 A 
ATOM     28  C   UNL     1       1.456   8.668  20.124  0.00  0.00    +0.000 A 
ATOM     29  C   UNL     1       1.624   9.409  18.958  0.00  0.00    +0.000 A 
ATOM     30  C   UNL     1       2.237   8.826  17.852  0.00  0.00    +0.000 A 
ATOM     31  C   UNL     1       2.666   7.496  17.909  0.00  0.00    +0.000 A 
ENDBRANCH  25  26
ENDBRANCH  20  23
ENDBRANCH   3  19
TORSDOF 6
ENDMDL
MODEL 6
REMARK VINA RESULT:      -7.9      4.601      7.223
REMARK  Name = 
REMARK  7 active torsions:
REMARK  status: ('A' for Active; 'I' for Inactive)
REMARK    1  A    between atoms: C_1  and  C_2
REMARK    2  A    between atoms: C_2  and  C_16
REMARK    3  A    between atoms: N_3  and  N_4
REMARK    4  A    between atoms: C_5  and  C_7
REMARK    5  A    between atoms: C_9  and  C_10
REMARK    6  A    between atoms: C_19  and  N_20
REMARK    7  A    between atoms: C_21  and  C_23
REMARK                            x       y       z     vdW  Elec       q    Type
REMARK                         _______ _______ _______ _____ _____    ______ ____
ROOT
ATOM      1  C   UNL     1       5.200   6.005  18.947  0.00  0.00    +0.000 C 
ATOM      2  C   UNL     1       4.133   6.544  18.010  0.00  0.00    +0.000 C 
ATOM      3  N   UNL     1       4.052   6.290  16.736  0.00  0.00    +0.000 NA
ENDROOT
BRANCH   2   4
ATOM      4  C   UNL     1       3.087   7.452  18.604  0.00  0.00    +0.000 A 
ATOM      5  C   UNL     1       2.630   8.575  17.916  0.00  0.00    +0.000 A 
ATOM      6  C   UNL     1       1.629   9.385  18.459  0.00  0.00    +0.000 A 
ATOM      7  C   UNL     1       1.058   9.094  19.698  0.00  0.00    +0.000 A 
ATOM      8  C   UNL     1       1.538   7.992  20.412  0.00  0.00    +0.000 A 
ATOM      9  C   UNL     1       2.536   7.170  19.864  0.00  0.00    +0.000 A 
BRANCH   7  10
ATOM     10  N   UNL     1       0.014   9.861  20.259  0.00  0.00    +0.000 N 
ATOM     11  C   UNL     1       0.156  10.954  21.104  0.00  0.00    +0.000 C 
ATOM     12  O   UNL     1       1.229  11.431  21.463  0.00  0.00    +0.000 OA
ATOM     13  H   UNL     1      -0.935   9.660  19.963  0.00  0.00    +0.000 HD
BRANCH  11  14
ATOM     14  C   UNL     1      -1.102  11.540  21.524  0.00  0.00    +0.000 A 
ATOM     15  C   UNL     1      -1.658  11.640  22.785  0.00  0.00    +0.000 A 
ATOM     16  C   UNL     1      -2.894  12.308  22.636  0.00  0.00    +0.000 A 
ATOM     17  C   UNL     1      -3.022  12.574  21.294  0.00  0.00    +0.000 A 
ATOM     18  O   UNL     1      -1.940  12.117  20.607  0.00  0.00    +0.000 OA
ENDBRANCH  11  14
ENDBRANCH   7  10
ENDBRANCH   2   4
BRANCH   3  19
ATOM     19  N   UNL     1       4.974   5.505  16.124  0.00  0.00    +0.000 N 
ATOM     20  C   UNL     1       4.917   4.129  16.180  0.00  0.00    +0.000 C 
ATOM     21  O   UNL     1       5.774   3.431  15.644  0.00  0.00    +0.000 OA
ATOM     22  H   UNL     1       5.737   5.885  15.579  0.00  0.00    +0.000 HD
BRANCH  20  23
ATOM     23  C   UNL     1       3.779   3.526  16.928  0.00  0.00    +0.000 C 
ATOM     24  C   UNL     1       3.653   2.032  17.051  0.00  0.00    +0.000 C 
ATOM     25  C   UNL     1       4.029   2.852  18.266  0.00  0.00    +0.000 C 
BRANCH  25  26
ATOM     26  C   UNL     1       3.024   2.984  19.386  0.00  0.00    +0.000 A 
ATOM     27  C   UNL     1       1.773   3.582  19.159  0.00  0.00    +0.000 A 
ATOM     28  C   UNL     1       0.849   3.761  20.191  0.00  0.00    +0.000 A 
ATOM     29  C   UNL     1       1.156   3.331  21.479  0.00  0.00    +0.000 A 
ATOM     30  C   UNL     1       2.376   2.707  21.726  0.00  0.00    +0.000 A 
ATOM     31  C   UNL     1       3.294   2.528  20.687  0.00  0.00    +0.000 A 
ENDBRANCH  25  26
ENDBRANCH  20  23
ENDBRANCH   3  19
TORSDOF 6
ENDMDL
MODEL 7
REMARK VINA RESULT:      -7.9      6.472      9.867
REMARK  Name = 
REMARK  7 active torsions:
REMARK  status: ('A' for Active; 'I' for Inactive)
REMARK    1  A    between atoms: C_1  and  C_2
REMARK    2  A    between atoms: C_2  and  C_16
REMARK    3  A    between atoms: N_3  and  N_4
REMARK    4  A    between atoms: C_5  and  C_7
REMARK    5  A    between atoms: C_9  and  C_10
REMARK    6  A    between atoms: C_19  and  N_20
REMARK    7  A    between atoms: C_21  and  C_23
REMARK                            x       y       z     vdW  Elec       q    Type
REMARK                         _______ _______ _______ _____ _____    ______ ____
ROOT
ATOM      1  C   UNL     1      -0.564  13.386  22.481  0.00  0.00    +0.000 C 
ATOM      2  C   UNL     1      -1.161  11.998  22.641  0.00  0.00    +0.000 C 
ATOM      3  N   UNL     1      -2.319  11.734  23.171  0.00  0.00    +0.000 NA
ENDROOT
BRANCH   2   4
ATOM      4  C   UNL     1      -0.340  10.834  22.149  0.00  0.00    +0.000 A 
ATOM      5  C   UNL     1      -0.622   9.529  22.555  0.00  0.00    +0.000 A 
ATOM      6  C   UNL     1       0.119   8.453  22.059  0.00  0.00    +0.000 A 
ATOM      7  C   UNL     1       1.155   8.650  21.145  0.00  0.00    +0.000 A 
ATOM      8  C   UNL     1       1.469   9.958  20.764  0.00  0.00    +0.000 A 
ATOM      9  C   UNL     1       0.718  11.040  21.252  0.00  0.00    +0.000 A 
BRANCH   7  10
ATOM     10  N   UNL     1       1.895   7.586  20.588  0.00  0.00    +0.000 N 
ATOM     11  C   UNL     1       2.228   7.426  19.249  0.00  0.00    +0.000 C 
ATOM     12  O   UNL     1       1.944   8.217  18.354  0.00  0.00    +0.000 OA
ATOM     13  H   UNL     1       2.302   6.906  21.221  0.00  0.00    +0.000 HD
BRANCH  11  14
ATOM     14  C   UNL     1       2.997   6.228  18.972  0.00  0.00    +0.000 A 
ATOM     15  C   UNL     1       3.431   5.233  19.827  0.00  0.00    +0.000 A 
ATOM     16  C   UNL     1       4.133   4.293  19.041  0.00  0.00    +0.000 A 
ATOM     17  C   UNL     1       4.090   4.770  17.752  0.00  0.00    +0.000 A 
ATOM     18  O   UNL     1       3.401   5.942  17.695  0.00  0.00    +0.000 OA
ENDBRANCH  11  14
ENDBRANCH   7  10
ENDBRANCH   2   4
BRANCH   3  19
ATOM     19  N   UNL     1      -3.102  12.727  23.662  0.00  0.00    +0.000 N 
ATOM     20  C   UNL     1      -4.203  13.198  22.978  0.00  0.00    +0.000 C 
ATOM     21  O   UNL     1      -4.886  14.116  23.423  0.00  0.00    +0.000 OA
ATOM     22  H   UNL     1      -2.933  13.160  24.560  0.00  0.00    +0.000 HD
BRANCH  20  23
ATOM     23  C   UNL     1      -4.519  12.552  21.674  0.00  0.00    +0.000 C 
ATOM     24  C   UNL     1      -5.352  13.272  20.649  0.00  0.00    +0.000 C 
ATOM     25  C   UNL     1      -3.873  13.069  20.401  0.00  0.00    +0.000 C 
BRANCH  25  26
ATOM     26  C   UNL     1      -3.450  12.107  19.315  0.00  0.00    +0.000 A 
ATOM     27  C   UNL     1      -2.096  11.775  19.142  0.00  0.00    +0.000 A 
ATOM     28  C   UNL     1      -1.676  10.929  18.112  0.00  0.00    +0.000 A 
ATOM     29  C   UNL     1      -2.612  10.384  17.238  0.00  0.00    +0.000 A 
ATOM     30  C   UNL     1      -3.964  10.671  17.406  0.00  0.00    +0.000 A 
ATOM     31  C   UNL     1      -4.377  11.517  18.441  0.00  0.00    +0.000 A 
ENDBRANCH  25  26
ENDBRANCH  20  23
ENDBRANCH   3  19
TORSDOF 6
ENDMDL
MODEL 8
REMARK VINA RESULT:      -7.9      5.462      9.541
REMARK  Name = 
REMARK  7 active torsions:
REMARK  status: ('A' for Active; 'I' for Inactive)
REMARK    1  A    between atoms: C_1  and  C_2
REMARK    2  A    between atoms: C_2  and  C_16
REMARK    3  A    between atoms: N_3  and  N_4
REMARK    4  A    between atoms: C_5  and  C_7
REMARK    5  A    between atoms: C_9  and  C_10
REMARK    6  A    between atoms: C_19  and  N_20
REMARK    7  A    between atoms: C_21  and  C_23
REMARK                            x       y       z     vdW  Elec       q    Type
REMARK                         _______ _______ _______ _____ _____    ______ ____
ROOT
ATOM      1  C   UNL     1       1.071  12.687  20.816  0.00  0.00    +0.000 C 
ATOM      2  C   UNL     1       0.452  11.415  21.369  0.00  0.00    +0.000 C 
ATOM      3  N   UNL     1      -0.433  11.362  22.321  0.00  0.00    +0.000 NA
ENDROOT
BRANCH   2   4
ATOM      4  C   UNL     1       0.906  10.109  20.770  0.00  0.00    +0.000 A 
ATOM      5  C   UNL     1       1.173   9.995  19.406  0.00  0.00    +0.000 A 
ATOM      6  C   UNL     1       1.636   8.790  18.869  0.00  0.00    +0.000 A 
ATOM      7  C   UNL     1       1.846   7.673  19.677  0.00  0.00    +0.000 A 
ATOM      8  C   UNL     1       1.543   7.768  21.038  0.00  0.00    +0.000 A 
ATOM      9  C   UNL     1       1.090   8.981  21.583  0.00  0.00    +0.000 A 
BRANCH   7  10
ATOM     10  N   UNL     1       2.354   6.454  19.181  0.00  0.00    +0.000 N 
ATOM     11  C   UNL     1       2.054   5.182  19.651  0.00  0.00    +0.000 C 
ATOM     12  O   UNL     1       1.268   4.937  20.562  0.00  0.00    +0.000 OA
ATOM     13  H   UNL     1       2.932   6.484  18.347  0.00  0.00    +0.000 HD
BRANCH  11  14
ATOM     14  C   UNL     1       2.734   4.116  18.942  0.00  0.00    +0.000 A 
ATOM     15  C   UNL     1       3.687   4.179  17.943  0.00  0.00    +0.000 A 
ATOM     16  C   UNL     1       4.019   2.848  17.609  0.00  0.00    +0.000 A 
ATOM     17  C   UNL     1       3.249   2.049  18.420  0.00  0.00    +0.000 A 
ATOM     18  O   UNL     1       2.466   2.805  19.237  0.00  0.00    +0.000 OA
ENDBRANCH  11  14
ENDBRANCH   7  10
ENDBRANCH   2   4
BRANCH   3  19
ATOM     19  N   UNL     1      -0.870  12.493  22.930  0.00  0.00    +0.000 N 
ATOM     20  C   UNL     1      -2.094  13.055  22.639  0.00  0.00    +0.000 C 
ATOM     21  O   UNL     1      -2.464  14.095  23.178  0.00  0.00    +0.000 OA
ATOM     22  H   UNL     1      -0.331  12.971  23.640  0.00  0.00    +0.000 HD
BRANCH  20  23
ATOM     23  C   UNL     1      -2.943  12.353  21.637  0.00  0.00    +0.000 C 
ATOM     24  C   UNL     1      -4.206  12.992  21.125  0.00  0.00    +0.000 C 
ATOM     25  C   UNL     1      -3.007  12.870  20.210  0.00  0.00    +0.000 C 
BRANCH  25  26
ATOM     26  C   UNL     1      -3.081  11.903  19.051  0.00  0.00    +0.000 A 
ATOM     27  C   UNL     1      -1.931  11.227  18.609  0.00  0.00    +0.000 A 
ATOM     28  C   UNL     1      -1.966  10.369  17.507  0.00  0.00    +0.000 A 
ATOM     29  C   UNL     1      -3.163  10.159  16.829  0.00  0.00    +0.000 A 
ATOM     30  C   UNL     1      -4.324  10.790  17.266  0.00  0.00    +0.000 A 
ATOM     31  C   UNL     1      -4.282  11.646  18.371  0.00  0.00    +0.000 A 
ENDBRANCH  25  26
ENDBRANCH  20  23
ENDBRANCH   3  19
TORSDOF 6
ENDMDL
MODEL 9
REMARK VINA RESULT:      -7.8      5.929      9.416
REMARK  Name = 
REMARK  7 active torsions:
REMARK  status: ('A' for Active; 'I' for Inactive)
REMARK    1  A    between atoms: C_1  and  C_2
REMARK    2  A    between atoms: C_2  and  C_16
REMARK    3  A    between atoms: N_3  and  N_4
REMARK    4  A    between atoms: C_5  and  C_7
REMARK    5  A    between atoms: C_9  and  C_10
REMARK    6  A    between atoms: C_19  and  N_20
REMARK    7  A    between atoms: C_21  and  C_23
REMARK                            x       y       z     vdW  Elec       q    Type
REMARK                         _______ _______ _______ _____ _____    ______ ____
ROOT
ATOM      1  C   UNL     1       0.726  13.101  21.174  0.00  0.00    +0.000 C 
ATOM      2  C   UNL     1       0.134  11.787  21.651  0.00  0.00    +0.000 C 
ATOM      3  N   UNL     1      -0.762  11.660  22.586  0.00  0.00    +0.000 NA
ENDROOT
BRANCH   2   4
ATOM      4  C   UNL     1       0.631  10.526  20.991  0.00  0.00    +0.000 A 
ATOM      5  C   UNL     1       0.831  10.464  19.612  0.00  0.00    +0.000 A 
ATOM      6  C   UNL     1       1.334   9.303  19.017  0.00  0.00    +0.000 A 
ATOM      7  C   UNL     1       1.651   8.180  19.780  0.00  0.00    +0.000 A 
ATOM      8  C   UNL     1       1.417   8.221  21.158  0.00  0.00    +0.000 A 
ATOM      9  C   UNL     1       0.923   9.390  21.761  0.00  0.00    +0.000 A 
BRANCH   7  10
ATOM     10  N   UNL     1       2.203   7.007  19.223  0.00  0.00    +0.000 N 
ATOM     11  C   UNL     1       3.037   6.932  18.115  0.00  0.00    +0.000 C 
ATOM     12  O   UNL     1       3.441   7.898  17.473  0.00  0.00    +0.000 OA
ATOM     13  H   UNL     1       2.053   6.131  19.714  0.00  0.00    +0.000 HD
BRANCH  11  14
ATOM     14  C   UNL     1       3.444   5.584  17.773  0.00  0.00    +0.000 A 
ATOM     15  C   UNL     1       2.742   4.396  17.851  0.00  0.00    +0.000 A 
ATOM     16  C   UNL     1       3.603   3.378  17.388  0.00  0.00    +0.000 A 
ATOM     17  C   UNL     1       4.783   4.002  17.057  0.00  0.00    +0.000 A 
ATOM     18  O   UNL     1       4.700   5.341  17.283  0.00  0.00    +0.000 OA
ENDBRANCH  11  14
ENDBRANCH   7  10
ENDBRANCH   2   4
BRANCH   3  19
ATOM     19  N   UNL     1      -1.237  12.746  23.246  0.00  0.00    +0.000 N 
ATOM     20  C   UNL     1      -2.494  13.258  23.005  0.00  0.00    +0.000 C 
ATOM     21  O   UNL     1      -2.899  14.258  23.591  0.00  0.00    +0.000 OA
ATOM     22  H   UNL     1      -0.704  13.224  23.961  0.00  0.00    +0.000 HD
BRANCH  20  23
ATOM     23  C   UNL     1      -3.333  12.552  21.998  0.00  0.00    +0.000 C 
ATOM     24  C   UNL     1      -4.640  13.144  21.544  0.00  0.00    +0.000 C 
ATOM     25  C   UNL     1      -3.461  13.119  20.595  0.00  0.00    +0.000 C 
BRANCH  25  26
ATOM     26  C   UNL     1      -3.518  12.194  19.401  0.00  0.00    +0.000 A 
ATOM     27  C   UNL     1      -4.747  11.870  18.803  0.00  0.00    +0.000 A 
ATOM     28  C   UNL     1      -4.827  10.976  17.733  0.00  0.00    +0.000 A 
ATOM     29  C   UNL     1      -3.668  10.395  17.227  0.00  0.00    +0.000 A 
ATOM     30  C   UNL     1      -2.433  10.722  17.779  0.00  0.00    +0.000 A 
ATOM     31  C   UNL     1      -2.360  11.619  18.850  0.00  0.00    +0.000 A 
ENDBRANCH  25  26
ENDBRANCH  20  23
ENDBRANCH   3  19
TORSDOF 6
ENDMDL
