MODEL 1
REMARK VINA RESULT:      -7.9      0.000      0.000
REMARK  Name = 
REMARK  8 active torsions:
REMARK  status: ('A' for Active; 'I' for Inactive)
REMARK    1  A    between atoms: C_1  and  C_2
REMARK    2  A    between atoms: C_2  and  C_3
REMARK    3  A    between atoms: C_3  and  C_4
REMARK    4  A    between atoms: C_7  and  O_8
REMARK    5  A    between atoms: O_8  and  C_9
REMARK    6  A    between atoms: C_9  and  C_10
REMARK    7  A    between atoms: C_10  and  N_11
REMARK    8  A    between atoms: C_12  and  C_14
REMARK                            x       y       z     vdW  Elec       q    Type
REMARK                         _______ _______ _______ _____ _____    ______ ____
ROOT
ATOM      1  C   UNL     1       6.790   5.762  18.000  0.00  0.00    +0.000 C 
ENDROOT
BRANCH   1   2
ATOM      2  N   UNL     1       5.600   5.255  18.655  0.00  0.00    +0.000 N 
ATOM      3  C   UNL     1       4.343   5.577  18.211  0.00  0.00    +0.000 C 
ATOM      4  O   UNL     1       4.147   6.280  17.218  0.00  0.00    +0.000 OA
ATOM      5  H   UNL     1       5.704   4.825  19.564  0.00  0.00    +0.000 HD
BRANCH   3   6
ATOM      6  C   UNL     1       3.180   5.010  18.946  0.00  0.00    +0.000 A 
ATOM      7  C   UNL     1       2.593   5.858  19.905  0.00  0.00    +0.000 A 
ATOM      8  C   UNL     1       1.513   5.432  20.676  0.00  0.00    +0.000 A 
ATOM      9  C   UNL     1       1.003   4.150  20.501  0.00  0.00    +0.000 A 
ATOM     10  C   UNL     1       1.570   3.298  19.553  0.00  0.00    +0.000 A 
ATOM     11  C   UNL     1       2.658   3.719  18.774  0.00  0.00    +0.000 A 
ATOM     12 BR   UNL     1       3.364   2.418  17.579  0.00  0.00    +0.000 Br
ENDBRANCH   3   6
ENDBRANCH   1   2
BRANCH   1  13
ATOM     13  C   UNL     1       7.312   4.804  16.928  0.00  0.00    +0.000 C 
BRANCH  13  14
ATOM     14  O   UNL     1       7.442   5.521  15.699  0.00  0.00    +0.000 OA
BRANCH  14  18
ATOM     15  C   UNL     1       5.692   3.584  12.427  0.00  0.00    +0.000 A 
ATOM     16  C   UNL     1       5.082   3.627  13.689  0.00  0.00    +0.000 A 
ATOM     17  C   UNL     1       5.703   4.292  14.751  0.00  0.00    +0.000 A 
ATOM     18  C   UNL     1       6.951   4.891  14.589  0.00  0.00    +0.000 A 
ATOM     19  C   UNL     1       7.569   4.845  13.340  0.00  0.00    +0.000 A 
ATOM     20  C   UNL     1       6.943   4.193  12.270  0.00  0.00    +0.000 A 
BRANCH  15  21
ATOM     21  C   UNL     1       5.038   2.904  11.247  0.00  0.00    +0.000 C 
BRANCH  21  23
ATOM     22  C   UNL     1       3.218   3.916   9.789  0.00  0.00    +0.000 C 
ATOM     23  C   UNL     1       3.542   3.190  11.086  0.00  0.00    +0.000 C 
ENDBRANCH  21  23
ENDBRANCH  15  21
ENDBRANCH  14  18
ENDBRANCH  13  14
ENDBRANCH   1  13
TORSDOF 7
ENDMDL
MODEL 2
REMARK VINA RESULT:      -7.6      1.459      2.069
REMARK  Name = 
REMARK  8 active torsions:
REMARK  status: ('A' for Active; 'I' for Inactive)
REMARK    1  A    between atoms: C_1  and  C_2
REMARK    2  A    between atoms: C_2  and  C_3
REMARK    3  A    between atoms: C_3  and  C_4
REMARK    4  A    between atoms: C_7  and  O_8
REMARK    5  A    between atoms: O_8  and  C_9
REMARK    6  A    between atoms: C_9  and  C_10
REMARK    7  A    between atoms: C_10  and  N_11
REMARK    8  A    between atoms: C_12  and  C_14
REMARK                            x       y       z     vdW  Elec       q    Type
REMARK                         _______ _______ _______ _____ _____    ______ ____
ROOT
ATOM      1  C   UNL     1       7.020   4.593  17.427  0.00  0.00    +0.000 C 
ENDROOT
BRANCH   1   2
ATOM      2  N   UNL     1       5.720   4.125  17.864  0.00  0.00    +0.000 N 
ATOM      3  C   UNL     1       5.129   4.605  19.004  0.00  0.00    +0.000 C 
ATOM      4  O   UNL     1       5.643   5.480  19.703  0.00  0.00    +0.000 OA
ATOM      5  H   UNL     1       5.342   3.294  17.427  0.00  0.00    +0.000 HD
BRANCH   3   6
ATOM      6  C   UNL     1       3.793   4.065  19.374  0.00  0.00    +0.000 A 
ATOM      7  C   UNL     1       3.706   2.663  19.465  0.00  0.00    +0.000 A 
ATOM      8  C   UNL     1       2.501   2.036  19.780  0.00  0.00    +0.000 A 
ATOM      9  C   UNL     1       1.364   2.802  20.008  0.00  0.00    +0.000 A 
ATOM     10  C   UNL     1       1.433   4.194  19.926  0.00  0.00    +0.000 A 
ATOM     11  C   UNL     1       2.641   4.831  19.609  0.00  0.00    +0.000 A 
ATOM     12 BR   UNL     1       2.555   6.727  19.463  0.00  0.00    +0.000 Br
ENDBRANCH   3   6
ENDBRANCH   1   2
BRANCH   1  13
ATOM     13  C   UNL     1       6.918   5.830  16.532  0.00  0.00    +0.000 C 
BRANCH  13  14
ATOM     14  O   UNL     1       7.608   5.567  15.309  0.00  0.00    +0.000 OA
BRANCH  14  18
ATOM     15  C   UNL     1       5.653   3.472  12.257  0.00  0.00    +0.000 A 
ATOM     16  C   UNL     1       6.959   3.962  12.115  0.00  0.00    +0.000 A 
ATOM     17  C   UNL     1       7.573   4.651  13.165  0.00  0.00    +0.000 A 
ATOM     18  C   UNL     1       6.891   4.897  14.356  0.00  0.00    +0.000 A 
ATOM     19  C   UNL     1       5.588   4.422  14.502  0.00  0.00    +0.000 A 
ATOM     20  C   UNL     1       4.975   3.719  13.457  0.00  0.00    +0.000 A 
BRANCH  15  21
ATOM     21  C   UNL     1       4.967   2.696  11.157  0.00  0.00    +0.000 C 
BRANCH  21  23
ATOM     22  C   UNL     1       3.238   4.041   9.866  0.00  0.00    +0.000 C 
ATOM     23  C   UNL     1       3.481   3.022  10.970  0.00  0.00    +0.000 C 
ENDBRANCH  21  23
ENDBRANCH  15  21
ENDBRANCH  14  18
ENDBRANCH  13  14
ENDBRANCH   1  13
TORSDOF 7
ENDMDL
MODEL 3
REMARK VINA RESULT:      -7.5      1.253      1.635
REMARK  Name = 
REMARK  8 active torsions:
REMARK  status: ('A' for Active; 'I' for Inactive)
REMARK    1  A    between atoms: C_1  and  C_2
REMARK    2  A    between atoms: C_2  and  C_3
REMARK    3  A    between atoms: C_3  and  C_4
REMARK    4  A    between atoms: C_7  and  O_8
REMARK    5  A    between atoms: O_8  and  C_9
REMARK    6  A    between atoms: C_9  and  C_10
REMARK    7  A    between atoms: C_10  and  N_11
REMARK    8  A    between atoms: C_12  and  C_14
REMARK                            x       y       z     vdW  Elec       q    Type
REMARK                         _______ _______ _______ _____ _____    ______ ____
ROOT
ATOM      1  C   UNL     1       6.551   6.233  17.838  0.00  0.00    +0.000 C 
ENDROOT
BRANCH   1   2
ATOM      2  N   UNL     1       5.210   5.850  18.234  0.00  0.00    +0.000 N 
ATOM      3  C   UNL     1       4.978   4.736  19.000  0.00  0.00    +0.000 C 
ATOM      4  O   UNL     1       5.885   4.019  19.425  0.00  0.00    +0.000 OA
ATOM      5  H   UNL     1       4.431   6.300  17.772  0.00  0.00    +0.000 HD
BRANCH   3   6
ATOM      6  C   UNL     1       3.568   4.421  19.357  0.00  0.00    +0.000 A 
ATOM      7  C   UNL     1       2.912   5.381  20.151  0.00  0.00    +0.000 A 
ATOM      8  C   UNL     1       1.597   5.189  20.571  0.00  0.00    +0.000 A 
ATOM      9  C   UNL     1       0.918   4.032  20.205  0.00  0.00    +0.000 A 
ATOM     10  C   UNL     1       1.552   3.072  19.416  0.00  0.00    +0.000 A 
ATOM     11  C   UNL     1       2.874   3.258  18.990  0.00  0.00    +0.000 A 
ATOM     12 BR   UNL     1       3.622   1.827  17.983  0.00  0.00    +0.000 Br
ENDBRANCH   3   6
ENDBRANCH   1   2
BRANCH   1  13
ATOM     13  C   UNL     1       7.176   5.230  16.866  0.00  0.00    +0.000 C 
BRANCH  13  14
ATOM     14  O   UNL     1       7.241   5.828  15.571  0.00  0.00    +0.000 OA
BRANCH  14  18
ATOM     15  C   UNL     1       6.013   3.275  12.488  0.00  0.00    +0.000 A 
ATOM     16  C   UNL     1       5.384   3.298  13.741  0.00  0.00    +0.000 A 
ATOM     17  C   UNL     1       5.826   4.173  14.739  0.00  0.00    +0.000 A 
ATOM     18  C   UNL     1       6.919   5.010  14.523  0.00  0.00    +0.000 A 
ATOM     19  C   UNL     1       7.557   4.988  13.283  0.00  0.00    +0.000 A 
ATOM     20  C   UNL     1       7.108   4.123  12.277  0.00  0.00    +0.000 A 
BRANCH  15  21
ATOM     21  C   UNL     1       5.545   2.367  11.376  0.00  0.00    +0.000 C 
BRANCH  21  23
ATOM     22  C   UNL     1       6.101  -0.112  11.279  0.00  0.00    +0.000 C 
ATOM     23  C   UNL     1       6.558   1.301  10.946  0.00  0.00    +0.000 C 
ENDBRANCH  21  23
ENDBRANCH  15  21
ENDBRANCH  14  18
ENDBRANCH  13  14
ENDBRANCH   1  13
TORSDOF 7
ENDMDL
MODEL 4
REMARK VINA RESULT:      -7.1      1.383      1.985
REMARK  Name = 
REMARK  8 active torsions:
REMARK  status: ('A' for Active; 'I' for Inactive)
REMARK    1  A    between atoms: C_1  and  C_2
REMARK    2  A    between atoms: C_2  and  C_3
REMARK    3  A    between atoms: C_3  and  C_4
REMARK    4  A    between atoms: C_7  and  O_8
REMARK    5  A    between atoms: O_8  and  C_9
REMARK    6  A    between atoms: C_9  and  C_10
REMARK    7  A    between atoms: C_10  and  N_11
REMARK    8  A    between atoms: C_12  and  C_14
REMARK                            x       y       z     vdW  Elec       q    Type
REMARK                         _______ _______ _______ _____ _____    ______ ____
ROOT
ATOM      1  C   UNL     1       6.577   6.146  18.120  0.00  0.00    +0.000 C 
ENDROOT
BRANCH   1   2
ATOM      2  N   UNL     1       5.255   5.746  18.560  0.00  0.00    +0.000 N 
ATOM      3  C   UNL     1       4.983   4.456  18.937  0.00  0.00    +0.000 C 
ATOM      4  O   UNL     1       5.842   3.573  18.961  0.00  0.00    +0.000 OA
ATOM      5  H   UNL     1       4.486   6.381  18.393  0.00  0.00    +0.000 HD
BRANCH   3   6
ATOM      6  C   UNL     1       3.596   4.138  19.374  0.00  0.00    +0.000 A 
ATOM      7  C   UNL     1       2.940   5.149  20.103  0.00  0.00    +0.000 A 
ATOM      8  C   UNL     1       1.647   4.961  20.587  0.00  0.00    +0.000 A 
ATOM      9  C   UNL     1       0.989   3.758  20.351  0.00  0.00    +0.000 A 
ATOM     10  C   UNL     1       1.623   2.748  19.627  0.00  0.00    +0.000 A 
ATOM     11  C   UNL     1       2.924   2.929  19.138  0.00  0.00    +0.000 A 
ATOM     12 BR   UNL     1       3.677   1.433  18.235  0.00  0.00    +0.000 Br
ENDBRANCH   3   6
ENDBRANCH   1   2
BRANCH   1  13
ATOM     13  C   UNL     1       6.563   6.737  16.709  0.00  0.00    +0.000 C 
BRANCH  13  14
ATOM     14  O   UNL     1       7.496   6.016  15.903  0.00  0.00    +0.000 OA
BRANCH  14  18
ATOM     15  C   UNL     1       6.072   3.582  12.808  0.00  0.00    +0.000 A 
ATOM     16  C   UNL     1       7.242   4.345  12.687  0.00  0.00    +0.000 A 
ATOM     17  C   UNL     1       7.681   5.140  13.750  0.00  0.00    +0.000 A 
ATOM     18  C   UNL     1       6.951   5.218  14.935  0.00  0.00    +0.000 A 
ATOM     19  C   UNL     1       5.782   4.469  15.061  0.00  0.00    +0.000 A 
ATOM     20  C   UNL     1       5.346   3.661  14.003  0.00  0.00    +0.000 A 
BRANCH  15  21
ATOM     21  C   UNL     1       5.582   2.688  11.694  0.00  0.00    +0.000 C 
BRANCH  21  23
ATOM     22  C   UNL     1       6.141   0.234  11.328  0.00  0.00    +0.000 C 
ATOM     23  C   UNL     1       6.611   1.674  11.182  0.00  0.00    +0.000 C 
ENDBRANCH  21  23
ENDBRANCH  15  21
ENDBRANCH  14  18
ENDBRANCH  13  14
ENDBRANCH   1  13
TORSDOF 7
ENDMDL
MODEL 5
REMARK VINA RESULT:      -7.0      1.333      1.803
REMARK  Name = 
REMARK  8 active torsions:
REMARK  status: ('A' for Active; 'I' for Inactive)
REMARK    1  A    between atoms: C_1  and  C_2
REMARK    2  A    between atoms: C_2  and  C_3
REMARK    3  A    between atoms: C_3  and  C_4
REMARK    4  A    between atoms: C_7  and  O_8
REMARK    5  A    between atoms: O_8  and  C_9
REMARK    6  A    between atoms: C_9  and  C_10
REMARK    7  A    between atoms: C_10  and  N_11
REMARK    8  A    between atoms: C_12  and  C_14
REMARK                            x       y       z     vdW  Elec       q    Type
REMARK                         _______ _______ _______ _____ _____    ______ ____
ROOT
ATOM      1  C   UNL     1       6.655   5.994  18.450  0.00  0.00    +0.000 C 
ENDROOT
BRANCH   1   2
ATOM      2  N   UNL     1       5.542   5.082  18.635  0.00  0.00    +0.000 N 
ATOM      3  C   UNL     1       4.287   5.375  18.166  0.00  0.00    +0.000 C 
ATOM      4  O   UNL     1       4.035   6.402  17.535  0.00  0.00    +0.000 OA
ATOM      5  H   UNL     1       5.657   4.319  19.289  0.00  0.00    +0.000 HD
BRANCH   3   6
ATOM      6  C   UNL     1       3.208   4.379  18.404  0.00  0.00    +0.000 A 
ATOM      7  C   UNL     1       3.237   3.240  17.575  0.00  0.00    +0.000 A 
ATOM      8  C   UNL     1       2.264   2.247  17.685  0.00  0.00    +0.000 A 
ATOM      9  C   UNL     1       1.247   2.378  18.624  0.00  0.00    +0.000 A 
ATOM     10  C   UNL     1       1.206   3.497  19.455  0.00  0.00    +0.000 A 
ATOM     11  C   UNL     1       2.179   4.501  19.350  0.00  0.00    +0.000 A 
ATOM     12 BR   UNL     1       1.943   5.997  20.503  0.00  0.00    +0.000 Br
ENDBRANCH   3   6
ENDBRANCH   1   2
BRANCH   1  13
ATOM     13  C   UNL     1       6.946   6.257  16.971  0.00  0.00    +0.000 C 
BRANCH  13  14
ATOM     14  O   UNL     1       7.607   5.115  16.425  0.00  0.00    +0.000 OA
BRANCH  14  18
ATOM     15  C   UNL     1       5.865   3.629  12.921  0.00  0.00    +0.000 A 
ATOM     16  C   UNL     1       5.387   3.298  14.196  0.00  0.00    +0.000 A 
ATOM     17  C   UNL     1       5.999   3.824  15.339  0.00  0.00    +0.000 A 
ATOM     18  C   UNL     1       7.113   4.655  15.236  0.00  0.00    +0.000 A 
ATOM     19  C   UNL     1       7.601   4.981  13.971  0.00  0.00    +0.000 A 
ATOM     20  C   UNL     1       6.983   4.468  12.825  0.00  0.00    +0.000 A 
BRANCH  15  21
ATOM     21  C   UNL     1       5.213   3.106  11.663  0.00  0.00    +0.000 C 
BRANCH  21  23
ATOM     22  C   UNL     1       3.325   3.411   9.987  0.00  0.00    +0.000 C 
ATOM     23  C   UNL     1       3.783   3.604  11.425  0.00  0.00    +0.000 C 
ENDBRANCH  21  23
ENDBRANCH  15  21
ENDBRANCH  14  18
ENDBRANCH  13  14
ENDBRANCH   1  13
TORSDOF 7
ENDMDL
MODEL 6
REMARK VINA RESULT:      -7.0      0.764      1.301
REMARK  Name = 
REMARK  8 active torsions:
REMARK  status: ('A' for Active; 'I' for Inactive)
REMARK    1  A    between atoms: C_1  and  C_2
REMARK    2  A    between atoms: C_2  and  C_3
REMARK    3  A    between atoms: C_3  and  C_4
REMARK    4  A    between atoms: C_7  and  O_8
REMARK    5  A    between atoms: O_8  and  C_9
REMARK    6  A    between atoms: C_9  and  C_10
REMARK    7  A    between atoms: C_10  and  N_11
REMARK    8  A    between atoms: C_12  and  C_14
REMARK                            x       y       z     vdW  Elec       q    Type
REMARK                         _______ _______ _______ _____ _____    ______ ____
ROOT
ATOM      1  C   UNL     1       5.901   5.870  17.471  0.00  0.00    +0.000 C 
ENDROOT
BRANCH   1   2
ATOM      2  N   UNL     1       4.981   4.999  18.175  0.00  0.00    +0.000 N 
ATOM      3  C   UNL     1       3.772   5.453  18.636  0.00  0.00    +0.000 C 
ATOM      4  O   UNL     1       3.379   6.607  18.451  0.00  0.00    +0.000 OA
ATOM      5  H   UNL     1       5.326   4.105  18.500  0.00  0.00    +0.000 HD
BRANCH   3   6
ATOM      6  C   UNL     1       2.893   4.487  19.349  0.00  0.00    +0.000 A 
ATOM      7  C   UNL     1       2.589   4.811  20.685  0.00  0.00    +0.000 A 
ATOM      8  C   UNL     1       1.795   3.971  21.465  0.00  0.00    +0.000 A 
ATOM      9  C   UNL     1       1.293   2.794  20.921  0.00  0.00    +0.000 A 
ATOM     10  C   UNL     1       1.581   2.460  19.597  0.00  0.00    +0.000 A 
ATOM     11  C   UNL     1       2.380   3.299  18.807  0.00  0.00    +0.000 A 
ATOM     12 BR   UNL     1       2.741   2.669  17.047  0.00  0.00    +0.000 Br
ENDBRANCH   3   6
ENDBRANCH   1   2
BRANCH   1  13
ATOM     13  C   UNL     1       7.213   5.163  17.122  0.00  0.00    +0.000 C 
BRANCH  13  14
ATOM     14  O   UNL     1       7.621   5.577  15.817  0.00  0.00    +0.000 OA
BRANCH  14  18
ATOM     15  C   UNL     1       5.925   3.708  12.477  0.00  0.00    +0.000 A 
ATOM     16  C   UNL     1       7.105   4.461  12.399  0.00  0.00    +0.000 A 
ATOM     17  C   UNL     1       7.637   5.063  13.544  0.00  0.00    +0.000 A 
ATOM     18  C   UNL     1       6.990   4.957  14.774  0.00  0.00    +0.000 A 
ATOM     19  C   UNL     1       5.811   4.218  14.859  0.00  0.00    +0.000 A 
ATOM     20  C   UNL     1       5.283   3.603  13.718  0.00  0.00    +0.000 A 
BRANCH  15  21
ATOM     21  C   UNL     1       5.336   3.017  11.270  0.00  0.00    +0.000 C 
BRANCH  21  23
ATOM     22  C   UNL     1       3.287   3.933  10.074  0.00  0.00    +0.000 C 
ATOM     23  C   UNL     1       3.805   3.045  11.196  0.00  0.00    +0.000 C 
ENDBRANCH  21  23
ENDBRANCH  15  21
ENDBRANCH  14  18
ENDBRANCH  13  14
ENDBRANCH   1  13
TORSDOF 7
ENDMDL
MODEL 7
REMARK VINA RESULT:      -6.9      1.310      1.967
REMARK  Name = 
REMARK  8 active torsions:
REMARK  status: ('A' for Active; 'I' for Inactive)
REMARK    1  A    between atoms: C_1  and  C_2
REMARK    2  A    between atoms: C_2  and  C_3
REMARK    3  A    between atoms: C_3  and  C_4
REMARK    4  A    between atoms: C_7  and  O_8
REMARK    5  A    between atoms: O_8  and  C_9
REMARK    6  A    between atoms: C_9  and  C_10
REMARK    7  A    between atoms: C_10  and  N_11
REMARK    8  A    between atoms: C_12  and  C_14
REMARK                            x       y       z     vdW  Elec       q    Type
REMARK                         _______ _______ _______ _____ _____    ______ ____
ROOT
ATOM      1  C   UNL     1       6.571   5.673  18.070  0.00  0.00    +0.000 C 
ENDROOT
BRANCH   1   2
ATOM      2  N   UNL     1       5.456   4.942  18.640  0.00  0.00    +0.000 N 
ATOM      3  C   UNL     1       4.167   5.393  18.523  0.00  0.00    +0.000 C 
ATOM      4  O   UNL     1       3.872   6.417  17.905  0.00  0.00    +0.000 OA
ATOM      5  H   UNL     1       5.660   4.200  19.297  0.00  0.00    +0.000 HD
BRANCH   3   6
ATOM      6  C   UNL     1       3.087   4.576  19.141  0.00  0.00    +0.000 A 
ATOM      7  C   UNL     1       3.089   3.208  18.803  0.00  0.00    +0.000 A 
ATOM      8  C   UNL     1       2.114   2.344  19.299  0.00  0.00    +0.000 A 
ATOM      9  C   UNL     1       1.120   2.835  20.139  0.00  0.00    +0.000 A 
ATOM     10  C   UNL     1       1.105   4.186  20.486  0.00  0.00    +0.000 A 
ATOM     11  C   UNL     1       2.082   5.061  19.991  0.00  0.00    +0.000 A 
ATOM     12 BR   UNL     1       1.882   6.885  20.497  0.00  0.00    +0.000 Br
ENDBRANCH   3   6
ENDBRANCH   1   2
BRANCH   1  13
ATOM     13  C   UNL     1       7.498   4.770  17.254  0.00  0.00    +0.000 C 
BRANCH  13  14
ATOM     14  O   UNL     1       7.679   5.350  15.962  0.00  0.00    +0.000 OA
BRANCH  14  18
ATOM     15  C   UNL     1       5.648   3.648  12.720  0.00  0.00    +0.000 A 
ATOM     16  C   UNL     1       6.902   4.262  12.584  0.00  0.00    +0.000 A 
ATOM     17  C   UNL     1       7.544   4.812  13.697  0.00  0.00    +0.000 A 
ATOM     18  C   UNL     1       6.940   4.795  14.953  0.00  0.00    +0.000 A 
ATOM     19  C   UNL     1       5.689   4.195  15.096  0.00  0.00    +0.000 A 
ATOM     20  C   UNL     1       5.049   3.631  13.986  0.00  0.00    +0.000 A 
BRANCH  15  21
ATOM     21  C   UNL     1       4.936   3.016  11.548  0.00  0.00    +0.000 C 
BRANCH  21  23
ATOM     22  C   UNL     1       2.937   3.135   9.981  0.00  0.00    +0.000 C 
ATOM     23  C   UNL     1       3.904   3.915  10.860  0.00  0.00    +0.000 C 
ENDBRANCH  21  23
ENDBRANCH  15  21
ENDBRANCH  14  18
ENDBRANCH  13  14
ENDBRANCH   1  13
TORSDOF 7
ENDMDL
MODEL 8
REMARK VINA RESULT:      -6.8      1.558      1.808
REMARK  Name = 
REMARK  8 active torsions:
REMARK  status: ('A' for Active; 'I' for Inactive)
REMARK    1  A    between atoms: C_1  and  C_2
REMARK    2  A    between atoms: C_2  and  C_3
REMARK    3  A    between atoms: C_3  and  C_4
REMARK    4  A    between atoms: C_7  and  O_8
REMARK    5  A    between atoms: O_8  and  C_9
REMARK    6  A    between atoms: C_9  and  C_10
REMARK    7  A    between atoms: C_10  and  N_11
REMARK    8  A    between atoms: C_12  and  C_14
REMARK                            x       y       z     vdW  Elec       q    Type
REMARK                         _______ _______ _______ _____ _____    ______ ____
ROOT
ATOM      1  C   UNL     1       6.892   4.299  17.262  0.00  0.00    +0.000 C 
ENDROOT
BRANCH   1   2
ATOM      2  N   UNL     1       5.585   4.100  17.857  0.00  0.00    +0.000 N 
ATOM      3  C   UNL     1       5.303   4.523  19.131  0.00  0.00    +0.000 C 
ATOM      4  O   UNL     1       6.122   5.123  19.830  0.00  0.00    +0.000 OA
ATOM      5  H   UNL     1       4.944   3.467  17.397  0.00  0.00    +0.000 HD
BRANCH   3   6
ATOM      6  C   UNL     1       3.934   4.275  19.658  0.00  0.00    +0.000 A 
ATOM      7  C   UNL     1       3.738   3.029  20.283  0.00  0.00    +0.000 A 
ATOM      8  C   UNL     1       2.493   2.669  20.796  0.00  0.00    +0.000 A 
ATOM      9  C   UNL     1       1.423   3.551  20.689  0.00  0.00    +0.000 A 
ATOM     10  C   UNL     1       1.600   4.791  20.076  0.00  0.00    +0.000 A 
ATOM     11  C   UNL     1       2.849   5.159  19.557  0.00  0.00    +0.000 A 
ATOM     12 BR   UNL     1       2.911   6.851  18.687  0.00  0.00    +0.000 Br
ENDBRANCH   3   6
ENDBRANCH   1   2
BRANCH   1  13
ATOM     13  C   UNL     1       6.952   5.568  16.410  0.00  0.00    +0.000 C 
BRANCH  13  14
ATOM     14  O   UNL     1       7.663   5.277  15.206  0.00  0.00    +0.000 OA
BRANCH  14  18
ATOM     15  C   UNL     1       5.189   3.563  12.296  0.00  0.00    +0.000 A 
ATOM     16  C   UNL     1       4.729   3.879  13.582  0.00  0.00    +0.000 A 
ATOM     17  C   UNL     1       5.592   4.456  14.520  0.00  0.00    +0.000 A 
ATOM     18  C   UNL     1       6.930   4.695  14.209  0.00  0.00    +0.000 A 
ATOM     19  C   UNL     1       7.398   4.376  12.935  0.00  0.00    +0.000 A 
ATOM     20  C   UNL     1       6.533   3.811  11.989  0.00  0.00    +0.000 A 
BRANCH  15  21
ATOM     21  C   UNL     1       4.280   2.968  11.246  0.00  0.00    +0.000 C 
BRANCH  21  23
ATOM     22  C   UNL     1       2.588   4.036   9.678  0.00  0.00    +0.000 C 
ATOM     23  C   UNL     1       4.060   3.849  10.012  0.00  0.00    +0.000 C 
ENDBRANCH  21  23
ENDBRANCH  15  21
ENDBRANCH  14  18
ENDBRANCH  13  14
ENDBRANCH   1  13
TORSDOF 7
ENDMDL
MODEL 9
REMARK VINA RESULT:      -6.7      1.932      2.797
REMARK  Name = 
REMARK  8 active torsions:
REMARK  status: ('A' for Active; 'I' for Inactive)
REMARK    1  A    between atoms: C_1  and  C_2
REMARK    2  A    between atoms: C_2  and  C_3
REMARK    3  A    between atoms: C_3  and  C_4
REMARK    4  A    between atoms: C_7  and  O_8
REMARK    5  A    between atoms: O_8  and  C_9
REMARK    6  A    between atoms: C_9  and  C_10
REMARK    7  A    between atoms: C_10  and  N_11
REMARK    8  A    between atoms: C_12  and  C_14
REMARK                            x       y       z     vdW  Elec       q    Type
REMARK                         _______ _______ _______ _____ _____    ______ ____
ROOT
ATOM      1  C   UNL     1       6.981   5.497  19.795  0.00  0.00    +0.000 C 
ENDROOT
BRANCH   1   2
ATOM      2  N   UNL     1       5.978   4.521  19.415  0.00  0.00    +0.000 N 
ATOM      3  C   UNL     1       4.648   4.847  19.346  0.00  0.00    +0.000 C 
ATOM      4  O   UNL     1       4.229   5.985  19.565  0.00  0.00    +0.000 OA
ATOM      5  H   UNL     1       6.247   3.546  19.396  0.00  0.00    +0.000 HD
BRANCH   3   6
ATOM      6  C   UNL     1       3.692   3.779  18.947  0.00  0.00    +0.000 A 
ATOM      7  C   UNL     1       3.827   3.301  17.629  0.00  0.00    +0.000 A 
ATOM      8  C   UNL     1       2.974   2.318  17.130  0.00  0.00    +0.000 A 
ATOM      9  C   UNL     1       1.971   1.798  17.941  0.00  0.00    +0.000 A 
ATOM     10  C   UNL     1       1.825   2.258  19.250  0.00  0.00    +0.000 A 
ATOM     11  C   UNL     1       2.679   3.247  19.759  0.00  0.00    +0.000 A 
ATOM     12 BR   UNL     1       2.305   3.820  21.535  0.00  0.00    +0.000 Br
ENDBRANCH   3   6
ENDBRANCH   1   2
BRANCH   1  13
ATOM     13  C   UNL     1       7.949   5.806  18.651  0.00  0.00    +0.000 C 
BRANCH  13  14
ATOM     14  O   UNL     1       7.300   6.678  17.726  0.00  0.00    +0.000 OA
BRANCH  14  18
ATOM     15  C   UNL     1       5.715   4.623  14.441  0.00  0.00    +0.000 A 
ATOM     16  C   UNL     1       6.996   4.359  14.946  0.00  0.00    +0.000 A 
ATOM     17  C   UNL     1       7.481   5.068  16.050  0.00  0.00    +0.000 A 
ATOM     18  C   UNL     1       6.719   6.072  16.645  0.00  0.00    +0.000 A 
ATOM     19  C   UNL     1       5.448   6.348  16.144  0.00  0.00    +0.000 A 
ATOM     20  C   UNL     1       4.954   5.630  15.048  0.00  0.00    +0.000 A 
BRANCH  15  21
ATOM     21  C   UNL     1       5.144   3.857  13.271  0.00  0.00    +0.000 C 
BRANCH  21  23
ATOM     22  C   UNL     1       5.702   2.073  11.548  0.00  0.00    +0.000 C 
ATOM     23  C   UNL     1       6.186   3.310  12.290  0.00  0.00    +0.000 C 
ENDBRANCH  21  23
ENDBRANCH  15  21
ENDBRANCH  14  18
ENDBRANCH  13  14
ENDBRANCH   1  13
TORSDOF 7
ENDMDL
