MODEL 1
REMARK VINA RESULT:      -7.8      0.000      0.000
REMARK  Name = 
REMARK  18 active torsions:
REMARK  status: ('A' for Active; 'I' for Inactive)
REMARK    1  A    between atoms: C_1  and  O_2
REMARK    2  A    between atoms: O_2  and  C_3
REMARK    3  A    between atoms: C_3  and  C_5
REMARK    4  A    between atoms: C_8  and  O_9
REMARK    5  A    between atoms: O_9  and  C_10
REMARK    6  A    between atoms: C_12  and  C_13
REMARK    7  A    between atoms: C_13  and  O_14
REMARK    8  A    between atoms: C_15  and  O_16
REMARK    9  A    between atoms: C_17  and  O_18
REMARK   10  A    between atoms: O_18  and  C_19
REMARK   11  A    between atoms: C_19  and  C_20
REMARK   12  A    between atoms: C_20  and  O_22
REMARK   13  A    between atoms: O_22  and  C_23
REMARK   14  A    between atoms: C_23  and  C_24
REMARK   15  A    between atoms: C_23  and  C_25
REMARK   16  A    between atoms: C_23  and  C_26
REMARK   17  A    between atoms: C_27  and  O_28
REMARK   18  A    between atoms: C_29  and  N_30
REMARK                            x       y       z     vdW  Elec       q    Type
REMARK                         _______ _______ _______ _____ _____    ______ ____
ROOT
ATOM      1  C   UNL     1       2.471   4.884  18.763  0.00  0.00    +0.000 C 
ATOM      2  O   UNL     1       1.846   3.706  19.287  0.00  0.00    +0.000 OA
ATOM      3  C   UNL     1       2.695   2.875  20.087  0.00  0.00    +0.000 C 
ATOM      4  C   UNL     1       4.069   2.605  19.399  0.00  0.00    +0.000 C 
ATOM      5  C   UNL     1       4.765   3.777  18.585  0.00  0.00    +0.000 C 
ATOM      6  C   UNL     1       3.641   4.494  17.829  0.00  0.00    +0.000 C 
ENDROOT
BRANCH   4   7
ATOM      7  O   UNL     1       4.951   1.751  20.120  0.00  0.00    +0.000 OA
ATOM      8  H   UNL     1       5.220   1.002  19.575  0.00  0.00    +0.000 HD
ENDBRANCH   4   7
BRANCH   6   9
ATOM      9  O   UNL     1       3.159   3.619  16.784  0.00  0.00    +0.000 OA
ATOM     10  H   UNL     1       3.037   2.731  17.174  0.00  0.00    +0.000 HD
ENDBRANCH   6   9
BRANCH   1  11
ATOM     11  O   UNL     1       2.848   5.828  19.765  0.00  0.00    +0.000 OA
BRANCH  11  15
ATOM     12  C   UNL     1       0.683   9.324  20.639  0.00  0.00    +0.000 A 
ATOM     13  C   UNL     1       0.856   8.301  21.574  0.00  0.00    +0.000 A 
ATOM     14  C   UNL     1       1.526   7.115  21.202  0.00  0.00    +0.000 A 
ATOM     15  C   UNL     1       2.103   6.970  19.927  0.00  0.00    +0.000 A 
ATOM     16  C   UNL     1       1.943   8.036  19.045  0.00  0.00    +0.000 A 
ATOM     17  C   UNL     1       1.148   9.152  19.338  0.00  0.00    +0.000 A 
BRANCH  16  18
ATOM     18  N   UNL     1       2.849   8.270  17.947  0.00  0.00    +0.000 N 
ATOM     19  O   UNL     1       3.974   7.769  18.048  0.00  0.00    +0.000 OA
ATOM     20  O   UNL     1       2.435   8.986  17.016  0.00  0.00    +0.000 OA
ENDBRANCH  16  18
BRANCH  12  21
ATOM     21  C   UNL     1       0.221  10.698  20.962  0.00  0.00    +0.000 C 
ATOM     22  O   UNL     1       0.083  11.561  20.105  0.00  0.00    +0.000 OA
BRANCH  21  24
ATOM     23  C   UNL     1      -1.021  11.403  22.798  0.00  0.00    +0.000 C 
ATOM     24  O   UNL     1       0.225  10.897  22.301  0.00  0.00    +0.000 OA
ENDBRANCH  21  24
ENDBRANCH  12  21
ENDBRANCH  11  15
ENDBRANCH   1  11
BRANCH   3  25
ATOM     25  C   UNL     1       2.624   3.279  21.572  0.00  0.00    +0.000 C 
BRANCH  25  26
ATOM     26  O   UNL     1       1.453   2.742  22.213  0.00  0.00    +0.000 OA
ATOM     27  H   UNL     1       1.725   2.288  23.031  0.00  0.00    +0.000 HD
ENDBRANCH  25  26
ENDBRANCH   3  25
BRANCH   5  28
ATOM     28  O   UNL     1       5.611   4.700  19.322  0.00  0.00    +0.000 OA
BRANCH  28  29
ATOM     29  C   UNL     1       6.512   5.520  18.516  0.00  0.00    +0.000 C 
BRANCH  29  30
ATOM     30  C   UNL     1       7.556   4.916  17.502  0.00  0.00    +0.000 C 
ATOM     31  O   UNL     1       8.345   4.054  17.830  0.00  0.00    +0.000 OA
BRANCH  30  32
ATOM     32  O   UNL     1       7.532   5.516  16.246  0.00  0.00    +0.000 OA
BRANCH  32  33
ATOM     33  C   UNL     1       6.622   5.001  15.196  0.00  0.00    +0.000 C 
ATOM     34  C   UNL     1       6.117   3.555  15.355  0.00  0.00    +0.000 C 
ATOM     35  C   UNL     1       5.336   5.870  15.096  0.00  0.00    +0.000 C 
ATOM     36  C   UNL     1       7.396   5.182  13.890  0.00  0.00    +0.000 C 
ENDBRANCH  32  33
ENDBRANCH  30  32
ENDBRANCH  29  30
ENDBRANCH  28  29
ENDBRANCH   5  28
TORSDOF 14
ENDMDL
MODEL 2
REMARK VINA RESULT:      -7.7      0.555      1.218
REMARK  Name = 
REMARK  18 active torsions:
REMARK  status: ('A' for Active; 'I' for Inactive)
REMARK    1  A    between atoms: C_1  and  O_2
REMARK    2  A    between atoms: O_2  and  C_3
REMARK    3  A    between atoms: C_3  and  C_5
REMARK    4  A    between atoms: C_8  and  O_9
REMARK    5  A    between atoms: O_9  and  C_10
REMARK    6  A    between atoms: C_12  and  C_13
REMARK    7  A    between atoms: C_13  and  O_14
REMARK    8  A    between atoms: C_15  and  O_16
REMARK    9  A    between atoms: C_17  and  O_18
REMARK   10  A    between atoms: O_18  and  C_19
REMARK   11  A    between atoms: C_19  and  C_20
REMARK   12  A    between atoms: C_20  and  O_22
REMARK   13  A    between atoms: O_22  and  C_23
REMARK   14  A    between atoms: C_23  and  C_24
REMARK   15  A    between atoms: C_23  and  C_25
REMARK   16  A    between atoms: C_23  and  C_26
REMARK   17  A    between atoms: C_27  and  O_28
REMARK   18  A    between atoms: C_29  and  N_30
REMARK                            x       y       z     vdW  Elec       q    Type
REMARK                         _______ _______ _______ _____ _____    ______ ____
ROOT
ATOM      1  C   UNL     1       2.425   5.087  18.642  0.00  0.00    +0.000 C 
ATOM      2  O   UNL     1       1.756   3.930  19.157  0.00  0.00    +0.000 OA
ATOM      3  C   UNL     1       2.564   3.078  19.978  0.00  0.00    +0.000 C 
ATOM      4  C   UNL     1       3.943   2.766  19.320  0.00  0.00    +0.000 C 
ATOM      5  C   UNL     1       4.690   3.914  18.516  0.00  0.00    +0.000 C 
ATOM      6  C   UNL     1       3.603   4.660  17.734  0.00  0.00    +0.000 C 
ENDROOT
BRANCH   4   7
ATOM      7  O   UNL     1       4.786   1.890  20.062  0.00  0.00    +0.000 OA
ATOM      8  H   UNL     1       4.661   0.977  19.777  0.00  0.00    +0.000 HD
ENDBRANCH   4   7
BRANCH   6   9
ATOM      9  O   UNL     1       3.117   3.794  16.682  0.00  0.00    +0.000 OA
ATOM     10  H   UNL     1       2.173   4.003  16.539  0.00  0.00    +0.000 HD
ENDBRANCH   6   9
BRANCH   1  11
ATOM     11  O   UNL     1       2.808   6.024  19.648  0.00  0.00    +0.000 OA
BRANCH  11  15
ATOM     12  C   UNL     1       0.548   9.415  20.682  0.00  0.00    +0.000 A 
ATOM     13  C   UNL     1       0.769   8.365  21.576  0.00  0.00    +0.000 A 
ATOM     14  C   UNL     1       1.470   7.215  21.151  0.00  0.00    +0.000 A 
ATOM     15  C   UNL     1       2.030   7.135  19.864  0.00  0.00    +0.000 A 
ATOM     16  C   UNL     1       1.823   8.226  19.023  0.00  0.00    +0.000 A 
ATOM     17  C   UNL     1       0.998   9.306  19.369  0.00  0.00    +0.000 A 
BRANCH  16  18
ATOM     18  N   UNL     1       2.703   8.530  17.921  0.00  0.00    +0.000 N 
ATOM     19  O   UNL     1       2.273   9.327  17.080  0.00  0.00    +0.000 OA
ATOM     20  O   UNL     1       3.796   7.936  17.892  0.00  0.00    +0.000 OA
ENDBRANCH  16  18
BRANCH  12  21
ATOM     21  C   UNL     1       0.049  10.761  21.062  0.00  0.00    +0.000 C 
ATOM     22  O   UNL     1       0.334  11.289  22.129  0.00  0.00    +0.000 OA
BRANCH  21  24
ATOM     23  C   UNL     1      -1.095  12.591  20.192  0.00  0.00    +0.000 C 
ATOM     24  O   UNL     1      -0.917  11.168  20.204  0.00  0.00    +0.000 OA
ENDBRANCH  21  24
ENDBRANCH  12  21
ENDBRANCH  11  15
ENDBRANCH   1  11
BRANCH   3  25
ATOM     25  C   UNL     1       2.473   3.490  21.459  0.00  0.00    +0.000 C 
BRANCH  25  26
ATOM     26  O   UNL     1       2.631   2.360  22.335  0.00  0.00    +0.000 OA
ATOM     27  H   UNL     1       3.572   2.281  22.578  0.00  0.00    +0.000 HD
ENDBRANCH  25  26
ENDBRANCH   3  25
BRANCH   5  28
ATOM     28  O   UNL     1       5.546   4.816  19.267  0.00  0.00    +0.000 OA
BRANCH  28  29
ATOM     29  C   UNL     1       6.465   5.631  18.475  0.00  0.00    +0.000 C 
BRANCH  29  30
ATOM     30  C   UNL     1       7.469   5.024  17.424  0.00  0.00    +0.000 C 
ATOM     31  O   UNL     1       8.230   4.122  17.709  0.00  0.00    +0.000 OA
BRANCH  30  32
ATOM     32  O   UNL     1       7.450   5.670  16.190  0.00  0.00    +0.000 OA
BRANCH  32  33
ATOM     33  C   UNL     1       6.670   5.100  15.068  0.00  0.00    +0.000 C 
ATOM     34  C   UNL     1       7.366   5.030  13.696  0.00  0.00    +0.000 C 
ATOM     35  C   UNL     1       6.233   3.640  15.375  0.00  0.00    +0.000 C 
ATOM     36  C   UNL     1       5.401   5.951  15.007  0.00  0.00    +0.000 C 
ENDBRANCH  32  33
ENDBRANCH  30  32
ENDBRANCH  29  30
ENDBRANCH  28  29
ENDBRANCH   5  28
TORSDOF 14
ENDMDL
MODEL 3
REMARK VINA RESULT:      -7.3      0.907      1.467
REMARK  Name = 
REMARK  18 active torsions:
REMARK  status: ('A' for Active; 'I' for Inactive)
REMARK    1  A    between atoms: C_1  and  O_2
REMARK    2  A    between atoms: O_2  and  C_3
REMARK    3  A    between atoms: C_3  and  C_5
REMARK    4  A    between atoms: C_8  and  O_9
REMARK    5  A    between atoms: O_9  and  C_10
REMARK    6  A    between atoms: C_12  and  C_13
REMARK    7  A    between atoms: C_13  and  O_14
REMARK    8  A    between atoms: C_15  and  O_16
REMARK    9  A    between atoms: C_17  and  O_18
REMARK   10  A    between atoms: O_18  and  C_19
REMARK   11  A    between atoms: C_19  and  C_20
REMARK   12  A    between atoms: C_20  and  O_22
REMARK   13  A    between atoms: O_22  and  C_23
REMARK   14  A    between atoms: C_23  and  C_24
REMARK   15  A    between atoms: C_23  and  C_25
REMARK   16  A    between atoms: C_23  and  C_26
REMARK   17  A    between atoms: C_27  and  O_28
REMARK   18  A    between atoms: C_29  and  N_30
REMARK                            x       y       z     vdW  Elec       q    Type
REMARK                         _______ _______ _______ _____ _____    ______ ____
ROOT
ATOM      1  C   UNL     1       2.406   5.577  18.469  0.00  0.00    +0.000 C 
ATOM      2  O   UNL     1       1.684   4.500  19.078  0.00  0.00    +0.000 OA
ATOM      3  C   UNL     1       2.449   3.691  19.979  0.00  0.00    +0.000 C 
ATOM      4  C   UNL     1       3.818   3.263  19.365  0.00  0.00    +0.000 C 
ATOM      5  C   UNL     1       4.619   4.301  18.470  0.00  0.00    +0.000 C 
ATOM      6  C   UNL     1       3.570   5.020  17.615  0.00  0.00    +0.000 C 
ENDROOT
BRANCH   4   7
ATOM      7  O   UNL     1       4.616   2.421  20.191  0.00  0.00    +0.000 OA
ATOM      8  H   UNL     1       5.226   1.899  19.655  0.00  0.00    +0.000 HD
ENDBRANCH   4   7
BRANCH   6   9
ATOM      9  O   UNL     1       3.054   4.086  16.639  0.00  0.00    +0.000 OA
ATOM     10  H   UNL     1       2.130   4.341  16.445  0.00  0.00    +0.000 HD
ENDBRANCH   6   9
BRANCH   1  11
ATOM     11  O   UNL     1       2.824   6.582  19.392  0.00  0.00    +0.000 OA
BRANCH  11  15
ATOM     12  C   UNL     1       0.309   9.650  20.783  0.00  0.00    +0.000 A 
ATOM     13  C   UNL     1       0.698   8.581  21.593  0.00  0.00    +0.000 A 
ATOM     14  C   UNL     1       1.481   7.538  21.051  0.00  0.00    +0.000 A 
ATOM     15  C   UNL     1       1.954   7.591  19.728  0.00  0.00    +0.000 A 
ATOM     16  C   UNL     1       1.577   8.699  18.973  0.00  0.00    +0.000 A 
ATOM     17  C   UNL     1       0.672   9.663  19.440  0.00  0.00    +0.000 A 
BRANCH  16  18
ATOM     18  N   UNL     1       2.341   9.156  17.838  0.00  0.00    +0.000 N 
ATOM     19  O   UNL     1       2.444  10.380  17.704  0.00  0.00    +0.000 OA
ATOM     20  O   UNL     1       2.794   8.283  17.075  0.00  0.00    +0.000 OA
ENDBRANCH  16  18
BRANCH  12  21
ATOM     21  C   UNL     1      -0.298  10.911  21.279  0.00  0.00    +0.000 C 
ATOM     22  O   UNL     1      -0.211  11.265  22.448  0.00  0.00    +0.000 OA
BRANCH  21  24
ATOM     23  C   UNL     1      -1.981  12.465  20.868  0.00  0.00    +0.000 C 
ATOM     24  O   UNL     1      -1.125  11.439  20.346  0.00  0.00    +0.000 OA
ENDBRANCH  21  24
ENDBRANCH  12  21
ENDBRANCH  11  15
ENDBRANCH   1  11
BRANCH   3  25
ATOM     25  C   UNL     1       2.367   4.237  21.417  0.00  0.00    +0.000 C 
BRANCH  25  26
ATOM     26  O   UNL     1       2.347   3.175  22.387  0.00  0.00    +0.000 OA
ATOM     27  H   UNL     1       1.420   2.972  22.610  0.00  0.00    +0.000 HD
ENDBRANCH  25  26
ENDBRANCH   3  25
BRANCH   5  28
ATOM     28  O   UNL     1       5.509   5.228  19.147  0.00  0.00    +0.000 OA
BRANCH  28  29
ATOM     29  C   UNL     1       6.870   5.304  18.621  0.00  0.00    +0.000 C 
BRANCH  29  30
ATOM     30  C   UNL     1       7.240   6.059  17.290  0.00  0.00    +0.000 C 
ATOM     31  O   UNL     1       7.153   7.266  17.190  0.00  0.00    +0.000 OA
BRANCH  30  32
ATOM     32  O   UNL     1       7.592   5.212  16.242  0.00  0.00    +0.000 OA
BRANCH  32  33
ATOM     33  C   UNL     1       6.646   4.981  15.126  0.00  0.00    +0.000 C 
ATOM     34  C   UNL     1       5.470   5.966  14.990  0.00  0.00    +0.000 C 
ATOM     35  C   UNL     1       7.376   5.034  13.754  0.00  0.00    +0.000 C 
ATOM     36  C   UNL     1       6.154   3.548  15.325  0.00  0.00    +0.000 C 
ENDBRANCH  32  33
ENDBRANCH  30  32
ENDBRANCH  29  30
ENDBRANCH  28  29
ENDBRANCH   5  28
TORSDOF 14
ENDMDL
MODEL 4
REMARK VINA RESULT:      -7.3      0.659      1.012
REMARK  Name = 
REMARK  18 active torsions:
REMARK  status: ('A' for Active; 'I' for Inactive)
REMARK    1  A    between atoms: C_1  and  O_2
REMARK    2  A    between atoms: O_2  and  C_3
REMARK    3  A    between atoms: C_3  and  C_5
REMARK    4  A    between atoms: C_8  and  O_9
REMARK    5  A    between atoms: O_9  and  C_10
REMARK    6  A    between atoms: C_12  and  C_13
REMARK    7  A    between atoms: C_13  and  O_14
REMARK    8  A    between atoms: C_15  and  O_16
REMARK    9  A    between atoms: C_17  and  O_18
REMARK   10  A    between atoms: O_18  and  C_19
REMARK   11  A    between atoms: C_19  and  C_20
REMARK   12  A    between atoms: C_20  and  O_22
REMARK   13  A    between atoms: O_22  and  C_23
REMARK   14  A    between atoms: C_23  and  C_24
REMARK   15  A    between atoms: C_23  and  C_25
REMARK   16  A    between atoms: C_23  and  C_26
REMARK   17  A    between atoms: C_27  and  O_28
REMARK   18  A    between atoms: C_29  and  N_30
REMARK                            x       y       z     vdW  Elec       q    Type
REMARK                         _______ _______ _______ _____ _____    ______ ____
ROOT
ATOM      1  C   UNL     1       2.053   5.158  18.657  0.00  0.00    +0.000 C 
ATOM      2  O   UNL     1       1.412   4.024  19.252  0.00  0.00    +0.000 OA
ATOM      3  C   UNL     1       2.282   3.146  19.976  0.00  0.00    +0.000 C 
ATOM      4  C   UNL     1       3.563   2.788  19.162  0.00  0.00    +0.000 C 
ATOM      5  C   UNL     1       4.248   3.910  18.272  0.00  0.00    +0.000 C 
ATOM      6  C   UNL     1       3.102   4.692  17.620  0.00  0.00    +0.000 C 
ENDROOT
BRANCH   4   7
ATOM      7  O   UNL     1       4.457   1.885  19.805  0.00  0.00    +0.000 OA
ATOM      8  H   UNL     1       4.025   1.037  19.967  0.00  0.00    +0.000 HD
ENDBRANCH   4   7
BRANCH   6   9
ATOM      9  O   UNL     1       2.468   3.843  16.636  0.00  0.00    +0.000 OA
ATOM     10  H   UNL     1       1.512   3.819  16.837  0.00  0.00    +0.000 HD
ENDBRANCH   6   9
BRANCH   1  11
ATOM     11  O   UNL     1       2.583   6.082  19.608  0.00  0.00    +0.000 OA
BRANCH  11  15
ATOM     12  C   UNL     1       0.600   9.587  20.815  0.00  0.00    +0.000 A 
ATOM     13  C   UNL     1       0.791   8.504  21.677  0.00  0.00    +0.000 A 
ATOM     14  C   UNL     1       1.395   7.322  21.196  0.00  0.00    +0.000 A 
ATOM     15  C   UNL     1       1.891   7.236  19.882  0.00  0.00    +0.000 A 
ATOM     16  C   UNL     1       1.718   8.358  19.075  0.00  0.00    +0.000 A 
ATOM     17  C   UNL     1       0.981   9.480  19.481  0.00  0.00    +0.000 A 
BRANCH  16  18
ATOM     18  N   UNL     1       2.565   8.629  17.940  0.00  0.00    +0.000 N 
ATOM     19  O   UNL     1       3.643   8.025  17.904  0.00  0.00    +0.000 OA
ATOM     20  O   UNL     1       2.158   9.472  17.120  0.00  0.00    +0.000 OA
ENDBRANCH  16  18
BRANCH  12  21
ATOM     21  C   UNL     1       0.207  10.953  21.246  0.00  0.00    +0.000 C 
ATOM     22  O   UNL     1       0.370  11.936  20.535  0.00  0.00    +0.000 OA
BRANCH  21  24
ATOM     23  C   UNL     1      -1.123  11.914  22.895  0.00  0.00    +0.000 C 
ATOM     24  O   UNL     1      -0.100  10.964  22.565  0.00  0.00    +0.000 OA
ENDBRANCH  21  24
ENDBRANCH  12  21
ENDBRANCH  11  15
ENDBRANCH   1  11
BRANCH   3  25
ATOM     25  C   UNL     1       2.379   3.561  21.456  0.00  0.00    +0.000 C 
BRANCH  25  26
ATOM     26  O   UNL     1       2.714   2.445  22.300  0.00  0.00    +0.000 OA
ATOM     27  H   UNL     1       1.976   1.808  22.284  0.00  0.00    +0.000 HD
ENDBRANCH  25  26
ENDBRANCH   3  25
BRANCH   5  28
ATOM     28  O   UNL     1       5.216   4.783  18.914  0.00  0.00    +0.000 OA
BRANCH  28  29
ATOM     29  C   UNL     1       6.615   4.554  18.559  0.00  0.00    +0.000 C 
BRANCH  29  30
ATOM     30  C   UNL     1       7.323   5.259  17.342  0.00  0.00    +0.000 C 
ATOM     31  O   UNL     1       7.722   6.403  17.406  0.00  0.00    +0.000 OA
BRANCH  30  32
ATOM     32  O   UNL     1       7.371   4.478  16.190  0.00  0.00    +0.000 OA
BRANCH  32  33
ATOM     33  C   UNL     1       6.513   4.815  15.030  0.00  0.00    +0.000 C 
ATOM     34  C   UNL     1       5.459   5.918  15.236  0.00  0.00    +0.000 C 
ATOM     35  C   UNL     1       7.369   5.294  13.823  0.00  0.00    +0.000 C 
ATOM     36  C   UNL     1       5.865   3.490  14.630  0.00  0.00    +0.000 C 
ENDBRANCH  32  33
ENDBRANCH  30  32
ENDBRANCH  29  30
ENDBRANCH  28  29
ENDBRANCH   5  28
TORSDOF 14
ENDMDL
MODEL 5
REMARK VINA RESULT:      -6.9      1.924      3.912
REMARK  Name = 
REMARK  18 active torsions:
REMARK  status: ('A' for Active; 'I' for Inactive)
REMARK    1  A    between atoms: C_1  and  O_2
REMARK    2  A    between atoms: O_2  and  C_3
REMARK    3  A    between atoms: C_3  and  C_5
REMARK    4  A    between atoms: C_8  and  O_9
REMARK    5  A    between atoms: O_9  and  C_10
REMARK    6  A    between atoms: C_12  and  C_13
REMARK    7  A    between atoms: C_13  and  O_14
REMARK    8  A    between atoms: C_15  and  O_16
REMARK    9  A    between atoms: C_17  and  O_18
REMARK   10  A    between atoms: O_18  and  C_19
REMARK   11  A    between atoms: C_19  and  C_20
REMARK   12  A    between atoms: C_20  and  O_22
REMARK   13  A    between atoms: O_22  and  C_23
REMARK   14  A    between atoms: C_23  and  C_24
REMARK   15  A    between atoms: C_23  and  C_25
REMARK   16  A    between atoms: C_23  and  C_26
REMARK   17  A    between atoms: C_27  and  O_28
REMARK   18  A    between atoms: C_29  and  N_30
REMARK                            x       y       z     vdW  Elec       q    Type
REMARK                         _______ _______ _______ _____ _____    ______ ____
ROOT
ATOM      1  C   UNL     1       4.588   5.122  19.038  0.00  0.00    +0.000 C 
ATOM      2  O   UNL     1       5.853   5.619  19.488  0.00  0.00    +0.000 OA
ATOM      3  C   UNL     1       6.866   5.702  18.479  0.00  0.00    +0.000 C 
ATOM      4  C   UNL     1       6.967   4.391  17.640  0.00  0.00    +0.000 C 
ATOM      5  C   UNL     1       5.635   3.613  17.264  0.00  0.00    +0.000 C 
ATOM      6  C   UNL     1       4.742   3.677  18.507  0.00  0.00    +0.000 C 
ENDROOT
BRANCH   4   7
ATOM      7  O   UNL     1       7.982   4.387  16.641  0.00  0.00    +0.000 OA
ATOM      8  H   UNL     1       8.097   5.271  16.270  0.00  0.00    +0.000 HD
ENDBRANCH   4   7
BRANCH   6   9
ATOM      9  O   UNL     1       5.323   2.841  19.535  0.00  0.00    +0.000 OA
ATOM     10  H   UNL     1       5.461   3.398  20.326  0.00  0.00    +0.000 HD
ENDBRANCH   6   9
BRANCH   1  11
ATOM     11  O   UNL     1       3.928   5.987  18.113  0.00  0.00    +0.000 OA
BRANCH  11  15
ATOM     12  C   UNL     1       1.297   9.083  19.194  0.00  0.00    +0.000 A 
ATOM     13  C   UNL     1       2.087   9.144  18.043  0.00  0.00    +0.000 A 
ATOM     14  C   UNL     1       3.010   8.111  17.770  0.00  0.00    +0.000 A 
ATOM     15  C   UNL     1       3.095   6.970  18.589  0.00  0.00    +0.000 A 
ATOM     16  C   UNL     1       2.255   6.935  19.699  0.00  0.00    +0.000 A 
ATOM     17  C   UNL     1       1.448   8.018  20.076  0.00  0.00    +0.000 A 
BRANCH  16  18
ATOM     18  N   UNL     1       1.854   5.698  20.323  0.00  0.00    +0.000 N 
ATOM     19  O   UNL     1       1.119   4.960  19.657  0.00  0.00    +0.000 OA
ATOM     20  O   UNL     1       2.248   5.499  21.487  0.00  0.00    +0.000 OA
ENDBRANCH  16  18
BRANCH  12  21
ATOM     21  C   UNL     1       0.134   9.964  19.470  0.00  0.00    +0.000 C 
ATOM     22  O   UNL     1      -0.145  10.923  18.763  0.00  0.00    +0.000 OA
BRANCH  21  24
ATOM     23  C   UNL     1      -0.651  10.888  21.456  0.00  0.00    +0.000 C 
ATOM     24  O   UNL     1      -0.378   9.703  20.696  0.00  0.00    +0.000 OA
ENDBRANCH  21  24
ENDBRANCH  12  21
ENDBRANCH  11  15
ENDBRANCH   1  11
BRANCH   3  25
ATOM     25  C   UNL     1       6.846   7.079  17.789  0.00  0.00    +0.000 C 
BRANCH  25  26
ATOM     26  O   UNL     1       7.764   7.133  16.683  0.00  0.00    +0.000 OA
ATOM     27  H   UNL     1       7.773   8.040  16.327  0.00  0.00    +0.000 HD
ENDBRANCH  25  26
ENDBRANCH   3  25
BRANCH   5  28
ATOM     28  O   UNL     1       4.934   4.020  16.059  0.00  0.00    +0.000 OA
BRANCH  28  29
ATOM     29  C   UNL     1       5.607   5.022  15.236  0.00  0.00    +0.000 C 
BRANCH  29  30
ATOM     30  C   UNL     1       6.762   4.674  14.224  0.00  0.00    +0.000 C 
ATOM     31  O   UNL     1       7.678   5.439  14.006  0.00  0.00    +0.000 OA
BRANCH  30  32
ATOM     32  O   UNL     1       6.585   3.460  13.564  0.00  0.00    +0.000 OA
BRANCH  32  33
ATOM     33  C   UNL     1       6.363   3.439  12.100  0.00  0.00    +0.000 C 
ATOM     34  C   UNL     1       7.043   4.544  11.272  0.00  0.00    +0.000 C 
ATOM     35  C   UNL     1       6.863   2.103  11.479  0.00  0.00    +0.000 C 
ATOM     36  C   UNL     1       4.843   3.474  11.938  0.00  0.00    +0.000 C 
ENDBRANCH  32  33
ENDBRANCH  30  32
ENDBRANCH  29  30
ENDBRANCH  28  29
ENDBRANCH   5  28
TORSDOF 14
ENDMDL
MODEL 6
REMARK VINA RESULT:      -6.9      1.573      2.286
REMARK  Name = 
REMARK  18 active torsions:
REMARK  status: ('A' for Active; 'I' for Inactive)
REMARK    1  A    between atoms: C_1  and  O_2
REMARK    2  A    between atoms: O_2  and  C_3
REMARK    3  A    between atoms: C_3  and  C_5
REMARK    4  A    between atoms: C_8  and  O_9
REMARK    5  A    between atoms: O_9  and  C_10
REMARK    6  A    between atoms: C_12  and  C_13
REMARK    7  A    between atoms: C_13  and  O_14
REMARK    8  A    between atoms: C_15  and  O_16
REMARK    9  A    between atoms: C_17  and  O_18
REMARK   10  A    between atoms: O_18  and  C_19
REMARK   11  A    between atoms: C_19  and  C_20
REMARK   12  A    between atoms: C_20  and  O_22
REMARK   13  A    between atoms: O_22  and  C_23
REMARK   14  A    between atoms: C_23  and  C_24
REMARK   15  A    between atoms: C_23  and  C_25
REMARK   16  A    between atoms: C_23  and  C_26
REMARK   17  A    between atoms: C_27  and  O_28
REMARK   18  A    between atoms: C_29  and  N_30
REMARK                            x       y       z     vdW  Elec       q    Type
REMARK                         _______ _______ _______ _____ _____    ______ ____
ROOT
ATOM      1  C   UNL     1       2.518   5.532  18.438  0.00  0.00    +0.000 C 
ATOM      2  O   UNL     1       1.844   4.401  19.001  0.00  0.00    +0.000 OA
ATOM      3  C   UNL     1       2.607   3.655  19.956  0.00  0.00    +0.000 C 
ATOM      4  C   UNL     1       4.045   3.339  19.441  0.00  0.00    +0.000 C 
ATOM      5  C   UNL     1       4.820   4.439  18.599  0.00  0.00    +0.000 C 
ATOM      6  C   UNL     1       3.779   5.073  17.669  0.00  0.00    +0.000 C 
ENDROOT
BRANCH   4   7
ATOM      7  O   UNL     1       4.849   2.564  20.324  0.00  0.00    +0.000 OA
ATOM      8  H   UNL     1       5.304   3.133  20.958  0.00  0.00    +0.000 HD
ENDBRANCH   4   7
BRANCH   6   9
ATOM      9  O   UNL     1       3.408   4.101  16.664  0.00  0.00    +0.000 OA
ATOM     10  H   UNL     1       3.866   4.343  15.835  0.00  0.00    +0.000 HD
ENDBRANCH   6   9
BRANCH   1  11
ATOM     11  O   UNL     1       2.788   6.567  19.383  0.00  0.00    +0.000 OA
BRANCH  11  15
ATOM     12  C   UNL     1       0.761  10.168  18.602  0.00  0.00    +0.000 A 
ATOM     13  C   UNL     1       1.305   9.382  17.583  0.00  0.00    +0.000 A 
ATOM     14  C   UNL     1       2.042   8.222  17.907  0.00  0.00    +0.000 A 
ATOM     15  C   UNL     1       2.174   7.788  19.239  0.00  0.00    +0.000 A 
ATOM     16  C   UNL     1       1.576   8.580  20.216  0.00  0.00    +0.000 A 
ATOM     17  C   UNL     1       0.977   9.815  19.931  0.00  0.00    +0.000 A 
BRANCH  16  18
ATOM     18  N   UNL     1       1.185   8.055  21.501  0.00  0.00    +0.000 N 
ATOM     19  O   UNL     1       0.620   6.956  21.495  0.00  0.00    +0.000 OA
ATOM     20  O   UNL     1       1.414   8.767  22.496  0.00  0.00    +0.000 OA
ENDBRANCH  16  18
BRANCH  12  21
ATOM     21  C   UNL     1      -0.226  11.258  18.397  0.00  0.00    +0.000 C 
ATOM     22  O   UNL     1       0.069  12.440  18.516  0.00  0.00    +0.000 OA
BRANCH  21  24
ATOM     23  C   UNL     1      -2.444  11.714  17.863  0.00  0.00    +0.000 C 
ATOM     24  O   UNL     1      -1.480  10.753  18.315  0.00  0.00    +0.000 OA
ENDBRANCH  21  24
ENDBRANCH  12  21
ENDBRANCH  11  15
ENDBRANCH   1  11
BRANCH   3  25
ATOM     25  C   UNL     1       2.382   4.191  21.383  0.00  0.00    +0.000 C 
BRANCH  25  26
ATOM     26  O   UNL     1       2.380   3.131  22.354  0.00  0.00    +0.000 OA
ATOM     27  H   UNL     1       1.532   3.146  22.834  0.00  0.00    +0.000 HD
ENDBRANCH  25  26
ENDBRANCH   3  25
BRANCH   5  28
ATOM     28  O   UNL     1       5.584   5.435  19.331  0.00  0.00    +0.000 OA
BRANCH  28  29
ATOM     29  C   UNL     1       6.849   5.842  18.723  0.00  0.00    +0.000 C 
BRANCH  29  30
ATOM     30  C   UNL     1       7.492   5.100  17.491  0.00  0.00    +0.000 C 
ATOM     31  O   UNL     1       8.147   4.087  17.621  0.00  0.00    +0.000 OA
BRANCH  30  32
ATOM     32  O   UNL     1       7.302   5.757  16.278  0.00  0.00    +0.000 OA
BRANCH  32  33
ATOM     33  C   UNL     1       6.678   5.045  15.139  0.00  0.00    +0.000 C 
ATOM     34  C   UNL     1       6.271   3.578  15.369  0.00  0.00    +0.000 C 
ATOM     35  C   UNL     1       5.375   5.759  14.680  0.00  0.00    +0.000 C 
ATOM     36  C   UNL     1       7.691   5.172  14.001  0.00  0.00    +0.000 C 
ENDBRANCH  32  33
ENDBRANCH  30  32
ENDBRANCH  29  30
ENDBRANCH  28  29
ENDBRANCH   5  28
TORSDOF 14
ENDMDL
MODEL 7
REMARK VINA RESULT:      -6.9      0.983      1.365
REMARK  Name = 
REMARK  18 active torsions:
REMARK  status: ('A' for Active; 'I' for Inactive)
REMARK    1  A    between atoms: C_1  and  O_2
REMARK    2  A    between atoms: O_2  and  C_3
REMARK    3  A    between atoms: C_3  and  C_5
REMARK    4  A    between atoms: C_8  and  O_9
REMARK    5  A    between atoms: O_9  and  C_10
REMARK    6  A    between atoms: C_12  and  C_13
REMARK    7  A    between atoms: C_13  and  O_14
REMARK    8  A    between atoms: C_15  and  O_16
REMARK    9  A    between atoms: C_17  and  O_18
REMARK   10  A    between atoms: O_18  and  C_19
REMARK   11  A    between atoms: C_19  and  C_20
REMARK   12  A    between atoms: C_20  and  O_22
REMARK   13  A    between atoms: O_22  and  C_23
REMARK   14  A    between atoms: C_23  and  C_24
REMARK   15  A    between atoms: C_23  and  C_25
REMARK   16  A    between atoms: C_23  and  C_26
REMARK   17  A    between atoms: C_27  and  O_28
REMARK   18  A    between atoms: C_29  and  N_30
REMARK                            x       y       z     vdW  Elec       q    Type
REMARK                         _______ _______ _______ _____ _____    ______ ____
ROOT
ATOM      1  C   UNL     1       1.974   4.929  18.372  0.00  0.00    +0.000 C 
ATOM      2  O   UNL     1       1.071   3.933  18.865  0.00  0.00    +0.000 OA
ATOM      3  C   UNL     1       1.675   2.913  19.669  0.00  0.00    +0.000 C 
ATOM      4  C   UNL     1       2.958   2.326  19.005  0.00  0.00    +0.000 C 
ATOM      5  C   UNL     1       3.936   3.301  18.222  0.00  0.00    +0.000 C 
ATOM      6  C   UNL     1       3.036   4.277  17.456  0.00  0.00    +0.000 C 
ENDROOT
BRANCH   4   7
ATOM      7  O   UNL     1       3.591   1.276  19.730  0.00  0.00    +0.000 OA
ATOM      8  H   UNL     1       3.594   0.460  19.214  0.00  0.00    +0.000 HD
ENDBRANCH   4   7
BRANCH   6   9
ATOM      9  O   UNL     1       2.381   3.555  16.388  0.00  0.00    +0.000 OA
ATOM     10  H   UNL     1       2.627   2.613  16.472  0.00  0.00    +0.000 HD
ENDBRANCH   6   9
BRANCH   1  11
ATOM     11  O   UNL     1       2.546   5.743  19.395  0.00  0.00    +0.000 OA
BRANCH  11  15
ATOM     12  C   UNL     1       0.789   9.285  20.828  0.00  0.00    +0.000 A 
ATOM     13  C   UNL     1       0.929   8.146  21.625  0.00  0.00    +0.000 A 
ATOM     14  C   UNL     1       1.455   6.960  21.070  0.00  0.00    +0.000 A 
ATOM     15  C   UNL     1       1.926   6.919  19.745  0.00  0.00    +0.000 A 
ATOM     16  C   UNL     1       1.807   8.092  19.003  0.00  0.00    +0.000 A 
ATOM     17  C   UNL     1       1.144   9.230  19.483  0.00  0.00    +0.000 A 
BRANCH  16  18
ATOM     18  N   UNL     1       2.653   8.377  17.870  0.00  0.00    +0.000 N 
ATOM     19  O   UNL     1       3.718   7.753  17.810  0.00  0.00    +0.000 OA
ATOM     20  O   UNL     1       2.257   9.248  17.075  0.00  0.00    +0.000 OA
ENDBRANCH  16  18
BRANCH  12  21
ATOM     21  C   UNL     1       0.484  10.645  21.339  0.00  0.00    +0.000 C 
ATOM     22  O   UNL     1       0.099  10.844  22.484  0.00  0.00    +0.000 OA
BRANCH  21  24
ATOM     23  C   UNL     1       1.010  12.812  20.677  0.00  0.00    +0.000 C 
ATOM     24  O   UNL     1       0.455  11.539  20.322  0.00  0.00    +0.000 OA
ENDBRANCH  21  24
ENDBRANCH  12  21
ENDBRANCH  11  15
ENDBRANCH   1  11
BRANCH   3  25
ATOM     25  C   UNL     1       1.669   3.307  21.158  0.00  0.00    +0.000 C 
BRANCH  25  26
ATOM     26  O   UNL     1       2.962   3.765  21.591  0.00  0.00    +0.000 OA
ATOM     27  H   UNL     1       3.081   4.688  21.301  0.00  0.00    +0.000 HD
ENDBRANCH  25  26
ENDBRANCH   3  25
BRANCH   5  28
ATOM     28  O   UNL     1       4.963   3.985  18.990  0.00  0.00    +0.000 OA
BRANCH  28  29
ATOM     29  C   UNL     1       5.833   4.882  18.234  0.00  0.00    +0.000 C 
BRANCH  29  30
ATOM     30  C   UNL     1       6.849   4.381  17.140  0.00  0.00    +0.000 C 
ATOM     31  O   UNL     1       8.050   4.499  17.276  0.00  0.00    +0.000 OA
BRANCH  30  32
ATOM     32  O   UNL     1       6.239   3.874  15.995  0.00  0.00    +0.000 OA
BRANCH  32  33
ATOM     33  C   UNL     1       6.142   4.708  14.776  0.00  0.00    +0.000 C 
ATOM     34  C   UNL     1       7.461   5.071  14.069  0.00  0.00    +0.000 C 
ATOM     35  C   UNL     1       5.280   4.007  13.687  0.00  0.00    +0.000 C 
ATOM     36  C   UNL     1       5.384   5.958  15.221  0.00  0.00    +0.000 C 
ENDBRANCH  32  33
ENDBRANCH  30  32
ENDBRANCH  29  30
ENDBRANCH  28  29
ENDBRANCH   5  28
TORSDOF 14
ENDMDL
MODEL 8
REMARK VINA RESULT:      -6.7      1.608      2.406
REMARK  Name = 
REMARK  18 active torsions:
REMARK  status: ('A' for Active; 'I' for Inactive)
REMARK    1  A    between atoms: C_1  and  O_2
REMARK    2  A    between atoms: O_2  and  C_3
REMARK    3  A    between atoms: C_3  and  C_5
REMARK    4  A    between atoms: C_8  and  O_9
REMARK    5  A    between atoms: O_9  and  C_10
REMARK    6  A    between atoms: C_12  and  C_13
REMARK    7  A    between atoms: C_13  and  O_14
REMARK    8  A    between atoms: C_15  and  O_16
REMARK    9  A    between atoms: C_17  and  O_18
REMARK   10  A    between atoms: O_18  and  C_19
REMARK   11  A    between atoms: C_19  and  C_20
REMARK   12  A    between atoms: C_20  and  O_22
REMARK   13  A    between atoms: O_22  and  C_23
REMARK   14  A    between atoms: C_23  and  C_24
REMARK   15  A    between atoms: C_23  and  C_25
REMARK   16  A    between atoms: C_23  and  C_26
REMARK   17  A    between atoms: C_27  and  O_28
REMARK   18  A    between atoms: C_29  and  N_30
REMARK                            x       y       z     vdW  Elec       q    Type
REMARK                         _______ _______ _______ _____ _____    ______ ____
ROOT
ATOM      1  C   UNL     1       2.093   5.334  18.438  0.00  0.00    +0.000 C 
ATOM      2  O   UNL     1       1.318   4.342  19.121  0.00  0.00    +0.000 OA
ATOM      3  C   UNL     1       2.061   3.495  20.006  0.00  0.00    +0.000 C 
ATOM      4  C   UNL     1       3.351   2.932  19.333  0.00  0.00    +0.000 C 
ATOM      5  C   UNL     1       4.186   3.871  18.362  0.00  0.00    +0.000 C 
ATOM      6  C   UNL     1       3.155   4.654  17.541  0.00  0.00    +0.000 C 
ENDROOT
BRANCH   4   7
ATOM      7  O   UNL     1       4.121   2.048  20.142  0.00  0.00    +0.000 OA
ATOM      8  H   UNL     1       3.591   1.710  20.875  0.00  0.00    +0.000 HD
ENDBRANCH   4   7
BRANCH   6   9
ATOM      9  O   UNL     1       2.507   3.741  16.626  0.00  0.00    +0.000 OA
ATOM     10  H   UNL     1       3.177   3.443  15.981  0.00  0.00    +0.000 HD
ENDBRANCH   6   9
BRANCH   1  11
ATOM     11  O   UNL     1       2.647   6.325  19.303  0.00  0.00    +0.000 OA
BRANCH  11  15
ATOM     12  C   UNL     1       1.179  10.209  18.642  0.00  0.00    +0.000 A 
ATOM     13  C   UNL     1       1.700   9.423  17.611  0.00  0.00    +0.000 A 
ATOM     14  C   UNL     1       2.250   8.156  17.902  0.00  0.00    +0.000 A 
ATOM     15  C   UNL     1       2.211   7.624  19.204  0.00  0.00    +0.000 A 
ATOM     16  C   UNL     1       1.641   8.426  20.190  0.00  0.00    +0.000 A 
ATOM     17  C   UNL     1       1.234   9.747  19.953  0.00  0.00    +0.000 A 
BRANCH  16  18
ATOM     18  N   UNL     1       1.078   7.878  21.399  0.00  0.00    +0.000 N 
ATOM     19  O   UNL     1       0.469   6.809  21.285  0.00  0.00    +0.000 OA
ATOM     20  O   UNL     1       1.219   8.546  22.440  0.00  0.00    +0.000 OA
ENDBRANCH  16  18
BRANCH  12  21
ATOM     21  C   UNL     1       0.364  11.434  18.444  0.00  0.00    +0.000 C 
ATOM     22  O   UNL     1      -0.832  11.391  18.185  0.00  0.00    +0.000 OA
BRANCH  21  24
ATOM     23  C   UNL     1       0.850  13.536  19.316  0.00  0.00    +0.000 C 
ATOM     24  O   UNL     1       1.161  12.524  18.348  0.00  0.00    +0.000 OA
ENDBRANCH  21  24
ENDBRANCH  12  21
ENDBRANCH  11  15
ENDBRANCH   1  11
BRANCH   3  25
ATOM     25  C   UNL     1       2.108   4.087  21.427  0.00  0.00    +0.000 C 
BRANCH  25  26
ATOM     26  O   UNL     1       2.398   3.079  22.412  0.00  0.00    +0.000 OA
ATOM     27  H   UNL     1       3.360   3.066  22.572  0.00  0.00    +0.000 HD
ENDBRANCH  25  26
ENDBRANCH   3  25
BRANCH   5  28
ATOM     28  O   UNL     1       5.189   4.737  18.959  0.00  0.00    +0.000 OA
BRANCH  28  29
ATOM     29  C   UNL     1       6.181   5.290  18.040  0.00  0.00    +0.000 C 
BRANCH  29  30
ATOM     30  C   UNL     1       7.028   4.405  17.049  0.00  0.00    +0.000 C 
ATOM     31  O   UNL     1       8.221   4.241  17.194  0.00  0.00    +0.000 OA
BRANCH  30  32
ATOM     32  O   UNL     1       6.296   3.909  15.973  0.00  0.00    +0.000 OA
BRANCH  32  33
ATOM     33  C   UNL     1       6.187   4.698  14.724  0.00  0.00    +0.000 C 
ATOM     34  C   UNL     1       7.502   5.105  14.036  0.00  0.00    +0.000 C 
ATOM     35  C   UNL     1       5.387   3.921  13.641  0.00  0.00    +0.000 C 
ATOM     36  C   UNL     1       5.357   5.922  15.111  0.00  0.00    +0.000 C 
ENDBRANCH  32  33
ENDBRANCH  30  32
ENDBRANCH  29  30
ENDBRANCH  28  29
ENDBRANCH   5  28
TORSDOF 14
ENDMDL
MODEL 9
REMARK VINA RESULT:      -6.7      3.460     10.286
REMARK  Name = 
REMARK  18 active torsions:
REMARK  status: ('A' for Active; 'I' for Inactive)
REMARK    1  A    between atoms: C_1  and  O_2
REMARK    2  A    between atoms: O_2  and  C_3
REMARK    3  A    between atoms: C_3  and  C_5
REMARK    4  A    between atoms: C_8  and  O_9
REMARK    5  A    between atoms: O_9  and  C_10
REMARK    6  A    between atoms: C_12  and  C_13
REMARK    7  A    between atoms: C_13  and  O_14
REMARK    8  A    between atoms: C_15  and  O_16
REMARK    9  A    between atoms: C_17  and  O_18
REMARK   10  A    between atoms: O_18  and  C_19
REMARK   11  A    between atoms: C_19  and  C_20
REMARK   12  A    between atoms: C_20  and  O_22
REMARK   13  A    between atoms: O_22  and  C_23
REMARK   14  A    between atoms: C_23  and  C_24
REMARK   15  A    between atoms: C_23  and  C_25
REMARK   16  A    between atoms: C_23  and  C_26
REMARK   17  A    between atoms: C_27  and  O_28
REMARK   18  A    between atoms: C_29  and  N_30
REMARK                            x       y       z     vdW  Elec       q    Type
REMARK                         _______ _______ _______ _____ _____    ______ ____
ROOT
ATOM      1  C   UNL     1       0.321  11.652  18.704  0.00  0.00    +0.000 C 
ATOM      2  O   UNL     1       1.005  12.878  18.419  0.00  0.00    +0.000 OA
ATOM      3  C   UNL     1       0.732  13.950  19.329  0.00  0.00    +0.000 C 
ATOM      4  C   UNL     1      -0.797  14.127  19.585  0.00  0.00    +0.000 C 
ATOM      5  C   UNL     1      -1.713  12.836  19.696  0.00  0.00    +0.000 C 
ATOM      6  C   UNL     1      -1.210  11.865  18.622  0.00  0.00    +0.000 C 
ENDROOT
BRANCH   4   7
ATOM      7  O   UNL     1      -1.146  15.203  20.451  0.00  0.00    +0.000 OA
ATOM      8  H   UNL     1      -2.045  15.505  20.272  0.00  0.00    +0.000 HD
ENDBRANCH   4   7
BRANCH   6   9
ATOM      9  O   UNL     1      -1.557  12.396  17.322  0.00  0.00    +0.000 OA
ATOM     10  H   UNL     1      -1.330  11.719  16.655  0.00  0.00    +0.000 HD
ENDBRANCH   6   9
BRANCH   1  11
ATOM     11  O   UNL     1       0.732  11.036  19.925  0.00  0.00    +0.000 OA
BRANCH  11  15
ATOM     12  C   UNL     1       2.065   7.055  19.692  0.00  0.00    +0.000 A 
ATOM     13  C   UNL     1       2.184   7.946  18.622  0.00  0.00    +0.000 A 
ATOM     14  C   UNL     1       1.650   9.248  18.728  0.00  0.00    +0.000 A 
ATOM     15  C   UNL     1       1.069   9.704  19.925  0.00  0.00    +0.000 A 
ATOM     16  C   UNL     1       1.014   8.795  20.979  0.00  0.00    +0.000 A 
ATOM     17  C   UNL     1       1.393   7.452  20.844  0.00  0.00    +0.000 A 
BRANCH  16  18
ATOM     18  N   UNL     1       0.933   9.215  22.356  0.00  0.00    +0.000 N 
ATOM     19  O   UNL     1       1.997   9.540  22.894  0.00  0.00    +0.000 OA
ATOM     20  O   UNL     1      -0.190   9.177  22.893  0.00  0.00    +0.000 OA
ENDBRANCH  16  18
BRANCH  12  21
ATOM     21  C   UNL     1       2.784   5.761  19.801  0.00  0.00    +0.000 C 
ATOM     22  O   UNL     1       3.971   5.646  19.529  0.00  0.00    +0.000 OA
BRANCH  21  24
ATOM     23  C   UNL     1       2.256   3.903  21.098  0.00  0.00    +0.000 C 
ATOM     24  O   UNL     1       1.908   4.746  19.992  0.00  0.00    +0.000 OA
ENDBRANCH  21  24
ENDBRANCH  12  21
ENDBRANCH  11  15
ENDBRANCH   1  11
BRANCH   3  25
ATOM     25  C   UNL     1       1.732  13.948  20.501  0.00  0.00    +0.000 C 
BRANCH  25  26
ATOM     26  O   UNL     1       1.114  13.514  21.725  0.00  0.00    +0.000 OA
ATOM     27  H   UNL     1       0.149  13.486  21.596  0.00  0.00    +0.000 HD
ENDBRANCH  25  26
ENDBRANCH   3  25
BRANCH   5  28
ATOM     28  O   UNL     1      -1.835  12.204  20.998  0.00  0.00    +0.000 OA
BRANCH  28  29
ATOM     29  C   UNL     1      -3.060  12.496  21.737  0.00  0.00    +0.000 C 
BRANCH  29  30
ATOM     30  C   UNL     1      -4.266  13.304  21.125  0.00  0.00    +0.000 C 
ATOM     31  O   UNL     1      -4.146  14.454  20.754  0.00  0.00    +0.000 OA
BRANCH  30  32
ATOM     32  O   UNL     1      -5.470  12.606  21.127  0.00  0.00    +0.000 OA
BRANCH  32  33
ATOM     33  C   UNL     1      -6.052  12.126  19.853  0.00  0.00    +0.000 C 
ATOM     34  C   UNL     1      -5.068  11.770  18.724  0.00  0.00    +0.000 C 
ATOM     35  C   UNL     1      -6.897  10.839  20.073  0.00  0.00    +0.000 C 
ATOM     36  C   UNL     1      -7.016  13.234  19.426  0.00  0.00    +0.000 C 
ENDBRANCH  32  33
ENDBRANCH  30  32
ENDBRANCH  29  30
ENDBRANCH  28  29
ENDBRANCH   5  28
TORSDOF 14
ENDMDL
