MODEL 1
REMARK VINA RESULT:      -6.9      0.000      0.000
REMARK  Name = 
REMARK  8 active torsions:
REMARK  status: ('A' for Active; 'I' for Inactive)
REMARK    1  A    between atoms: C_1  and  O_2
REMARK    2  A    between atoms: O_2  and  C_3
REMARK    3  A    between atoms: C_8  and  C_9
REMARK    4  A    between atoms: C_10  and  C_11
REMARK    5  A    between atoms: C_11  and  C_12
REMARK    6  A    between atoms: C_11  and  C_13
REMARK    7  A    between atoms: C_17  and  C_18
REMARK    8  A    between atoms: C_17  and  O_19
REMARK                            x       y       z     vdW  Elec       q    Type
REMARK                         _______ _______ _______ _____ _____    ______ ____
ROOT
ATOM      1  C   UNL     1       6.307   4.977  17.069  0.00  0.00    +0.000 A 
ATOM      2  C   UNL     1       5.443   3.969  17.484  0.00  0.00    +0.000 A 
ATOM      3  C   UNL     1       4.272   4.250  18.221  0.00  0.00    +0.000 A 
ATOM      4  C   UNL     1       3.989   5.571  18.614  0.00  0.00    +0.000 A 
ATOM      5  C   UNL     1       4.921   6.565  18.253  0.00  0.00    +0.000 A 
ATOM      6  C   UNL     1       6.061   6.289  17.474  0.00  0.00    +0.000 A 
ATOM      7  C   UNL     1       6.995   7.409  17.104  0.00  0.00    +0.000 C 
ATOM      8  C   UNL     1       2.736   5.890  19.361  0.00  0.00    +0.000 C 
ATOM      9  C   UNL     1       1.910   4.893  19.724  0.00  0.00    +0.000 C 
ATOM     10  C   UNL     1       2.177   3.467  19.448  0.00  0.00    +0.000 C 
ATOM     11  O   UNL     1       1.460   2.630  19.997  0.00  0.00    +0.000 OA
ATOM     12  C   UNL     1       3.326   3.100  18.508  0.00  0.00    +0.000 C 
ATOM     13  C   UNL     1       2.711   2.575  17.201  0.00  0.00    +0.000 C 
ENDROOT
BRANCH   8  14
ATOM     14  C   UNL     1       2.406   7.343  19.726  0.00  0.00    +0.000 C 
ATOM     15  C   UNL     1       1.943   8.119  18.489  0.00  0.00    +0.000 C 
ATOM     16  C   UNL     1       1.371   7.511  20.851  0.00  0.00    +0.000 C 
ENDBRANCH   8  14
BRANCH   1  18
ATOM     17  C   UNL     1       7.109   4.597  14.889  0.00  0.00    +0.000 C 
ATOM     18  O   UNL     1       7.402   4.746  16.279  0.00  0.00    +0.000 OA
ENDBRANCH   1  18
BRANCH  12  19
ATOM     19  O   UNL     1       4.084   2.024  19.075  0.00  0.00    +0.000 OA
ATOM     20  H   UNL     1       4.736   2.426  19.674  0.00  0.00    +0.000 HD
ENDBRANCH  12  19
TORSDOF 3
ENDMDL
MODEL 2
REMARK VINA RESULT:      -6.8      1.328      1.388
REMARK  Name = 
REMARK  8 active torsions:
REMARK  status: ('A' for Active; 'I' for Inactive)
REMARK    1  A    between atoms: C_1  and  O_2
REMARK    2  A    between atoms: O_2  and  C_3
REMARK    3  A    between atoms: C_8  and  C_9
REMARK    4  A    between atoms: C_10  and  C_11
REMARK    5  A    between atoms: C_11  and  C_12
REMARK    6  A    between atoms: C_11  and  C_13
REMARK    7  A    between atoms: C_17  and  C_18
REMARK    8  A    between atoms: C_17  and  O_19
REMARK                            x       y       z     vdW  Elec       q    Type
REMARK                         _______ _______ _______ _____ _____    ______ ____
ROOT
ATOM      1  C   UNL     1       4.613   4.524  16.537  0.00  0.00    +0.000 A 
ATOM      2  C   UNL     1       3.980   3.686  17.449  0.00  0.00    +0.000 A 
ATOM      3  C   UNL     1       3.203   4.195  18.512  0.00  0.00    +0.000 A 
ATOM      4  C   UNL     1       3.110   5.585  18.711  0.00  0.00    +0.000 A 
ATOM      5  C   UNL     1       3.827   6.413  17.825  0.00  0.00    +0.000 A 
ATOM      6  C   UNL     1       4.558   5.904  16.734  0.00  0.00    +0.000 A 
ATOM      7  C   UNL     1       5.275   6.854  15.813  0.00  0.00    +0.000 C 
ATOM      8  C   UNL     1       2.262   6.141  19.808  0.00  0.00    +0.000 C 
ATOM      9  C   UNL     1       1.643   5.300  20.656  0.00  0.00    +0.000 C 
ATOM     10  C   UNL     1       1.768   3.830  20.589  0.00  0.00    +0.000 C 
ATOM     11  O   UNL     1       1.325   3.171  21.530  0.00  0.00    +0.000 OA
ATOM     12  C   UNL     1       2.443   3.202  19.369  0.00  0.00    +0.000 C 
ATOM     13  C   UNL     1       1.353   2.505  18.540  0.00  0.00    +0.000 C 
ENDROOT
BRANCH   8  14
ATOM     14  C   UNL     1       2.116   7.658  19.974  0.00  0.00    +0.000 C 
ATOM     15  C   UNL     1       1.619   8.298  18.675  0.00  0.00    +0.000 C 
ATOM     16  C   UNL     1       1.214   8.100  21.139  0.00  0.00    +0.000 C 
ENDBRANCH   8  14
BRANCH   1  18
ATOM     17  C   UNL     1       6.707   3.924  15.644  0.00  0.00    +0.000 C 
ATOM     18  O   UNL     1       5.299   4.061  15.446  0.00  0.00    +0.000 OA
ENDBRANCH   1  18
BRANCH  12  19
ATOM     19  O   UNL     1       3.356   2.185  19.797  0.00  0.00    +0.000 OA
ATOM     20  H   UNL     1       3.951   2.009  19.048  0.00  0.00    +0.000 HD
ENDBRANCH  12  19
TORSDOF 3
ENDMDL
MODEL 3
REMARK VINA RESULT:      -6.7      2.707      4.469
REMARK  Name = 
REMARK  8 active torsions:
REMARK  status: ('A' for Active; 'I' for Inactive)
REMARK    1  A    between atoms: C_1  and  O_2
REMARK    2  A    between atoms: O_2  and  C_3
REMARK    3  A    between atoms: C_8  and  C_9
REMARK    4  A    between atoms: C_10  and  C_11
REMARK    5  A    between atoms: C_11  and  C_12
REMARK    6  A    between atoms: C_11  and  C_13
REMARK    7  A    between atoms: C_17  and  C_18
REMARK    8  A    between atoms: C_17  and  O_19
REMARK                            x       y       z     vdW  Elec       q    Type
REMARK                         _______ _______ _______ _____ _____    ______ ____
ROOT
ATOM      1  C   UNL     1       6.754   4.574  13.807  0.00  0.00    +0.000 A 
ATOM      2  C   UNL     1       7.152   5.034  15.058  0.00  0.00    +0.000 A 
ATOM      3  C   UNL     1       6.347   4.857  16.205  0.00  0.00    +0.000 A 
ATOM      4  C   UNL     1       5.077   4.263  16.087  0.00  0.00    +0.000 A 
ATOM      5  C   UNL     1       4.661   3.879  14.797  0.00  0.00    +0.000 A 
ATOM      6  C   UNL     1       5.487   4.010  13.664  0.00  0.00    +0.000 A 
ATOM      7  C   UNL     1       4.983   3.550  12.322  0.00  0.00    +0.000 C 
ATOM      8  C   UNL     1       4.230   4.034  17.296  0.00  0.00    +0.000 C 
ATOM      9  C   UNL     1       4.658   4.469  18.495  0.00  0.00    +0.000 C 
ATOM     10  C   UNL     1       5.926   5.196  18.698  0.00  0.00    +0.000 C 
ATOM     11  O   UNL     1       6.121   5.721  19.795  0.00  0.00    +0.000 OA
ATOM     12  C   UNL     1       6.927   5.270  17.544  0.00  0.00    +0.000 C 
ATOM     13  C   UNL     1       8.125   4.378  17.906  0.00  0.00    +0.000 C 
ENDROOT
BRANCH   8  14
ATOM     14  C   UNL     1       2.877   3.325  17.164  0.00  0.00    +0.000 C 
ATOM     15  C   UNL     1       2.906   1.969  17.873  0.00  0.00    +0.000 C 
ATOM     16  C   UNL     1       1.669   4.136  17.664  0.00  0.00    +0.000 C 
ENDBRANCH   8  14
BRANCH   1  18
ATOM     17  C   UNL     1       8.402   5.798  12.652  0.00  0.00    +0.000 C 
ATOM     18  O   UNL     1       7.550   4.651  12.694  0.00  0.00    +0.000 OA
ENDBRANCH   1  18
BRANCH  12  19
ATOM     19  O   UNL     1       7.424   6.609  17.425  0.00  0.00    +0.000 OA
ATOM     20  H   UNL     1       7.780   6.697  16.524  0.00  0.00    +0.000 HD
ENDBRANCH  12  19
TORSDOF 3
ENDMDL
MODEL 4
REMARK VINA RESULT:      -6.7      1.419      4.496
REMARK  Name = 
REMARK  8 active torsions:
REMARK  status: ('A' for Active; 'I' for Inactive)
REMARK    1  A    between atoms: C_1  and  O_2
REMARK    2  A    between atoms: O_2  and  C_3
REMARK    3  A    between atoms: C_8  and  C_9
REMARK    4  A    between atoms: C_10  and  C_11
REMARK    5  A    between atoms: C_11  and  C_12
REMARK    6  A    between atoms: C_11  and  C_13
REMARK    7  A    between atoms: C_17  and  C_18
REMARK    8  A    between atoms: C_17  and  O_19
REMARK                            x       y       z     vdW  Elec       q    Type
REMARK                         _______ _______ _______ _____ _____    ______ ____
ROOT
ATOM      1  C   UNL     1       2.983   2.665  18.285  0.00  0.00    +0.000 A 
ATOM      2  C   UNL     1       4.137   3.284  17.814  0.00  0.00    +0.000 A 
ATOM      3  C   UNL     1       4.236   4.688  17.706  0.00  0.00    +0.000 A 
ATOM      4  C   UNL     1       3.126   5.497  18.012  0.00  0.00    +0.000 A 
ATOM      5  C   UNL     1       1.942   4.844  18.409  0.00  0.00    +0.000 A 
ATOM      6  C   UNL     1       1.862   3.447  18.566  0.00  0.00    +0.000 A 
ATOM      7  C   UNL     1       0.570   2.825  19.021  0.00  0.00    +0.000 C 
ATOM      8  C   UNL     1       3.227   6.985  17.939  0.00  0.00    +0.000 C 
ATOM      9  C   UNL     1       4.367   7.550  17.503  0.00  0.00    +0.000 C 
ATOM     10  C   UNL     1       5.546   6.780  17.059  0.00  0.00    +0.000 C 
ATOM     11  O   UNL     1       6.454   7.390  16.495  0.00  0.00    +0.000 OA
ATOM     12  C   UNL     1       5.579   5.271  17.312  0.00  0.00    +0.000 C 
ATOM     13  C   UNL     1       6.620   5.004  18.411  0.00  0.00    +0.000 C 
ENDROOT
BRANCH   8  14
ATOM     14  C   UNL     1       2.032   7.858  18.339  0.00  0.00    +0.000 C 
ATOM     15  C   UNL     1       1.914   7.946  19.863  0.00  0.00    +0.000 C 
ATOM     16  C   UNL     1       2.035   9.276  17.744  0.00  0.00    +0.000 C 
ENDBRANCH   8  14
BRANCH   1  18
ATOM     17  C   UNL     1       4.088   0.696  18.949  0.00  0.00    +0.000 C 
ATOM     18  O   UNL     1       2.887   1.314  18.485  0.00  0.00    +0.000 OA
ENDBRANCH   1  18
BRANCH  12  19
ATOM     19  O   UNL     1       6.035   4.597  16.133  0.00  0.00    +0.000 OA
ATOM     20  H   UNL     1       6.796   4.053  16.398  0.00  0.00    +0.000 HD
ENDBRANCH  12  19
TORSDOF 3
ENDMDL
MODEL 5
REMARK VINA RESULT:      -6.7      1.627      4.532
REMARK  Name = 
REMARK  8 active torsions:
REMARK  status: ('A' for Active; 'I' for Inactive)
REMARK    1  A    between atoms: C_1  and  O_2
REMARK    2  A    between atoms: O_2  and  C_3
REMARK    3  A    between atoms: C_8  and  C_9
REMARK    4  A    between atoms: C_10  and  C_11
REMARK    5  A    between atoms: C_11  and  C_12
REMARK    6  A    between atoms: C_11  and  C_13
REMARK    7  A    between atoms: C_17  and  C_18
REMARK    8  A    between atoms: C_17  and  O_19
REMARK                            x       y       z     vdW  Elec       q    Type
REMARK                         _______ _______ _______ _____ _____    ______ ____
ROOT
ATOM      1  C   UNL     1       3.750   3.000  20.255  0.00  0.00    +0.000 A 
ATOM      2  C   UNL     1       4.703   3.448  19.345  0.00  0.00    +0.000 A 
ATOM      3  C   UNL     1       4.567   4.683  18.675  0.00  0.00    +0.000 A 
ATOM      4  C   UNL     1       3.412   5.464  18.866  0.00  0.00    +0.000 A 
ATOM      5  C   UNL     1       2.423   4.951  19.729  0.00  0.00    +0.000 A 
ATOM      6  C   UNL     1       2.585   3.744  20.437  0.00  0.00    +0.000 A 
ATOM      7  C   UNL     1       1.495   3.276  21.363  0.00  0.00    +0.000 C 
ATOM      8  C   UNL     1       3.271   6.790  18.193  0.00  0.00    +0.000 C 
ATOM      9  C   UNL     1       4.224   7.203  17.340  0.00  0.00    +0.000 C 
ATOM     10  C   UNL     1       5.417   6.405  16.995  0.00  0.00    +0.000 C 
ATOM     11  O   UNL     1       6.116   6.789  16.057  0.00  0.00    +0.000 OA
ATOM     12  C   UNL     1       5.722   5.146  17.807  0.00  0.00    +0.000 C 
ATOM     13  C   UNL     1       6.957   5.436  18.674  0.00  0.00    +0.000 C 
ENDROOT
BRANCH   8  14
ATOM     14  C   UNL     1       2.038   7.661  18.463  0.00  0.00    +0.000 C 
ATOM     15  C   UNL     1       1.908   7.967  19.958  0.00  0.00    +0.000 C 
ATOM     16  C   UNL     1       1.986   8.976  17.667  0.00  0.00    +0.000 C 
ENDBRANCH   8  14
BRANCH   1  18
ATOM     17  C   UNL     1       5.196   1.261  20.912  0.00  0.00    +0.000 C 
ATOM     18  O   UNL     1       3.896   1.851  20.986  0.00  0.00    +0.000 OA
ENDBRANCH   1  18
BRANCH  12  19
ATOM     19  O   UNL     1       6.075   4.077  16.921  0.00  0.00    +0.000 OA
ATOM     20  H   UNL     1       5.251   3.610  16.702  0.00  0.00    +0.000 HD
ENDBRANCH  12  19
TORSDOF 3
ENDMDL
MODEL 6
REMARK VINA RESULT:      -6.5      1.781      4.796
REMARK  Name = 
REMARK  8 active torsions:
REMARK  status: ('A' for Active; 'I' for Inactive)
REMARK    1  A    between atoms: C_1  and  O_2
REMARK    2  A    between atoms: O_2  and  C_3
REMARK    3  A    between atoms: C_8  and  C_9
REMARK    4  A    between atoms: C_10  and  C_11
REMARK    5  A    between atoms: C_11  and  C_12
REMARK    6  A    between atoms: C_11  and  C_13
REMARK    7  A    between atoms: C_17  and  C_18
REMARK    8  A    between atoms: C_17  and  O_19
REMARK                            x       y       z     vdW  Elec       q    Type
REMARK                         _______ _______ _______ _____ _____    ______ ____
ROOT
ATOM      1  C   UNL     1       1.968   7.521  19.167  0.00  0.00    +0.000 A 
ATOM      2  C   UNL     1       1.949   6.148  19.388  0.00  0.00    +0.000 A 
ATOM      3  C   UNL     1       2.770   5.266  18.653  0.00  0.00    +0.000 A 
ATOM      4  C   UNL     1       3.584   5.761  17.618  0.00  0.00    +0.000 A 
ATOM      5  C   UNL     1       3.525   7.145  17.357  0.00  0.00    +0.000 A 
ATOM      6  C   UNL     1       2.745   8.029  18.127  0.00  0.00    +0.000 A 
ATOM      7  C   UNL     1       2.757   9.499  17.805  0.00  0.00    +0.000 C 
ATOM      8  C   UNL     1       4.486   4.846  16.855  0.00  0.00    +0.000 C 
ATOM      9  C   UNL     1       4.461   3.527  17.114  0.00  0.00    +0.000 C 
ATOM     10  C   UNL     1       3.563   2.903  18.106  0.00  0.00    +0.000 C 
ATOM     11  O   UNL     1       3.481   1.675  18.117  0.00  0.00    +0.000 OA
ATOM     12  C   UNL     1       2.778   3.805  19.060  0.00  0.00    +0.000 C 
ATOM     13  C   UNL     1       3.387   3.645  20.462  0.00  0.00    +0.000 C 
ENDROOT
BRANCH   8  14
ATOM     14  C   UNL     1       5.418   5.409  15.775  0.00  0.00    +0.000 C 
ATOM     15  C   UNL     1       6.802   5.708  16.358  0.00  0.00    +0.000 C 
ATOM     16  C   UNL     1       5.570   4.525  14.525  0.00  0.00    +0.000 C 
ENDBRANCH   8  14
BRANCH   1  18
ATOM     17  C   UNL     1       1.314   8.178  21.332  0.00  0.00    +0.000 C 
ATOM     18  O   UNL     1       1.251   8.410  19.923  0.00  0.00    +0.000 OA
ENDBRANCH   1  18
BRANCH  12  19
ATOM     19  O   UNL     1       1.421   3.352  19.140  0.00  0.00    +0.000 OA
ATOM     20  H   UNL     1       1.453   2.421  19.422  0.00  0.00    +0.000 HD
ENDBRANCH  12  19
TORSDOF 3
ENDMDL
MODEL 7
REMARK VINA RESULT:      -6.4      1.222      1.222
REMARK  Name = 
REMARK  8 active torsions:
REMARK  status: ('A' for Active; 'I' for Inactive)
REMARK    1  A    between atoms: C_1  and  O_2
REMARK    2  A    between atoms: O_2  and  C_3
REMARK    3  A    between atoms: C_8  and  C_9
REMARK    4  A    between atoms: C_10  and  C_11
REMARK    5  A    between atoms: C_11  and  C_12
REMARK    6  A    between atoms: C_11  and  C_13
REMARK    7  A    between atoms: C_17  and  C_18
REMARK    8  A    between atoms: C_17  and  O_19
REMARK                            x       y       z     vdW  Elec       q    Type
REMARK                         _______ _______ _______ _____ _____    ______ ____
ROOT
ATOM      1  C   UNL     1       5.455   4.515  16.228  0.00  0.00    +0.000 A 
ATOM      2  C   UNL     1       5.050   3.616  17.210  0.00  0.00    +0.000 A 
ATOM      3  C   UNL     1       4.209   4.007  18.274  0.00  0.00    +0.000 A 
ATOM      4  C   UNL     1       3.816   5.351  18.402  0.00  0.00    +0.000 A 
ATOM      5  C   UNL     1       4.305   6.261  17.443  0.00  0.00    +0.000 A 
ATOM      6  C   UNL     1       5.100   5.858  16.353  0.00  0.00    +0.000 A 
ATOM      7  C   UNL     1       5.561   6.883  15.353  0.00  0.00    +0.000 C 
ATOM      8  C   UNL     1       2.896   5.774  19.501  0.00  0.00    +0.000 C 
ATOM      9  C   UNL     1       2.504   4.872  20.418  0.00  0.00    +0.000 C 
ATOM     10  C   UNL     1       2.950   3.465  20.426  0.00  0.00    +0.000 C 
ATOM     11  O   UNL     1       2.691   2.784  21.419  0.00  0.00    +0.000 OA
ATOM     12  C   UNL     1       3.713   2.925  19.215  0.00  0.00    +0.000 C 
ATOM     13  C   UNL     1       2.782   1.955  18.470  0.00  0.00    +0.000 C 
ENDROOT
BRANCH   8  14
ATOM     14  C   UNL     1       2.422   7.229  19.590  0.00  0.00    +0.000 C 
ATOM     15  C   UNL     1       1.771   7.667  18.275  0.00  0.00    +0.000 C 
ATOM     16  C   UNL     1       1.466   7.530  20.757  0.00  0.00    +0.000 C 
ENDBRANCH   8  14
BRANCH   1  18
ATOM     17  C   UNL     1       5.428   3.872  13.964  0.00  0.00    +0.000 C 
ATOM     18  O   UNL     1       6.195   4.147  15.137  0.00  0.00    +0.000 OA
ENDBRANCH   1  18
BRANCH  12  19
ATOM     19  O   UNL     1       4.841   2.163  19.660  0.00  0.00    +0.000 OA
ATOM     20  H   UNL     1       5.432   2.781  20.123  0.00  0.00    +0.000 HD
ENDBRANCH  12  19
TORSDOF 3
ENDMDL
MODEL 8
REMARK VINA RESULT:      -6.3      2.697      3.997
REMARK  Name = 
REMARK  8 active torsions:
REMARK  status: ('A' for Active; 'I' for Inactive)
REMARK    1  A    between atoms: C_1  and  O_2
REMARK    2  A    between atoms: O_2  and  C_3
REMARK    3  A    between atoms: C_8  and  C_9
REMARK    4  A    between atoms: C_10  and  C_11
REMARK    5  A    between atoms: C_11  and  C_12
REMARK    6  A    between atoms: C_11  and  C_13
REMARK    7  A    between atoms: C_17  and  C_18
REMARK    8  A    between atoms: C_17  and  O_19
REMARK                            x       y       z     vdW  Elec       q    Type
REMARK                         _______ _______ _______ _____ _____    ______ ____
ROOT
ATOM      1  C   UNL     1       6.027   3.766  13.750  0.00  0.00    +0.000 A 
ATOM      2  C   UNL     1       5.278   3.369  14.853  0.00  0.00    +0.000 A 
ATOM      3  C   UNL     1       5.455   3.960  16.123  0.00  0.00    +0.000 A 
ATOM      4  C   UNL     1       6.457   4.928  16.315  0.00  0.00    +0.000 A 
ATOM      5  C   UNL     1       7.259   5.256  15.203  0.00  0.00    +0.000 A 
ATOM      6  C   UNL     1       7.045   4.703  13.925  0.00  0.00    +0.000 A 
ATOM      7  C   UNL     1       7.925   5.124  12.779  0.00  0.00    +0.000 C 
ATOM      8  C   UNL     1       6.631   5.589  17.643  0.00  0.00    +0.000 C 
ATOM      9  C   UNL     1       5.872   5.198  18.680  0.00  0.00    +0.000 C 
ATOM     10  C   UNL     1       4.869   4.117  18.601  0.00  0.00    +0.000 C 
ATOM     11  O   UNL     1       4.378   3.708  19.653  0.00  0.00    +0.000 OA
ATOM     12  C   UNL     1       4.498   3.555  17.228  0.00  0.00    +0.000 C 
ATOM     13  C   UNL     1       3.073   4.027  16.900  0.00  0.00    +0.000 C 
ENDROOT
BRANCH   8  14
ATOM     14  C   UNL     1       7.683   6.692  17.821  0.00  0.00    +0.000 C 
ATOM     15  C   UNL     1       7.094   8.061  17.471  0.00  0.00    +0.000 C 
ATOM     16  C   UNL     1       8.327   6.754  19.216  0.00  0.00    +0.000 C 
ENDBRANCH   8  14
BRANCH   1  18
ATOM     17  C   UNL     1       4.528   3.564  11.946  0.00  0.00    +0.000 C 
ATOM     18  O   UNL     1       5.818   3.276  12.488  0.00  0.00    +0.000 OA
ENDBRANCH   1  18
BRANCH  12  19
ATOM     19  O   UNL     1       4.460   2.124  17.290  0.00  0.00    +0.000 OA
ATOM     20  H   UNL     1       3.546   1.878  17.514  0.00  0.00    +0.000 HD
ENDBRANCH  12  19
TORSDOF 3
ENDMDL
MODEL 9
REMARK VINA RESULT:      -6.2      6.248      9.601
REMARK  Name = 
REMARK  8 active torsions:
REMARK  status: ('A' for Active; 'I' for Inactive)
REMARK    1  A    between atoms: C_1  and  O_2
REMARK    2  A    between atoms: O_2  and  C_3
REMARK    3  A    between atoms: C_8  and  C_9
REMARK    4  A    between atoms: C_10  and  C_11
REMARK    5  A    between atoms: C_11  and  C_12
REMARK    6  A    between atoms: C_11  and  C_13
REMARK    7  A    between atoms: C_17  and  C_18
REMARK    8  A    between atoms: C_17  and  O_19
REMARK                            x       y       z     vdW  Elec       q    Type
REMARK                         _______ _______ _______ _____ _____    ______ ____
ROOT
ATOM      1  C   UNL     1      -3.445  11.370  17.282  0.00  0.00    +0.000 A 
ATOM      2  C   UNL     1      -3.111  11.908  18.520  0.00  0.00    +0.000 A 
ATOM      3  C   UNL     1      -1.933  11.531  19.201  0.00  0.00    +0.000 A 
ATOM      4  C   UNL     1      -1.098  10.536  18.663  0.00  0.00    +0.000 A 
ATOM      5  C   UNL     1      -1.498   9.945  17.447  0.00  0.00    +0.000 A 
ATOM      6  C   UNL     1      -2.646  10.361  16.744  0.00  0.00    +0.000 A 
ATOM      7  C   UNL     1      -2.993   9.702  15.437  0.00  0.00    +0.000 C 
ATOM      8  C   UNL     1       0.171  10.152  19.353  0.00  0.00    +0.000 C 
ATOM      9  C   UNL     1       0.474  10.712  20.536  0.00  0.00    +0.000 C 
ATOM     10  C   UNL     1      -0.392  11.686  21.229  0.00  0.00    +0.000 C 
ATOM     11  O   UNL     1      -0.116  11.979  22.393  0.00  0.00    +0.000 OA
ATOM     12  C   UNL     1      -1.589  12.273  20.478  0.00  0.00    +0.000 C 
ATOM     13  C   UNL     1      -1.271  13.745  20.171  0.00  0.00    +0.000 C 
ENDROOT
BRANCH   8  14
ATOM     14  C   UNL     1       1.106   9.114  18.721  0.00  0.00    +0.000 C 
ATOM     15  C   UNL     1       2.164   9.798  17.851  0.00  0.00    +0.000 C 
ATOM     16  C   UNL     1       1.798   8.172  19.720  0.00  0.00    +0.000 C 
ENDBRANCH   8  14
BRANCH   1  18
ATOM     17  C   UNL     1      -5.685  12.092  17.339  0.00  0.00    +0.000 C 
ATOM     18  O   UNL     1      -4.531  11.780  16.556  0.00  0.00    +0.000 OA
ENDBRANCH   1  18
BRANCH  12  19
ATOM     19  O   UNL     1      -2.741  12.264  21.330  0.00  0.00    +0.000 OA
ATOM     20  H   UNL     1      -2.922  13.190  21.566  0.00  0.00    +0.000 HD
ENDBRANCH  12  19
TORSDOF 3
ENDMDL
