MODEL 1
REMARK VINA RESULT:      -8.7      0.000      0.000
REMARK  Name = 
REMARK  4 active torsions:
REMARK  status: ('A' for Active; 'I' for Inactive)
REMARK    1  A    between atoms: C_1  and  N_2
REMARK    2  A    between atoms: C_3  and  C_4
REMARK    3  A    between atoms: C_4  and  C_5
REMARK    4  A    between atoms: C_5  and  C_6
REMARK                            x       y       z     vdW  Elec       q    Type
REMARK                         _______ _______ _______ _____ _____    ______ ____
ROOT
ATOM      1  C   UNL     1       2.877   7.824  17.389  0.00  0.00    +0.000 C 
ATOM      2  N   UNL     1       2.298   7.857  18.711  0.00  0.00    +0.000 N 
ATOM      3  C   UNL     1       2.256   6.854  19.654  0.00  0.00    +0.000 A 
ATOM      4  N   UNL     1       1.604   7.264  20.729  0.00  0.00    +0.000 NA
ATOM      5  C   UNL     1       1.205   8.560  20.475  0.00  0.00    +0.000 A 
ATOM      6  C   UNL     1       0.457   9.471  21.264  0.00  0.00    +0.000 A 
ATOM      7  C   UNL     1      -0.027   9.122  22.536  0.00  0.00    +0.000 A 
ATOM      8  C   UNL     1      -0.752  10.056  23.263  0.00  0.00    +0.000 A 
ATOM      9  C   UNL     1      -0.966  11.300  22.697  0.00  0.00    +0.000 A 
ATOM     10  N   UNL     1      -0.522  11.666  21.472  0.00  0.00    +0.000 NA
ATOM     11  C   UNL     1       0.181  10.764  20.764  0.00  0.00    +0.000 A 
ATOM     12  C   UNL     1       0.646  11.106  19.502  0.00  0.00    +0.000 A 
ATOM     13  C   UNL     1       1.380  10.225  18.695  0.00  0.00    +0.000 A 
ATOM     14  C   UNL     1       1.639   8.954  19.217  0.00  0.00    +0.000 A 
ENDROOT
BRANCH   3  15
ATOM     15  C   UNL     1       2.772   5.457  19.485  0.00  0.00    +0.000 C 
BRANCH  15  16
ATOM     16  C   UNL     1       4.266   5.252  19.740  0.00  0.00    +0.000 C 
BRANCH  16  17
ATOM     17  C   UNL     1       5.206   5.333  18.569  0.00  0.00    +0.000 A 
ATOM     18  C   UNL     1       6.435   5.972  18.627  0.00  0.00    +0.000 A 
ATOM     19  C   UNL     1       7.238   5.984  17.487  0.00  0.00    +0.000 A 
ATOM     20  C   UNL     1       6.830   5.365  16.317  0.00  0.00    +0.000 A 
ATOM     21  N   UNL     1       7.610   5.415  15.214  0.00  0.00    +0.000 NA
ATOM     22  C   UNL     1       7.149   4.811  14.099  0.00  0.00    +0.000 A 
ATOM     23  C   UNL     1       5.947   4.134  14.041  0.00  0.00    +0.000 A 
ATOM     24  C   UNL     1       5.171   4.084  15.196  0.00  0.00    +0.000 A 
ATOM     25  C   UNL     1       5.583   4.713  16.361  0.00  0.00    +0.000 A 
ATOM     26  N   UNL     1       4.791   4.685  17.452  0.00  0.00    +0.000 NA
ENDBRANCH  16  17
ENDBRANCH  15  16
ENDBRANCH   3  15
TORSDOF 3
ENDMDL
MODEL 2
REMARK VINA RESULT:      -8.3      2.691      8.808
REMARK  Name = 
REMARK  4 active torsions:
REMARK  status: ('A' for Active; 'I' for Inactive)
REMARK    1  A    between atoms: C_1  and  N_2
REMARK    2  A    between atoms: C_3  and  C_4
REMARK    3  A    between atoms: C_4  and  C_5
REMARK    4  A    between atoms: C_5  and  C_6
REMARK                            x       y       z     vdW  Elec       q    Type
REMARK                         _______ _______ _______ _____ _____    ______ ____
ROOT
ATOM      1  C   UNL     1       1.553   5.439  20.645  0.00  0.00    +0.000 C 
ATOM      2  N   UNL     1       2.366   5.908  19.549  0.00  0.00    +0.000 N 
ATOM      3  C   UNL     1       2.488   7.189  19.057  0.00  0.00    +0.000 A 
ATOM      4  N   UNL     1       3.307   7.204  18.019  0.00  0.00    +0.000 NA
ATOM      5  C   UNL     1       3.721   5.902  17.827  0.00  0.00    +0.000 A 
ATOM      6  C   UNL     1       4.578   5.338  16.848  0.00  0.00    +0.000 A 
ATOM      7  C   UNL     1       5.169   6.122  15.843  0.00  0.00    +0.000 A 
ATOM      8  C   UNL     1       6.001   5.514  14.913  0.00  0.00    +0.000 A 
ATOM      9  C   UNL     1       6.213   4.151  15.020  0.00  0.00    +0.000 A 
ATOM     10  N   UNL     1       5.654   3.366  15.969  0.00  0.00    +0.000 NA
ATOM     11  C   UNL     1       4.847   3.950  16.873  0.00  0.00    +0.000 A 
ATOM     12  C   UNL     1       4.252   3.172  17.855  0.00  0.00    +0.000 A 
ATOM     13  C   UNL     1       3.394   3.698  18.830  0.00  0.00    +0.000 A 
ATOM     14  C   UNL     1       3.148   5.074  18.782  0.00  0.00    +0.000 A 
ENDROOT
BRANCH   3  15
ATOM     15  C   UNL     1       1.740   8.395  19.537  0.00  0.00    +0.000 C 
BRANCH  15  16
ATOM     16  C   UNL     1       1.411   9.452  18.481  0.00  0.00    +0.000 C 
BRANCH  16  17
ATOM     17  C   UNL     1       0.061  10.114  18.532  0.00  0.00    +0.000 A 
ATOM     18  C   UNL     1      -0.343  10.929  19.579  0.00  0.00    +0.000 A 
ATOM     19  C   UNL     1      -1.613  11.503  19.528  0.00  0.00    +0.000 A 
ATOM     20  C   UNL     1      -2.459  11.277  18.455  0.00  0.00    +0.000 A 
ATOM     21  N   UNL     1      -3.697  11.818  18.440  0.00  0.00    +0.000 NA
ATOM     22  C   UNL     1      -4.481  11.545  17.377  0.00  0.00    +0.000 A 
ATOM     23  C   UNL     1      -4.075  10.770  16.308  0.00  0.00    +0.000 A 
ATOM     24  C   UNL     1      -2.788  10.238  16.342  0.00  0.00    +0.000 A 
ATOM     25  C   UNL     1      -1.951  10.463  17.424  0.00  0.00    +0.000 A 
ATOM     26  N   UNL     1      -0.726   9.900  17.448  0.00  0.00    +0.000 NA
ENDBRANCH  16  17
ENDBRANCH  15  16
ENDBRANCH   3  15
TORSDOF 3
ENDMDL
MODEL 3
REMARK VINA RESULT:      -8.2      2.917      8.040
REMARK  Name = 
REMARK  4 active torsions:
REMARK  status: ('A' for Active; 'I' for Inactive)
REMARK    1  A    between atoms: C_1  and  N_2
REMARK    2  A    between atoms: C_3  and  C_4
REMARK    3  A    between atoms: C_4  and  C_5
REMARK    4  A    between atoms: C_5  and  C_6
REMARK                            x       y       z     vdW  Elec       q    Type
REMARK                         _______ _______ _______ _____ _____    ______ ____
ROOT
ATOM      1  C   UNL     1       4.564   7.389  16.481  0.00  0.00    +0.000 C 
ATOM      2  N   UNL     1       3.711   6.898  17.536  0.00  0.00    +0.000 N 
ATOM      3  C   UNL     1       2.633   7.519  18.128  0.00  0.00    +0.000 A 
ATOM      4  N   UNL     1       2.133   6.755  19.084  0.00  0.00    +0.000 NA
ATOM      5  C   UNL     1       2.908   5.615  19.120  0.00  0.00    +0.000 A 
ATOM      6  C   UNL     1       2.841   4.475  19.962  0.00  0.00    +0.000 A 
ATOM      7  C   UNL     1       1.874   4.361  20.975  0.00  0.00    +0.000 A 
ATOM      8  C   UNL     1       1.856   3.221  21.767  0.00  0.00    +0.000 A 
ATOM      9  C   UNL     1       2.799   2.240  21.519  0.00  0.00    +0.000 A 
ATOM     10  N   UNL     1       3.747   2.321  20.558  0.00  0.00    +0.000 NA
ATOM     11  C   UNL     1       3.770   3.424  19.788  0.00  0.00    +0.000 A 
ATOM     12  C   UNL     1       4.734   3.540  18.798  0.00  0.00    +0.000 A 
ATOM     13  C   UNL     1       4.832   4.657  17.957  0.00  0.00    +0.000 A 
ATOM     14  C   UNL     1       3.899   5.681  18.151  0.00  0.00    +0.000 A 
ENDROOT
BRANCH   3  15
ATOM     15  C   UNL     1       2.134   8.900  17.829  0.00  0.00    +0.000 C 
BRANCH  15  16
ATOM     16  C   UNL     1       1.467   9.645  18.987  0.00  0.00    +0.000 C 
BRANCH  16  17
ATOM     17  C   UNL     1       0.095  10.221  18.766  0.00  0.00    +0.000 A 
ATOM     18  C   UNL     1      -0.500  11.114  19.643  0.00  0.00    +0.000 A 
ATOM     19  C   UNL     1      -1.774  11.598  19.343  0.00  0.00    +0.000 A 
ATOM     20  C   UNL     1      -2.436  11.207  18.192  0.00  0.00    +0.000 A 
ATOM     21  N   UNL     1      -3.682  11.663  17.936  0.00  0.00    +0.000 NA
ATOM     22  C   UNL     1      -4.283  11.230  16.808  0.00  0.00    +0.000 A 
ATOM     23  C   UNL     1      -3.683  10.374  15.905  0.00  0.00    +0.000 A 
ATOM     24  C   UNL     1      -2.393   9.932  16.185  0.00  0.00    +0.000 A 
ATOM     25  C   UNL     1      -1.741  10.323  17.345  0.00  0.00    +0.000 A 
ATOM     26  N   UNL     1      -0.508   9.844  17.611  0.00  0.00    +0.000 NA
ENDBRANCH  16  17
ENDBRANCH  15  16
ENDBRANCH   3  15
TORSDOF 3
ENDMDL
MODEL 4
REMARK VINA RESULT:      -8.2      1.712      3.149
REMARK  Name = 
REMARK  4 active torsions:
REMARK  status: ('A' for Active; 'I' for Inactive)
REMARK    1  A    between atoms: C_1  and  N_2
REMARK    2  A    between atoms: C_3  and  C_4
REMARK    3  A    between atoms: C_4  and  C_5
REMARK    4  A    between atoms: C_5  and  C_6
REMARK                            x       y       z     vdW  Elec       q    Type
REMARK                         _______ _______ _______ _____ _____    ______ ____
ROOT
ATOM      1  C   UNL     1       2.216   4.059  21.404  0.00  0.00    +0.000 C 
ATOM      2  N   UNL     1       2.385   5.046  20.364  0.00  0.00    +0.000 N 
ATOM      3  C   UNL     1       3.078   4.933  19.179  0.00  0.00    +0.000 A 
ATOM      4  N   UNL     1       3.027   6.072  18.509  0.00  0.00    +0.000 NA
ATOM      5  C   UNL     1       2.290   6.947  19.280  0.00  0.00    +0.000 A 
ATOM      6  C   UNL     1       1.942   8.305  19.063  0.00  0.00    +0.000 A 
ATOM      7  C   UNL     1       2.356   8.999  17.913  0.00  0.00    +0.000 A 
ATOM      8  C   UNL     1       1.983  10.327  17.755  0.00  0.00    +0.000 A 
ATOM      9  C   UNL     1       1.212  10.910  18.744  0.00  0.00    +0.000 A 
ATOM     10  N   UNL     1       0.803  10.274  19.865  0.00  0.00    +0.000 NA
ATOM     11  C   UNL     1       1.163   8.987  20.024  0.00  0.00    +0.000 A 
ATOM     12  C   UNL     1       0.765   8.308  21.166  0.00  0.00    +0.000 A 
ATOM     13  C   UNL     1       1.100   6.970  21.413  0.00  0.00    +0.000 A 
ATOM     14  C   UNL     1       1.871   6.319  20.444  0.00  0.00    +0.000 A 
ENDROOT
BRANCH   3  15
ATOM     15  C   UNL     1       3.873   3.745  18.728  0.00  0.00    +0.000 C 
BRANCH  15  16
ATOM     16  C   UNL     1       3.893   3.475  17.223  0.00  0.00    +0.000 C 
BRANCH  16  17
ATOM     17  C   UNL     1       5.014   4.061  16.410  0.00  0.00    +0.000 A 
ATOM     18  C   UNL     1       5.965   4.920  16.940  0.00  0.00    +0.000 A 
ATOM     19  C   UNL     1       6.971   5.403  16.103  0.00  0.00    +0.000 A 
ATOM     20  C   UNL     1       7.033   5.033  14.770  0.00  0.00    +0.000 A 
ATOM     21  N   UNL     1       7.998   5.537  13.969  0.00  0.00    +0.000 NA
ATOM     22  C   UNL     1       7.994   5.155  12.675  0.00  0.00    +0.000 A 
ATOM     23  C   UNL     1       7.078   4.267  12.146  0.00  0.00    +0.000 A 
ATOM     24  C   UNL     1       6.105   3.750  12.997  0.00  0.00    +0.000 A 
ATOM     25  C   UNL     1       6.046   4.132  14.328  0.00  0.00    +0.000 A 
ATOM     26  N   UNL     1       5.065   3.649  15.118  0.00  0.00    +0.000 NA
ENDBRANCH  16  17
ENDBRANCH  15  16
ENDBRANCH   3  15
TORSDOF 3
ENDMDL
MODEL 5
REMARK VINA RESULT:      -8.1      5.201      9.417
REMARK  Name = 
REMARK  4 active torsions:
REMARK  status: ('A' for Active; 'I' for Inactive)
REMARK    1  A    between atoms: C_1  and  N_2
REMARK    2  A    between atoms: C_3  and  C_4
REMARK    3  A    between atoms: C_4  and  C_5
REMARK    4  A    between atoms: C_5  and  C_6
REMARK                            x       y       z     vdW  Elec       q    Type
REMARK                         _______ _______ _______ _____ _____    ______ ____
ROOT
ATOM      1  C   UNL     1       5.872   5.672  19.222  0.00  0.00    +0.000 C 
ATOM      2  N   UNL     1       6.519   5.804  17.939  0.00  0.00    +0.000 N 
ATOM      3  C   UNL     1       7.500   6.694  17.561  0.00  0.00    +0.000 A 
ATOM      4  N   UNL     1       7.808   6.520  16.287  0.00  0.00    +0.000 NA
ATOM      5  C   UNL     1       7.004   5.499  15.824  0.00  0.00    +0.000 A 
ATOM      6  C   UNL     1       6.893   4.918  14.535  0.00  0.00    +0.000 A 
ATOM      7  C   UNL     1       7.671   5.365  13.454  0.00  0.00    +0.000 A 
ATOM      8  C   UNL     1       7.521   4.757  12.215  0.00  0.00    +0.000 A 
ATOM      9  C   UNL     1       6.604   3.727  12.102  0.00  0.00    +0.000 A 
ATOM     10  N   UNL     1       5.834   3.278  13.119  0.00  0.00    +0.000 NA
ATOM     11  C   UNL     1       5.976   3.865  14.322  0.00  0.00    +0.000 A 
ATOM     12  C   UNL     1       5.196   3.431  15.384  0.00  0.00    +0.000 A 
ATOM     13  C   UNL     1       5.276   3.991  16.666  0.00  0.00    +0.000 A 
ATOM     14  C   UNL     1       6.193   5.031  16.849  0.00  0.00    +0.000 A 
ENDROOT
BRANCH   3  15
ATOM     15  C   UNL     1       8.084   7.781  18.410  0.00  0.00    +0.000 C 
BRANCH  15  16
ATOM     16  C   UNL     1       8.114   9.181  17.794  0.00  0.00    +0.000 C 
BRANCH  16  17
ATOM     17  C   UNL     1       8.864  10.263  18.520  0.00  0.00    +0.000 A 
ATOM     18  C   UNL     1       9.307  10.130  19.827  0.00  0.00    +0.000 A 
ATOM     19  C   UNL     1      10.002  11.191  20.409  0.00  0.00    +0.000 A 
ATOM     20  C   UNL     1      10.258  12.353  19.702  0.00  0.00    +0.000 A 
ATOM     21  N   UNL     1      10.906  13.381  20.295  0.00  0.00    +0.000 NA
ATOM     22  C   UNL     1      11.108  14.494  19.560  0.00  0.00    +0.000 A 
ATOM     23  C   UNL     1      10.710  14.622  18.244  0.00  0.00    +0.000 A 
ATOM     24  C   UNL     1      10.058  13.543  17.653  0.00  0.00    +0.000 A 
ATOM     25  C   UNL     1       9.800  12.385  18.371  0.00  0.00    +0.000 A 
ATOM     26  N   UNL     1       9.129  11.373  17.785  0.00  0.00    +0.000 NA
ENDBRANCH  16  17
ENDBRANCH  15  16
ENDBRANCH   3  15
TORSDOF 3
ENDMDL
MODEL 6
REMARK VINA RESULT:      -8.1      2.111      8.065
REMARK  Name = 
REMARK  4 active torsions:
REMARK  status: ('A' for Active; 'I' for Inactive)
REMARK    1  A    between atoms: C_1  and  N_2
REMARK    2  A    between atoms: C_3  and  C_4
REMARK    3  A    between atoms: C_4  and  C_5
REMARK    4  A    between atoms: C_5  and  C_6
REMARK                            x       y       z     vdW  Elec       q    Type
REMARK                         _______ _______ _______ _____ _____    ______ ____
ROOT
ATOM      1  C   UNL     1       5.231   7.224  16.929  0.00  0.00    +0.000 C 
ATOM      2  N   UNL     1       4.161   6.773  17.786  0.00  0.00    +0.000 N 
ATOM      3  C   UNL     1       3.005   7.434  18.136  0.00  0.00    +0.000 A 
ATOM      4  N   UNL     1       2.292   6.698  18.971  0.00  0.00    +0.000 NA
ATOM      5  C   UNL     1       3.005   5.535  19.176  0.00  0.00    +0.000 A 
ATOM      6  C   UNL     1       2.727   4.409  19.992  0.00  0.00    +0.000 A 
ATOM      7  C   UNL     1       1.567   4.337  20.782  0.00  0.00    +0.000 A 
ATOM      8  C   UNL     1       1.348   3.209  21.560  0.00  0.00    +0.000 A 
ATOM      9  C   UNL     1       2.289   2.196  21.520  0.00  0.00    +0.000 A 
ATOM     10  N   UNL     1       3.419   2.236  20.778  0.00  0.00    +0.000 NA
ATOM     11  C   UNL     1       3.637   3.328  20.023  0.00  0.00    +0.000 A 
ATOM     12  C   UNL     1       4.790   3.402  19.255  0.00  0.00    +0.000 A 
ATOM     13  C   UNL     1       5.097   4.505  18.446  0.00  0.00    +0.000 A 
ATOM     14  C   UNL     1       4.178   5.559  18.434  0.00  0.00    +0.000 A 
ENDROOT
BRANCH   3  15
ATOM     15  C   UNL     1       2.624   8.826  17.731  0.00  0.00    +0.000 C 
BRANCH  15  16
ATOM     16  C   UNL     1       1.126   9.120  17.644  0.00  0.00    +0.000 C 
BRANCH  16  17
ATOM     17  C   UNL     1       0.502   9.963  18.723  0.00  0.00    +0.000 A 
ATOM     18  C   UNL     1       0.042  11.252  18.504  0.00  0.00    +0.000 A 
ATOM     19  C   UNL     1      -0.530  11.949  19.570  0.00  0.00    +0.000 A 
ATOM     20  C   UNL     1      -0.646  11.371  20.823  0.00  0.00    +0.000 A 
ATOM     21  N   UNL     1      -1.174  12.074  21.849  0.00  0.00    +0.000 NA
ATOM     22  C   UNL     1      -1.243  11.463  23.050  0.00  0.00    +0.000 A 
ATOM     23  C   UNL     1      -0.827  10.165  23.270  0.00  0.00    +0.000 A 
ATOM     24  C   UNL     1      -0.302   9.457  22.192  0.00  0.00    +0.000 A 
ATOM     25  C   UNL     1      -0.182  10.047  20.943  0.00  0.00    +0.000 A 
ATOM     26  N   UNL     1       0.371   9.352  19.927  0.00  0.00    +0.000 NA
ENDBRANCH  16  17
ENDBRANCH  15  16
ENDBRANCH   3  15
TORSDOF 3
ENDMDL
MODEL 7
REMARK VINA RESULT:      -8.1      3.088      4.794
REMARK  Name = 
REMARK  4 active torsions:
REMARK  status: ('A' for Active; 'I' for Inactive)
REMARK    1  A    between atoms: C_1  and  N_2
REMARK    2  A    between atoms: C_3  and  C_4
REMARK    3  A    between atoms: C_4  and  C_5
REMARK    4  A    between atoms: C_5  and  C_6
REMARK                            x       y       z     vdW  Elec       q    Type
REMARK                         _______ _______ _______ _____ _____    ______ ____
ROOT
ATOM      1  C   UNL     1       0.887  10.932  21.146  0.00  0.00    +0.000 C 
ATOM      2  N   UNL     1       0.319  10.509  19.888  0.00  0.00    +0.000 N 
ATOM      3  C   UNL     1       0.860   9.665  18.944  0.00  0.00    +0.000 A 
ATOM      4  N   UNL     1       0.044   9.553  17.910  0.00  0.00    +0.000 NA
ATOM      5  C   UNL     1      -1.049  10.349  18.185  0.00  0.00    +0.000 A 
ATOM      6  C   UNL     1      -2.211  10.624  17.420  0.00  0.00    +0.000 A 
ATOM      7  C   UNL     1      -2.408  10.061  16.147  0.00  0.00    +0.000 A 
ATOM      8  C   UNL     1      -3.567  10.366  15.445  0.00  0.00    +0.000 A 
ATOM      9  C   UNL     1      -4.483  11.216  16.037  0.00  0.00    +0.000 A 
ATOM     10  N   UNL     1      -4.321  11.781  17.256  0.00  0.00    +0.000 NA
ATOM     11  C   UNL     1      -3.200  11.489  17.940  0.00  0.00    +0.000 A 
ATOM     12  C   UNL     1      -3.001  12.057  19.189  0.00  0.00    +0.000 A 
ATOM     13  C   UNL     1      -1.860  11.812  19.966  0.00  0.00    +0.000 A 
ATOM     14  C   UNL     1      -0.899  10.951  19.426  0.00  0.00    +0.000 A 
ENDROOT
BRANCH   3  15
ATOM     15  C   UNL     1       2.216   9.029  18.998  0.00  0.00    +0.000 C 
BRANCH  15  16
ATOM     16  C   UNL     1       2.707   8.371  17.708  0.00  0.00    +0.000 C 
BRANCH  16  17
ATOM     17  C   UNL     1       3.087   6.916  17.750  0.00  0.00    +0.000 A 
ATOM     18  C   UNL     1       4.350   6.454  17.416  0.00  0.00    +0.000 A 
ATOM     19  C   UNL     1       4.604   5.084  17.497  0.00  0.00    +0.000 A 
ATOM     20  C   UNL     1       3.625   4.197  17.908  0.00  0.00    +0.000 A 
ATOM     21  N   UNL     1       3.882   2.870  17.949  0.00  0.00    +0.000 NA
ATOM     22  C   UNL     1       2.881   2.055  18.339  0.00  0.00    +0.000 A 
ATOM     23  C   UNL     1       1.631   2.508  18.715  0.00  0.00    +0.000 A 
ATOM     24  C   UNL     1       1.398   3.880  18.679  0.00  0.00    +0.000 A 
ATOM     25  C   UNL     1       2.383   4.760  18.258  0.00  0.00    +0.000 A 
ATOM     26  N   UNL     1       2.114   6.080  18.192  0.00  0.00    +0.000 NA
ENDBRANCH  16  17
ENDBRANCH  15  16
ENDBRANCH   3  15
TORSDOF 3
ENDMDL
MODEL 8
REMARK VINA RESULT:      -8.0      1.793      9.060
REMARK  Name = 
REMARK  4 active torsions:
REMARK  status: ('A' for Active; 'I' for Inactive)
REMARK    1  A    between atoms: C_1  and  N_2
REMARK    2  A    between atoms: C_3  and  C_4
REMARK    3  A    between atoms: C_4  and  C_5
REMARK    4  A    between atoms: C_5  and  C_6
REMARK                            x       y       z     vdW  Elec       q    Type
REMARK                         _______ _______ _______ _____ _____    ______ ____
ROOT
ATOM      1  C   UNL     1       1.173   3.842  20.726  0.00  0.00    +0.000 C 
ATOM      2  N   UNL     1       1.987   4.738  19.941  0.00  0.00    +0.000 N 
ATOM      3  C   UNL     1       2.092   6.109  20.037  0.00  0.00    +0.000 A 
ATOM      4  N   UNL     1       2.919   6.570  19.115  0.00  0.00    +0.000 NA
ATOM      5  C   UNL     1       3.356   5.476  18.397  0.00  0.00    +0.000 A 
ATOM      6  C   UNL     1       4.231   5.386  17.284  0.00  0.00    +0.000 A 
ATOM      7  C   UNL     1       4.817   6.528  16.712  0.00  0.00    +0.000 A 
ATOM      8  C   UNL     1       5.667   6.378  15.624  0.00  0.00    +0.000 A 
ATOM      9  C   UNL     1       5.900   5.100  15.151  0.00  0.00    +0.000 A 
ATOM     10  N   UNL     1       5.347   3.981  15.672  0.00  0.00    +0.000 NA
ATOM     11  C   UNL     1       4.522   4.121  16.726  0.00  0.00    +0.000 A 
ATOM     12  C   UNL     1       3.933   2.994  17.280  0.00  0.00    +0.000 A 
ATOM     13  C   UNL     1       3.058   3.050  18.374  0.00  0.00    +0.000 A 
ATOM     14  C   UNL     1       2.789   4.315  18.906  0.00  0.00    +0.000 A 
ENDROOT
BRANCH   3  15
ATOM     15  C   UNL     1       1.320   6.992  20.970  0.00  0.00    +0.000 C 
BRANCH  15  16
ATOM     16  C   UNL     1       1.472   8.499  20.757  0.00  0.00    +0.000 C 
BRANCH  16  17
ATOM     17  C   UNL     1       0.477   9.415  21.415  0.00  0.00    +0.000 A 
ATOM     18  C   UNL     1       0.124   9.313  22.752  0.00  0.00    +0.000 A 
ATOM     19  C   UNL     1      -0.804  10.218  23.269  0.00  0.00    +0.000 A 
ATOM     20  C   UNL     1      -1.360  11.206  22.475  0.00  0.00    +0.000 A 
ATOM     21  N   UNL     1      -2.280  12.053  22.989  0.00  0.00    +0.000 NA
ATOM     22  C   UNL     1      -2.801  12.981  22.160  0.00  0.00    +0.000 A 
ATOM     23  C   UNL     1      -2.425  13.120  20.838  0.00  0.00    +0.000 A 
ATOM     24  C   UNL     1      -1.464  12.245  20.339  0.00  0.00    +0.000 A 
ATOM     25  C   UNL     1      -0.918  11.254  21.140  0.00  0.00    +0.000 A 
ATOM     26  N   UNL     1      -0.020  10.393  20.617  0.00  0.00    +0.000 NA
ENDBRANCH  16  17
ENDBRANCH  15  16
ENDBRANCH   3  15
TORSDOF 3
ENDMDL
MODEL 9
REMARK VINA RESULT:      -7.9      1.675      9.166
REMARK  Name = 
REMARK  4 active torsions:
REMARK  status: ('A' for Active; 'I' for Inactive)
REMARK    1  A    between atoms: C_1  and  N_2
REMARK    2  A    between atoms: C_3  and  C_4
REMARK    3  A    between atoms: C_4  and  C_5
REMARK    4  A    between atoms: C_5  and  C_6
REMARK                            x       y       z     vdW  Elec       q    Type
REMARK                         _______ _______ _______ _____ _____    ______ ____
ROOT
ATOM      1  C   UNL     1       1.494   4.926  20.618  0.00  0.00    +0.000 C 
ATOM      2  N   UNL     1       2.339   5.506  19.602  0.00  0.00    +0.000 N 
ATOM      3  C   UNL     1       2.511   6.836  19.286  0.00  0.00    +0.000 A 
ATOM      4  N   UNL     1       3.345   6.959  18.267  0.00  0.00    +0.000 NA
ATOM      5  C   UNL     1       3.717   5.681  17.908  0.00  0.00    +0.000 A 
ATOM      6  C   UNL     1       4.569   5.220  16.872  0.00  0.00    +0.000 A 
ATOM      7  C   UNL     1       5.201   6.109  15.985  0.00  0.00    +0.000 A 
ATOM      8  C   UNL     1       6.026   5.600  14.991  0.00  0.00    +0.000 A 
ATOM      9  C   UNL     1       6.190   4.229  14.919  0.00  0.00    +0.000 A 
ATOM     10  N   UNL     1       5.591   3.345  15.751  0.00  0.00    +0.000 NA
ATOM     11  C   UNL     1       4.791   3.833  16.715  0.00  0.00    +0.000 A 
ATOM     12  C   UNL     1       4.156   2.953  17.580  0.00  0.00    +0.000 A 
ATOM     13  C   UNL     1       3.302   3.376  18.607  0.00  0.00    +0.000 A 
ATOM     14  C   UNL     1       3.103   4.755  18.739  0.00  0.00    +0.000 A 
ENDROOT
BRANCH   3  15
ATOM     15  C   UNL     1       1.797   7.994  19.913  0.00  0.00    +0.000 C 
BRANCH  15  16
ATOM     16  C   UNL     1       1.421   9.145  18.978  0.00  0.00    +0.000 C 
BRANCH  16  17
ATOM     17  C   UNL     1       0.329  10.085  19.410  0.00  0.00    +0.000 A 
ATOM     18  C   UNL     1      -0.540  10.696  18.518  0.00  0.00    +0.000 A 
ATOM     19  C   UNL     1      -1.526  11.545  19.020  0.00  0.00    +0.000 A 
ATOM     20  C   UNL     1      -1.649  11.775  20.380  0.00  0.00    +0.000 A 
ATOM     21  N   UNL     1      -2.591  12.627  20.843  0.00  0.00    +0.000 NA
ATOM     22  C   UNL     1      -2.648  12.825  22.176  0.00  0.00    +0.000 A 
ATOM     23  C   UNL     1      -1.817  12.190  23.077  0.00  0.00    +0.000 A 
ATOM     24  C   UNL     1      -0.865  11.305  22.575  0.00  0.00    +0.000 A 
ATOM     25  C   UNL     1      -0.744  11.087  21.211  0.00  0.00    +0.000 A 
ATOM     26  N   UNL     1       0.215  10.258  20.750  0.00  0.00    +0.000 NA
ENDBRANCH  16  17
ENDBRANCH  15  16
ENDBRANCH   3  15
TORSDOF 3
ENDMDL
