MODEL 1
REMARK VINA RESULT:      -7.4      0.000      0.000
REMARK  Name = 
REMARK  9 active torsions:
REMARK  status: ('A' for Active; 'I' for Inactive)
REMARK    1  A    between atoms: C_2  and  O_3
REMARK    2  A    between atoms: C_2  and  C_4
REMARK    3  A    between atoms: C_4  and  C_5
REMARK    4  A    between atoms: C_5  and  C_6
REMARK    5  A    between atoms: C_6  and  C_7
REMARK    6  A    between atoms: C_7  and  O_8
REMARK    7  A    between atoms: O_8  and  N_9
REMARK    8  A    between atoms: C_10  and  C_11
REMARK    9  A    between atoms: C_10  and  C_17
REMARK                            x       y       z     vdW  Elec       q    Type
REMARK                         _______ _______ _______ _____ _____    ______ ____
ROOT
ATOM      1  N   UNL     1       3.590   6.431  17.399  0.00  0.00    +0.000 NA
ATOM      2  C   UNL     1       4.209   5.297  17.203  0.00  0.00    +0.000 C 
ENDROOT
BRANCH   2   3
ATOM      3  C   UNL     1       3.776   3.966  17.765  0.00  0.00    +0.000 A 
ATOM      4  C   UNL     1       4.506   3.344  18.789  0.00  0.00    +0.000 A 
ATOM      5  C   UNL     1       4.123   2.093  19.277  0.00  0.00    +0.000 A 
ATOM      6  C   UNL     1       2.975   1.476  18.785  0.00  0.00    +0.000 A 
ATOM      7  C   UNL     1       2.223   2.098  17.791  0.00  0.00    +0.000 A 
ATOM      8  C   UNL     1       2.633   3.326  17.265  0.00  0.00    +0.000 A 
ENDBRANCH   2   3
BRANCH   2   9
ATOM      9  C   UNL     1       5.464   5.359  16.386  0.00  0.00    +0.000 A 
ATOM     10  C   UNL     1       5.535   4.669  15.179  0.00  0.00    +0.000 A 
ATOM     11  C   UNL     1       6.680   4.805  14.420  0.00  0.00    +0.000 A 
ATOM     12  N   UNL     1       7.723   5.565  14.811  0.00  0.00    +0.000 NA
ATOM     13  N   UNL     1       7.673   6.211  16.009  0.00  0.00    +0.000 NA
ATOM     14  C   UNL     1       6.569   6.095  16.778  0.00  0.00    +0.000 A 
ENDBRANCH   2   9
BRANCH   1  15
ATOM     15  O   UNL     1       2.508   6.308  18.272  0.00  0.00    +0.000 OA
BRANCH  15  16
ATOM     16  C   UNL     1       2.523   7.368  19.223  0.00  0.00    +0.000 C 
BRANCH  16  17
ATOM     17  C   UNL     1       1.882   6.851  20.510  0.00  0.00    +0.000 C 
BRANCH  17  18
ATOM     18  C   UNL     1       1.384   5.409  20.367  0.00  0.00    +0.000 C 
BRANCH  18  19
ATOM     19  C   UNL     1       2.152   4.459  21.280  0.00  0.00    +0.000 C 
BRANCH  19  21
ATOM     20  O   UNL     1       1.764   2.293  22.267  0.00  0.00    +0.000 OA
ATOM     21  C   UNL     1       1.444   3.135  21.442  0.00  0.00    +0.000 C 
BRANCH  21  22
ATOM     22  O   UNL     1       0.395   2.972  20.611  0.00  0.00    +0.000 OA
ATOM     23  H   UNL     1      -0.282   2.349  20.936  0.00  0.00    +0.000 HD
ENDBRANCH  21  22
ENDBRANCH  19  21
ENDBRANCH  18  19
ENDBRANCH  17  18
ENDBRANCH  16  17
ENDBRANCH  15  16
ENDBRANCH   1  15
TORSDOF 9
ENDMDL
MODEL 2
REMARK VINA RESULT:      -7.1      1.820      3.716
REMARK  Name = 
REMARK  9 active torsions:
REMARK  status: ('A' for Active; 'I' for Inactive)
REMARK    1  A    between atoms: C_2  and  O_3
REMARK    2  A    between atoms: C_2  and  C_4
REMARK    3  A    between atoms: C_4  and  C_5
REMARK    4  A    between atoms: C_5  and  C_6
REMARK    5  A    between atoms: C_6  and  C_7
REMARK    6  A    between atoms: C_7  and  O_8
REMARK    7  A    between atoms: O_8  and  N_9
REMARK    8  A    between atoms: C_10  and  C_11
REMARK    9  A    between atoms: C_10  and  C_17
REMARK                            x       y       z     vdW  Elec       q    Type
REMARK                         _______ _______ _______ _____ _____    ______ ____
ROOT
ATOM      1  N   UNL     1       2.846   4.314  17.444  0.00  0.00    +0.000 NA
ATOM      2  C   UNL     1       3.424   5.473  17.619  0.00  0.00    +0.000 C 
ENDROOT
BRANCH   2   3
ATOM      3  C   UNL     1       2.769   6.681  18.243  0.00  0.00    +0.000 A 
ATOM      4  C   UNL     1       2.504   6.727  19.619  0.00  0.00    +0.000 A 
ATOM      5  C   UNL     1       1.860   7.831  20.183  0.00  0.00    +0.000 A 
ATOM      6  C   UNL     1       1.526   8.924  19.386  0.00  0.00    +0.000 A 
ATOM      7  C   UNL     1       1.814   8.904  18.023  0.00  0.00    +0.000 A 
ATOM      8  C   UNL     1       2.411   7.779  17.448  0.00  0.00    +0.000 A 
ENDBRANCH   2   3
BRANCH   2   9
ATOM      9  C   UNL     1       4.832   5.595  17.120  0.00  0.00    +0.000 A 
ATOM     10  C   UNL     1       5.203   4.954  15.941  0.00  0.00    +0.000 A 
ATOM     11  C   UNL     1       6.488   5.147  15.476  0.00  0.00    +0.000 A 
ATOM     12  N   UNL     1       7.386   5.916  16.123  0.00  0.00    +0.000 NA
ATOM     13  N   UNL     1       7.039   6.514  17.295  0.00  0.00    +0.000 NA
ATOM     14  C   UNL     1       5.791   6.342  17.782  0.00  0.00    +0.000 A 
ENDBRANCH   2   9
BRANCH   1  15
ATOM     15  O   UNL     1       1.502   4.322  17.817  0.00  0.00    +0.000 OA
BRANCH  15  16
ATOM     16  C   UNL     1       1.197   3.157  18.576  0.00  0.00    +0.000 C 
BRANCH  16  17
ATOM     17  C   UNL     1       1.095   3.568  20.044  0.00  0.00    +0.000 C 
BRANCH  17  18
ATOM     18  C   UNL     1       2.254   3.015  20.880  0.00  0.00    +0.000 C 
BRANCH  18  19
ATOM     19  C   UNL     1       3.063   1.984  20.101  0.00  0.00    +0.000 C 
BRANCH  19  21
ATOM     20  O   UNL     1       5.208   1.687  21.161  0.00  0.00    +0.000 OA
ATOM     21  C   UNL     1       4.550   2.191  20.265  0.00  0.00    +0.000 C 
BRANCH  21  22
ATOM     22  O   UNL     1       5.102   2.961  19.306  0.00  0.00    +0.000 OA
ATOM     23  H   UNL     1       5.100   3.916  19.506  0.00  0.00    +0.000 HD
ENDBRANCH  21  22
ENDBRANCH  19  21
ENDBRANCH  18  19
ENDBRANCH  17  18
ENDBRANCH  16  17
ENDBRANCH  15  16
ENDBRANCH   1  15
TORSDOF 9
ENDMDL
MODEL 3
REMARK VINA RESULT:      -7.0      2.231      4.132
REMARK  Name = 
REMARK  9 active torsions:
REMARK  status: ('A' for Active; 'I' for Inactive)
REMARK    1  A    between atoms: C_2  and  O_3
REMARK    2  A    between atoms: C_2  and  C_4
REMARK    3  A    between atoms: C_4  and  C_5
REMARK    4  A    between atoms: C_5  and  C_6
REMARK    5  A    between atoms: C_6  and  C_7
REMARK    6  A    between atoms: C_7  and  O_8
REMARK    7  A    between atoms: O_8  and  N_9
REMARK    8  A    between atoms: C_10  and  C_11
REMARK    9  A    between atoms: C_10  and  C_17
REMARK                            x       y       z     vdW  Elec       q    Type
REMARK                         _______ _______ _______ _____ _____    ______ ____
ROOT
ATOM      1  N   UNL     1       3.014   4.703  17.754  0.00  0.00    +0.000 NA
ATOM      2  C   UNL     1       3.515   5.815  18.223  0.00  0.00    +0.000 C 
ENDROOT
BRANCH   2   3
ATOM      3  C   UNL     1       2.705   6.999  18.691  0.00  0.00    +0.000 A 
ATOM      4  C   UNL     1       2.256   7.086  20.017  0.00  0.00    +0.000 A 
ATOM      5  C   UNL     1       1.472   8.164  20.434  0.00  0.00    +0.000 A 
ATOM      6  C   UNL     1       1.177   9.194  19.545  0.00  0.00    +0.000 A 
ATOM      7  C   UNL     1       1.645   9.136  18.234  0.00  0.00    +0.000 A 
ATOM      8  C   UNL     1       2.385   8.034  17.801  0.00  0.00    +0.000 A 
ENDBRANCH   2   3
BRANCH   2   9
ATOM      9  C   UNL     1       5.010   5.911  18.249  0.00  0.00    +0.000 A 
ATOM     10  C   UNL     1       5.668   6.689  17.300  0.00  0.00    +0.000 A 
ATOM     11  C   UNL     1       7.039   6.809  17.398  0.00  0.00    +0.000 A 
ATOM     12  N   UNL     1       7.754   6.197  18.363  0.00  0.00    +0.000 NA
ATOM     13  N   UNL     1       7.119   5.405  19.271  0.00  0.00    +0.000 NA
ATOM     14  C   UNL     1       5.778   5.261  19.200  0.00  0.00    +0.000 A 
ENDBRANCH   2   9
BRANCH   1  15
ATOM     15  O   UNL     1       1.623   4.745  17.643  0.00  0.00    +0.000 OA
BRANCH  15  16
ATOM     16  C   UNL     1       1.055   3.542  18.152  0.00  0.00    +0.000 C 
BRANCH  16  17
ATOM     17  C   UNL     1       0.979   3.667  19.673  0.00  0.00    +0.000 C 
BRANCH  17  18
ATOM     18  C   UNL     1       1.692   2.511  20.383  0.00  0.00    +0.000 C 
BRANCH  18  19
ATOM     19  C   UNL     1       3.173   2.811  20.591  0.00  0.00    +0.000 C 
BRANCH  19  21
ATOM     20  O   UNL     1       3.710   1.450  18.674  0.00  0.00    +0.000 OA
ATOM     21  C   UNL     1       4.054   1.921  19.747  0.00  0.00    +0.000 C 
BRANCH  21  22
ATOM     22  O   UNL     1       5.280   1.715  20.269  0.00  0.00    +0.000 OA
ATOM     23  H   UNL     1       5.567   0.782  20.265  0.00  0.00    +0.000 HD
ENDBRANCH  21  22
ENDBRANCH  19  21
ENDBRANCH  18  19
ENDBRANCH  17  18
ENDBRANCH  16  17
ENDBRANCH  15  16
ENDBRANCH   1  15
TORSDOF 9
ENDMDL
MODEL 4
REMARK VINA RESULT:      -6.9      2.692      3.512
REMARK  Name = 
REMARK  9 active torsions:
REMARK  status: ('A' for Active; 'I' for Inactive)
REMARK    1  A    between atoms: C_2  and  O_3
REMARK    2  A    between atoms: C_2  and  C_4
REMARK    3  A    between atoms: C_4  and  C_5
REMARK    4  A    between atoms: C_5  and  C_6
REMARK    5  A    between atoms: C_6  and  C_7
REMARK    6  A    between atoms: C_7  and  O_8
REMARK    7  A    between atoms: O_8  and  N_9
REMARK    8  A    between atoms: C_10  and  C_11
REMARK    9  A    between atoms: C_10  and  C_17
REMARK                            x       y       z     vdW  Elec       q    Type
REMARK                         _______ _______ _______ _____ _____    ______ ____
ROOT
ATOM      1  N   UNL     1       3.549   7.255  17.750  0.00  0.00    +0.000 NA
ATOM      2  C   UNL     1       3.753   6.000  18.052  0.00  0.00    +0.000 C 
ENDROOT
BRANCH   2   3
ATOM      3  C   UNL     1       2.742   5.092  18.708  0.00  0.00    +0.000 A 
ATOM      4  C   UNL     1       2.461   5.197  20.078  0.00  0.00    +0.000 A 
ATOM      5  C   UNL     1       1.555   4.326  20.687  0.00  0.00    +0.000 A 
ATOM      6  C   UNL     1       0.879   3.378  19.922  0.00  0.00    +0.000 A 
ATOM      7  C   UNL     1       1.126   3.285  18.553  0.00  0.00    +0.000 A 
ATOM      8  C   UNL     1       2.070   4.121  17.952  0.00  0.00    +0.000 A 
ENDBRANCH   2   3
BRANCH   2   9
ATOM      9  C   UNL     1       5.117   5.458  17.749  0.00  0.00    +0.000 A 
ATOM     10  C   UNL     1       5.505   5.266  16.425  0.00  0.00    +0.000 A 
ATOM     11  C   UNL     1       6.792   4.832  16.183  0.00  0.00    +0.000 A 
ATOM     12  N   UNL     1       7.671   4.579  17.174  0.00  0.00    +0.000 NA
ATOM     13  N   UNL     1       7.284   4.730  18.471  0.00  0.00    +0.000 NA
ATOM     14  C   UNL     1       6.030   5.148  18.743  0.00  0.00    +0.000 A 
ENDBRANCH   2   9
BRANCH   1  15
ATOM     15  O   UNL     1       2.303   7.715  18.179  0.00  0.00    +0.000 OA
BRANCH  15  16
ATOM     16  C   UNL     1       2.187   9.113  17.938  0.00  0.00    +0.000 C 
BRANCH  16  17
ATOM     17  C   UNL     1       1.007   9.633  18.757  0.00  0.00    +0.000 C 
BRANCH  17  18
ATOM     18  C   UNL     1       1.038   9.122  20.202  0.00  0.00    +0.000 C 
BRANCH  18  19
ATOM     19  C   UNL     1       0.083   9.908  21.093  0.00  0.00    +0.000 C 
BRANCH  19  21
ATOM     20  O   UNL     1       0.821   9.731  23.382  0.00  0.00    +0.000 OA
ATOM     21  C   UNL     1       0.053   9.369  22.504  0.00  0.00    +0.000 C 
BRANCH  21  22
ATOM     22  O   UNL     1      -0.926   8.468  22.723  0.00  0.00    +0.000 OA
ATOM     23  H   UNL     1      -0.639   7.538  22.655  0.00  0.00    +0.000 HD
ENDBRANCH  21  22
ENDBRANCH  19  21
ENDBRANCH  18  19
ENDBRANCH  17  18
ENDBRANCH  16  17
ENDBRANCH  15  16
ENDBRANCH   1  15
TORSDOF 9
ENDMDL
MODEL 5
REMARK VINA RESULT:      -6.9      2.732      5.529
REMARK  Name = 
REMARK  9 active torsions:
REMARK  status: ('A' for Active; 'I' for Inactive)
REMARK    1  A    between atoms: C_2  and  O_3
REMARK    2  A    between atoms: C_2  and  C_4
REMARK    3  A    between atoms: C_4  and  C_5
REMARK    4  A    between atoms: C_5  and  C_6
REMARK    5  A    between atoms: C_6  and  C_7
REMARK    6  A    between atoms: C_7  and  O_8
REMARK    7  A    between atoms: O_8  and  N_9
REMARK    8  A    between atoms: C_10  and  C_11
REMARK    9  A    between atoms: C_10  and  C_17
REMARK                            x       y       z     vdW  Elec       q    Type
REMARK                         _______ _______ _______ _____ _____    ______ ____
ROOT
ATOM      1  N   UNL     1       3.882   6.115  18.108  0.00  0.00    +0.000 NA
ATOM      2  C   UNL     1       2.859   6.156  18.920  0.00  0.00    +0.000 C 
ENDROOT
BRANCH   2   3
ATOM      3  C   UNL     1       2.272   4.963  19.634  0.00  0.00    +0.000 A 
ATOM      4  C   UNL     1       2.651   4.651  20.948  0.00  0.00    +0.000 A 
ATOM      5  C   UNL     1       2.134   3.522  21.588  0.00  0.00    +0.000 A 
ATOM      6  C   UNL     1       1.192   2.726  20.941  0.00  0.00    +0.000 A 
ATOM      7  C   UNL     1       0.783   3.044  19.648  0.00  0.00    +0.000 A 
ATOM      8  C   UNL     1       1.337   4.143  18.987  0.00  0.00    +0.000 A 
ENDBRANCH   2   3
BRANCH   2   9
ATOM      9  C   UNL     1       2.215   7.496  19.109  0.00  0.00    +0.000 A 
ATOM     10  C   UNL     1       2.111   8.369  18.029  0.00  0.00    +0.000 A 
ATOM     11  C   UNL     1       1.450   9.565  18.224  0.00  0.00    +0.000 A 
ATOM     12  N   UNL     1       0.918   9.914  19.412  0.00  0.00    +0.000 NA
ATOM     13  N   UNL     1       1.049   9.080  20.479  0.00  0.00    +0.000 NA
ATOM     14  C   UNL     1       1.696   7.904  20.325  0.00  0.00    +0.000 A 
ENDBRANCH   2   9
BRANCH   1  15
ATOM     15  O   UNL     1       4.342   4.816  17.889  0.00  0.00    +0.000 OA
BRANCH  15  16
ATOM     16  C   UNL     1       4.779   4.672  16.541  0.00  0.00    +0.000 C 
BRANCH  16  17
ATOM     17  C   UNL     1       5.588   5.916  16.176  0.00  0.00    +0.000 C 
BRANCH  17  18
ATOM     18  C   UNL     1       7.047   5.810  16.633  0.00  0.00    +0.000 C 
BRANCH  18  19
ATOM     19  C   UNL     1       7.278   6.554  17.944  0.00  0.00    +0.000 C 
BRANCH  19  21
ATOM     20  O   UNL     1       8.554   5.130  19.413  0.00  0.00    +0.000 OA
ATOM     21  C   UNL     1       7.473   5.607  19.104  0.00  0.00    +0.000 C 
BRANCH  21  22
ATOM     22  O   UNL     1       6.346   5.357  19.800  0.00  0.00    +0.000 OA
ATOM     23  H   UNL     1       5.744   6.121  19.880  0.00  0.00    +0.000 HD
ENDBRANCH  21  22
ENDBRANCH  19  21
ENDBRANCH  18  19
ENDBRANCH  17  18
ENDBRANCH  16  17
ENDBRANCH  15  16
ENDBRANCH   1  15
TORSDOF 9
ENDMDL
MODEL 6
REMARK VINA RESULT:      -6.9      1.968      4.095
REMARK  Name = 
REMARK  9 active torsions:
REMARK  status: ('A' for Active; 'I' for Inactive)
REMARK    1  A    between atoms: C_2  and  O_3
REMARK    2  A    between atoms: C_2  and  C_4
REMARK    3  A    between atoms: C_4  and  C_5
REMARK    4  A    between atoms: C_5  and  C_6
REMARK    5  A    between atoms: C_6  and  C_7
REMARK    6  A    between atoms: C_7  and  O_8
REMARK    7  A    between atoms: O_8  and  N_9
REMARK    8  A    between atoms: C_10  and  C_11
REMARK    9  A    between atoms: C_10  and  C_17
REMARK                            x       y       z     vdW  Elec       q    Type
REMARK                         _______ _______ _______ _____ _____    ______ ____
ROOT
ATOM      1  N   UNL     1       2.938   4.847  17.607  0.00  0.00    +0.000 NA
ATOM      2  C   UNL     1       3.451   5.983  18.000  0.00  0.00    +0.000 C 
ENDROOT
BRANCH   2   3
ATOM      3  C   UNL     1       2.659   7.149  18.539  0.00  0.00    +0.000 A 
ATOM      4  C   UNL     1       2.261   7.189  19.883  0.00  0.00    +0.000 A 
ATOM      5  C   UNL     1       1.494   8.251  20.367  0.00  0.00    +0.000 A 
ATOM      6  C   UNL     1       1.165   9.311  19.525  0.00  0.00    +0.000 A 
ATOM      7  C   UNL     1       1.583   9.299  18.196  0.00  0.00    +0.000 A 
ATOM      8  C   UNL     1       2.306   8.213  17.697  0.00  0.00    +0.000 A 
ENDBRANCH   2   3
BRANCH   2   9
ATOM      9  C   UNL     1       4.935   6.127  17.856  0.00  0.00    +0.000 A 
ATOM     10  C   UNL     1       5.777   5.600  18.833  0.00  0.00    +0.000 A 
ATOM     11  C   UNL     1       7.139   5.690  18.632  0.00  0.00    +0.000 A 
ATOM     12  N   UNL     1       7.675   6.274  17.542  0.00  0.00    +0.000 NA
ATOM     13  N   UNL     1       6.856   6.823  16.602  0.00  0.00    +0.000 NA
ATOM     14  C   UNL     1       5.518   6.757  16.770  0.00  0.00    +0.000 A 
ENDBRANCH   2   9
BRANCH   1  15
ATOM     15  O   UNL     1       1.544   4.842  17.653  0.00  0.00    +0.000 OA
BRANCH  15  16
ATOM     16  C   UNL     1       1.077   3.642  18.260  0.00  0.00    +0.000 C 
BRANCH  16  17
ATOM     17  C   UNL     1       1.126   3.834  19.775  0.00  0.00    +0.000 C 
BRANCH  17  18
ATOM     18  C   UNL     1       1.872   2.695  20.478  0.00  0.00    +0.000 C 
BRANCH  18  19
ATOM     19  C   UNL     1       2.632   1.826  19.482  0.00  0.00    +0.000 C 
BRANCH  19  21
ATOM     20  O   UNL     1       4.813   2.026  20.491  0.00  0.00    +0.000 OA
ATOM     21  C   UNL     1       4.113   2.117  19.493  0.00  0.00    +0.000 C 
BRANCH  21  22
ATOM     22  O   UNL     1       4.612   2.458  18.287  0.00  0.00    +0.000 OA
ATOM     23  H   UNL     1       5.352   1.898  17.986  0.00  0.00    +0.000 HD
ENDBRANCH  21  22
ENDBRANCH  19  21
ENDBRANCH  18  19
ENDBRANCH  17  18
ENDBRANCH  16  17
ENDBRANCH  15  16
ENDBRANCH   1  15
TORSDOF 9
ENDMDL
MODEL 7
REMARK VINA RESULT:      -6.9      2.758      5.871
REMARK  Name = 
REMARK  9 active torsions:
REMARK  status: ('A' for Active; 'I' for Inactive)
REMARK    1  A    between atoms: C_2  and  O_3
REMARK    2  A    between atoms: C_2  and  C_4
REMARK    3  A    between atoms: C_4  and  C_5
REMARK    4  A    between atoms: C_5  and  C_6
REMARK    5  A    between atoms: C_6  and  C_7
REMARK    6  A    between atoms: C_7  and  O_8
REMARK    7  A    between atoms: O_8  and  N_9
REMARK    8  A    between atoms: C_10  and  C_11
REMARK    9  A    between atoms: C_10  and  C_17
REMARK                            x       y       z     vdW  Elec       q    Type
REMARK                         _______ _______ _______ _____ _____    ______ ____
ROOT
ATOM      1  N   UNL     1       4.417   6.042  19.395  0.00  0.00    +0.000 NA
ATOM      2  C   UNL     1       3.111   6.015  19.367  0.00  0.00    +0.000 C 
ENDROOT
BRANCH   2   3
ATOM      3  C   UNL     1       2.268   4.765  19.431  0.00  0.00    +0.000 A 
ATOM      4  C   UNL     1       1.897   4.085  18.261  0.00  0.00    +0.000 A 
ATOM      5  C   UNL     1       1.083   2.952  18.325  0.00  0.00    +0.000 A 
ATOM      6  C   UNL     1       0.679   2.454  19.561  0.00  0.00    +0.000 A 
ATOM      7  C   UNL     1       1.068   3.101  20.732  0.00  0.00    +0.000 A 
ATOM      8  C   UNL     1       1.840   4.265  20.668  0.00  0.00    +0.000 A 
ENDBRANCH   2   3
BRANCH   2   9
ATOM      9  C   UNL     1       2.423   7.339  19.220  0.00  0.00    +0.000 A 
ATOM     10  C   UNL     1       2.473   8.010  18.001  0.00  0.00    +0.000 A 
ATOM     11  C   UNL     1       1.770   9.192  17.883  0.00  0.00    +0.000 A 
ATOM     12  N   UNL     1       1.055   9.716  18.898  0.00  0.00    +0.000 NA
ATOM     13  N   UNL     1       1.034   9.082  20.103  0.00  0.00    +0.000 NA
ATOM     14  C   UNL     1       1.716   7.926  20.255  0.00  0.00    +0.000 A 
ENDBRANCH   2   9
BRANCH   1  15
ATOM     15  O   UNL     1       4.980   4.765  19.403  0.00  0.00    +0.000 OA
BRANCH  15  16
ATOM     16  C   UNL     1       5.706   4.541  18.199  0.00  0.00    +0.000 C 
BRANCH  16  17
ATOM     17  C   UNL     1       6.307   5.876  17.760  0.00  0.00    +0.000 C 
BRANCH  17  18
ATOM     18  C   UNL     1       5.870   6.267  16.344  0.00  0.00    +0.000 C 
BRANCH  18  19
ATOM     19  C   UNL     1       5.487   5.044  15.519  0.00  0.00    +0.000 C 
BRANCH  19  21
ATOM     20  O   UNL     1       7.582   5.315  14.356  0.00  0.00    +0.000 OA
ATOM     21  C   UNL     1       6.585   4.640  14.564  0.00  0.00    +0.000 C 
BRANCH  21  22
ATOM     22  O   UNL     1       6.386   3.442  13.978  0.00  0.00    +0.000 OA
ATOM     23  H   UNL     1       7.169   3.083  13.520  0.00  0.00    +0.000 HD
ENDBRANCH  21  22
ENDBRANCH  19  21
ENDBRANCH  18  19
ENDBRANCH  17  18
ENDBRANCH  16  17
ENDBRANCH  15  16
ENDBRANCH   1  15
TORSDOF 9
ENDMDL
MODEL 8
REMARK VINA RESULT:      -6.8      2.855      3.916
REMARK  Name = 
REMARK  9 active torsions:
REMARK  status: ('A' for Active; 'I' for Inactive)
REMARK    1  A    between atoms: C_2  and  O_3
REMARK    2  A    between atoms: C_2  and  C_4
REMARK    3  A    between atoms: C_4  and  C_5
REMARK    4  A    between atoms: C_5  and  C_6
REMARK    5  A    between atoms: C_6  and  C_7
REMARK    6  A    between atoms: C_7  and  O_8
REMARK    7  A    between atoms: O_8  and  N_9
REMARK    8  A    between atoms: C_10  and  C_11
REMARK    9  A    between atoms: C_10  and  C_17
REMARK                            x       y       z     vdW  Elec       q    Type
REMARK                         _______ _______ _______ _____ _____    ______ ____
ROOT
ATOM      1  N   UNL     1       3.193   7.734  17.742  0.00  0.00    +0.000 NA
ATOM      2  C   UNL     1       3.524   6.489  17.963  0.00  0.00    +0.000 C 
ENDROOT
BRANCH   2   3
ATOM      3  C   UNL     1       2.636   5.462  18.624  0.00  0.00    +0.000 A 
ATOM      4  C   UNL     1       2.407   5.491  20.007  0.00  0.00    +0.000 A 
ATOM      5  C   UNL     1       1.618   4.514  20.618  0.00  0.00    +0.000 A 
ATOM      6  C   UNL     1       1.005   3.531  19.845  0.00  0.00    +0.000 A 
ATOM      7  C   UNL     1       1.199   3.511  18.465  0.00  0.00    +0.000 A 
ATOM      8  C   UNL     1       2.029   4.457  17.859  0.00  0.00    +0.000 A 
ENDBRANCH   2   3
BRANCH   2   9
ATOM      9  C   UNL     1       4.908   6.087  17.556  0.00  0.00    +0.000 A 
ATOM     10  C   UNL     1       5.716   5.391  18.452  0.00  0.00    +0.000 A 
ATOM     11  C   UNL     1       6.959   4.977  18.017  0.00  0.00    +0.000 A 
ATOM     12  N   UNL     1       7.414   5.230  16.774  0.00  0.00    +0.000 NA
ATOM     13  N   UNL     1       6.643   5.942  15.907  0.00  0.00    +0.000 NA
ATOM     14  C   UNL     1       5.423   6.368  16.301  0.00  0.00    +0.000 A 
ENDBRANCH   2   9
BRANCH   1  15
ATOM     15  O   UNL     1       1.941   8.059  18.265  0.00  0.00    +0.000 OA
BRANCH  15  16
ATOM     16  C   UNL     1       1.677   9.446  18.080  0.00  0.00    +0.000 C 
BRANCH  16  17
ATOM     17  C   UNL     1       0.795   9.912  19.237  0.00  0.00    +0.000 C 
BRANCH  17  18
ATOM     18  C   UNL     1       0.980   9.048  20.489  0.00  0.00    +0.000 C 
BRANCH  18  19
ATOM     19  C   UNL     1      -0.218   9.157  21.426  0.00  0.00    +0.000 C 
BRANCH  19  21
ATOM     20  O   UNL     1      -0.090  11.386  22.337  0.00  0.00    +0.000 OA
ATOM     21  C   UNL     1       0.005  10.180  22.513  0.00  0.00    +0.000 C 
BRANCH  21  22
ATOM     22  O   UNL     1       0.289   9.644  23.717  0.00  0.00    +0.000 OA
ATOM     23  H   UNL     1       1.126   9.955  24.109  0.00  0.00    +0.000 HD
ENDBRANCH  21  22
ENDBRANCH  19  21
ENDBRANCH  18  19
ENDBRANCH  17  18
ENDBRANCH  16  17
ENDBRANCH  15  16
ENDBRANCH   1  15
TORSDOF 9
ENDMDL
MODEL 9
REMARK VINA RESULT:      -6.8      2.743      3.706
REMARK  Name = 
REMARK  9 active torsions:
REMARK  status: ('A' for Active; 'I' for Inactive)
REMARK    1  A    between atoms: C_2  and  O_3
REMARK    2  A    between atoms: C_2  and  C_4
REMARK    3  A    between atoms: C_4  and  C_5
REMARK    4  A    between atoms: C_5  and  C_6
REMARK    5  A    between atoms: C_6  and  C_7
REMARK    6  A    between atoms: C_7  and  O_8
REMARK    7  A    between atoms: O_8  and  N_9
REMARK    8  A    between atoms: C_10  and  C_11
REMARK    9  A    between atoms: C_10  and  C_17
REMARK                            x       y       z     vdW  Elec       q    Type
REMARK                         _______ _______ _______ _____ _____    ______ ____
ROOT
ATOM      1  N   UNL     1       3.508   6.881  17.653  0.00  0.00    +0.000 NA
ATOM      2  C   UNL     1       3.763   5.704  18.159  0.00  0.00    +0.000 C 
ENDROOT
BRANCH   2   3
ATOM      3  C   UNL     1       2.736   4.785  18.774  0.00  0.00    +0.000 A 
ATOM      4  C   UNL     1       2.087   3.811  18.002  0.00  0.00    +0.000 A 
ATOM      5  C   UNL     1       1.108   2.991  18.567  0.00  0.00    +0.000 A 
ATOM      6  C   UNL     1       0.808   3.099  19.923  0.00  0.00    +0.000 A 
ATOM      7  C   UNL     1       1.469   4.041  20.708  0.00  0.00    +0.000 A 
ATOM      8  C   UNL     1       2.412   4.897  20.133  0.00  0.00    +0.000 A 
ENDBRANCH   2   3
BRANCH   2   9
ATOM      9  C   UNL     1       5.199   5.274  18.150  0.00  0.00    +0.000 A 
ATOM     10  C   UNL     1       5.776   4.823  16.966  0.00  0.00    +0.000 A 
ATOM     11  C   UNL     1       7.119   4.502  16.981  0.00  0.00    +0.000 A 
ATOM     12  N   UNL     1       7.875   4.599  18.092  0.00  0.00    +0.000 NA
ATOM     13  N   UNL     1       7.306   5.003  19.260  0.00  0.00    +0.000 NA
ATOM     14  C   UNL     1       5.994   5.320  19.283  0.00  0.00    +0.000 A 
ENDBRANCH   2   9
BRANCH   1  15
ATOM     15  O   UNL     1       2.175   7.259  17.815  0.00  0.00    +0.000 OA
BRANCH  15  16
ATOM     16  C   UNL     1       2.100   8.555  18.399  0.00  0.00    +0.000 C 
BRANCH  16  17
ATOM     17  C   UNL     1       1.519   8.403  19.804  0.00  0.00    +0.000 C 
BRANCH  17  18
ATOM     18  C   UNL     1       0.815   9.679  20.279  0.00  0.00    +0.000 C 
BRANCH  18  19
ATOM     19  C   UNL     1      -0.125   9.397  21.446  0.00  0.00    +0.000 C 
BRANCH  19  21
ATOM     20  O   UNL     1       1.796   9.579  22.892  0.00  0.00    +0.000 OA
ATOM     21  C   UNL     1       0.584   9.484  22.777  0.00  0.00    +0.000 C 
BRANCH  21  22
ATOM     22  O   UNL     1      -0.247   9.481  23.839  0.00  0.00    +0.000 OA
ATOM     23  H   UNL     1       0.205   9.463  24.703  0.00  0.00    +0.000 HD
ENDBRANCH  21  22
ENDBRANCH  19  21
ENDBRANCH  18  19
ENDBRANCH  17  18
ENDBRANCH  16  17
ENDBRANCH  15  16
ENDBRANCH   1  15
TORSDOF 9
ENDMDL
