MODEL 1
REMARK VINA RESULT:      -8.8      0.000      0.000
REMARK  Name = 
REMARK  8 active torsions:
REMARK  status: ('A' for Active; 'I' for Inactive)
REMARK    1  A    between atoms: C_1  and  C_2
REMARK    2  A    between atoms: C_2  and  C_4
REMARK    3  A    between atoms: C_7  and  N_8
REMARK    4  A    between atoms: N_8  and  C_9
REMARK    5  A    between atoms: C_9  and  C_10
REMARK    6  A    between atoms: N_12  and  C_13
REMARK    7  A    between atoms: C_13  and  C_14
REMARK    8  A    between atoms: C_23  and  C_25
REMARK                            x       y       z     vdW  Elec       q    Type
REMARK                         _______ _______ _______ _____ _____    ______ ____
ROOT
ATOM      1  N   UNL     1       4.428   4.211  18.011  0.00  0.00    +0.000 N 
ATOM      2  C   UNL     1       3.753   3.010  18.371  0.00  0.00    +0.000 C 
ATOM      3  O   UNL     1       3.643   2.048  17.610  0.00  0.00    +0.000 OA
ENDROOT
BRANCH   1   7
ATOM      4  C   UNL     1       6.844   4.742  14.448  0.00  0.00    +0.000 A 
ATOM      5  C   UNL     1       7.417   4.804  15.711  0.00  0.00    +0.000 A 
ATOM      6  C   UNL     1       6.646   4.578  16.865  0.00  0.00    +0.000 A 
ATOM      7  C   UNL     1       5.272   4.292  16.810  0.00  0.00    +0.000 A 
ATOM      8  C   UNL     1       4.735   4.161  15.510  0.00  0.00    +0.000 A 
ATOM      9  C   UNL     1       5.498   4.390  14.346  0.00  0.00    +0.000 A 
BRANCH   4  11
ATOM     10  C   UNL     1       7.379   4.463  11.938  0.00  0.00    +0.000 C 
ATOM     11  C   UNL     1       7.688   5.090  13.269  0.00  0.00    +0.000 C 
ATOM     12  O   UNL     1       8.625   5.882  13.406  0.00  0.00    +0.000 OA
ENDBRANCH   4  11
ENDBRANCH   1   7
BRANCH   2  13
ATOM     13  C   UNL     1       3.088   2.865  19.680  0.00  0.00    +0.000 A 
ATOM     14  C   UNL     1       1.721   3.071  19.842  0.00  0.00    +0.000 A 
ATOM     15  S   UNL     1       1.330   2.788  21.483  0.00  0.00    +0.000 S 
ATOM     16  N   UNL     1       2.900   2.382  21.879  0.00  0.00    +0.000 NA
ATOM     17  N   UNL     1       3.715   2.424  20.841  0.00  0.00    +0.000 NA
ENDBRANCH   2  13
BRANCH   1  18
ATOM     18  C   UNL     1       4.331   5.431  18.849  0.00  0.00    +0.000 C 
BRANCH  18  19
ATOM     19  C   UNL     1       3.751   6.674  18.142  0.00  0.00    +0.000 C 
ATOM     20  O   UNL     1       4.434   7.370  17.395  0.00  0.00    +0.000 OA
ATOM     21  N   UNL     1       2.428   6.933  18.413  0.00  0.00    +0.000 N 
ATOM     22  H   UNL     1       1.888   6.277  18.965  0.00  0.00    +0.000 HD
BRANCH  21  23
ATOM     23  C   UNL     1       1.748   8.134  17.953  0.00  0.00    +0.000 C 
BRANCH  23  24
ATOM     24  C   UNL     1       1.544   9.079  19.107  0.00  0.00    +0.000 A 
ATOM     25  C   UNL     1       1.293  10.453  18.868  0.00  0.00    +0.000 A 
ATOM     26  C   UNL     1       0.837  11.289  19.892  0.00  0.00    +0.000 A 
ATOM     27  C   UNL     1       0.603  10.712  21.116  0.00  0.00    +0.000 A 
ATOM     28  C   UNL     1       0.909   9.395  21.369  0.00  0.00    +0.000 A 
ATOM     29  C   UNL     1       1.431   8.562  20.407  0.00  0.00    +0.000 A 
ATOM     30  O   UNL     1       0.514   9.002  22.614  0.00  0.00    +0.000 OA
ATOM     31  C   UNL     1      -0.373  10.102  22.926  0.00  0.00    +0.000 C 
ATOM     32  O   UNL     1      -0.048  11.289  22.162  0.00  0.00    +0.000 OA
ENDBRANCH  23  24
ENDBRANCH  21  23
ENDBRANCH  18  19
ENDBRANCH   1  18
TORSDOF 7
ENDMDL
MODEL 2
REMARK VINA RESULT:      -8.7      0.842      1.399
REMARK  Name = 
REMARK  8 active torsions:
REMARK  status: ('A' for Active; 'I' for Inactive)
REMARK    1  A    between atoms: C_1  and  C_2
REMARK    2  A    between atoms: C_2  and  C_4
REMARK    3  A    between atoms: C_7  and  N_8
REMARK    4  A    between atoms: N_8  and  C_9
REMARK    5  A    between atoms: C_9  and  C_10
REMARK    6  A    between atoms: N_12  and  C_13
REMARK    7  A    between atoms: C_13  and  C_14
REMARK    8  A    between atoms: C_23  and  C_25
REMARK                            x       y       z     vdW  Elec       q    Type
REMARK                         _______ _______ _______ _____ _____    ______ ____
ROOT
ATOM      1  N   UNL     1       4.394   4.185  17.993  0.00  0.00    +0.000 N 
ATOM      2  C   UNL     1       3.843   2.944  18.424  0.00  0.00    +0.000 C 
ATOM      3  O   UNL     1       3.850   1.928  17.728  0.00  0.00    +0.000 OA
ENDROOT
BRANCH   1   7
ATOM      4  C   UNL     1       6.842   4.747  14.457  0.00  0.00    +0.000 A 
ATOM      5  C   UNL     1       7.405   4.790  15.726  0.00  0.00    +0.000 A 
ATOM      6  C   UNL     1       6.622   4.553  16.870  0.00  0.00    +0.000 A 
ATOM      7  C   UNL     1       5.247   4.277  16.800  0.00  0.00    +0.000 A 
ATOM      8  C   UNL     1       4.720   4.166  15.494  0.00  0.00    +0.000 A 
ATOM      9  C   UNL     1       5.494   4.406  14.339  0.00  0.00    +0.000 A 
BRANCH   4  11
ATOM     10  C   UNL     1       7.394   4.500  11.948  0.00  0.00    +0.000 C 
ATOM     11  C   UNL     1       7.697   5.106  13.289  0.00  0.00    +0.000 C 
ATOM     12  O   UNL     1       8.639   5.890  13.445  0.00  0.00    +0.000 OA
ENDBRANCH   4  11
ENDBRANCH   1   7
BRANCH   2  13
ATOM     13  C   UNL     1       3.171   2.816  19.731  0.00  0.00    +0.000 A 
ATOM     14  C   UNL     1       1.789   2.922  19.867  0.00  0.00    +0.000 A 
ATOM     15  S   UNL     1       1.396   2.695  21.516  0.00  0.00    +0.000 S 
ATOM     16  N   UNL     1       2.987   2.433  21.950  0.00  0.00    +0.000 NA
ATOM     17  N   UNL     1       3.812   2.484  20.921  0.00  0.00    +0.000 NA
ENDBRANCH   2  13
BRANCH   1  18
ATOM     18  C   UNL     1       4.151   5.440  18.745  0.00  0.00    +0.000 C 
BRANCH  18  19
ATOM     19  C   UNL     1       2.927   6.260  18.286  0.00  0.00    +0.000 C 
ATOM     20  O   UNL     1       1.946   5.724  17.776  0.00  0.00    +0.000 OA
ATOM     21  N   UNL     1       3.024   7.615  18.491  0.00  0.00    +0.000 N 
ATOM     22  H   UNL     1       3.817   7.994  18.997  0.00  0.00    +0.000 HD
BRANCH  21  23
ATOM     23  C   UNL     1       2.036   8.562  17.998  0.00  0.00    +0.000 C 
BRANCH  23  24
ATOM     24  C   UNL     1       1.247   9.123  19.150  0.00  0.00    +0.000 A 
ATOM     25  C   UNL     1       1.353   8.540  20.438  0.00  0.00    +0.000 A 
ATOM     26  C   UNL     1       0.851   9.195  21.567  0.00  0.00    +0.000 A 
ATOM     27  C   UNL     1       0.298  10.438  21.377  0.00  0.00    +0.000 A 
ATOM     28  C   UNL     1       0.133  10.976  20.122  0.00  0.00    +0.000 A 
ATOM     29  C   UNL     1       0.545  10.326  18.981  0.00  0.00    +0.000 A 
ATOM     30  O   UNL     1      -0.351  12.250  20.165  0.00  0.00    +0.000 OA
ATOM     31  C   UNL     1      -0.109  12.535  21.563  0.00  0.00    +0.000 C 
ATOM     32  O   UNL     1      -0.034  11.325  22.354  0.00  0.00    +0.000 OA
ENDBRANCH  23  24
ENDBRANCH  21  23
ENDBRANCH  18  19
ENDBRANCH   1  18
TORSDOF 7
ENDMDL
MODEL 3
REMARK VINA RESULT:      -8.3      0.836      1.610
REMARK  Name = 
REMARK  8 active torsions:
REMARK  status: ('A' for Active; 'I' for Inactive)
REMARK    1  A    between atoms: C_1  and  C_2
REMARK    2  A    between atoms: C_2  and  C_4
REMARK    3  A    between atoms: C_7  and  N_8
REMARK    4  A    between atoms: N_8  and  C_9
REMARK    5  A    between atoms: C_9  and  C_10
REMARK    6  A    between atoms: N_12  and  C_13
REMARK    7  A    between atoms: C_13  and  C_14
REMARK    8  A    between atoms: C_23  and  C_25
REMARK                            x       y       z     vdW  Elec       q    Type
REMARK                         _______ _______ _______ _____ _____    ______ ____
ROOT
ATOM      1  N   UNL     1       4.297   4.523  18.146  0.00  0.00    +0.000 N 
ATOM      2  C   UNL     1       3.673   3.272  18.418  0.00  0.00    +0.000 C 
ATOM      3  O   UNL     1       3.572   2.376  17.580  0.00  0.00    +0.000 OA
ENDROOT
BRANCH   1   7
ATOM      4  C   UNL     1       6.720   4.855  14.563  0.00  0.00    +0.000 A 
ATOM      5  C   UNL     1       5.334   4.803  14.483  0.00  0.00    +0.000 A 
ATOM      6  C   UNL     1       4.546   4.750  15.646  0.00  0.00    +0.000 A 
ATOM      7  C   UNL     1       5.103   4.736  16.935  0.00  0.00    +0.000 A 
ATOM      8  C   UNL     1       6.508   4.866  16.986  0.00  0.00    +0.000 A 
ATOM      9  C   UNL     1       7.310   4.915  15.827  0.00  0.00    +0.000 A 
BRANCH   4  11
ATOM     10  C   UNL     1       7.175   3.761  12.270  0.00  0.00    +0.000 C 
ATOM     11  C   UNL     1       7.506   4.807  13.297  0.00  0.00    +0.000 C 
ATOM     12  O   UNL     1       8.416   5.623  13.117  0.00  0.00    +0.000 OA
ENDBRANCH   4  11
ENDBRANCH   1   7
BRANCH   2  13
ATOM     13  C   UNL     1       3.049   2.993  19.726  0.00  0.00    +0.000 A 
ATOM     14  C   UNL     1       1.692   3.195  19.958  0.00  0.00    +0.000 A 
ATOM     15  S   UNL     1       1.352   2.740  21.570  0.00  0.00    +0.000 S 
ATOM     16  N   UNL     1       2.928   2.276  21.865  0.00  0.00    +0.000 NA
ATOM     17  N   UNL     1       3.708   2.421  20.810  0.00  0.00    +0.000 NA
ENDBRANCH   2  13
BRANCH   1  18
ATOM     18  C   UNL     1       4.184   5.663  19.089  0.00  0.00    +0.000 C 
BRANCH  18  19
ATOM     19  C   UNL     1       3.497   6.923  18.521  0.00  0.00    +0.000 C 
ATOM     20  O   UNL     1       3.951   7.524  17.551  0.00  0.00    +0.000 OA
ATOM     21  N   UNL     1       2.356   7.311  19.181  0.00  0.00    +0.000 N 
ATOM     22  H   UNL     1       1.976   6.728  19.919  0.00  0.00    +0.000 HD
BRANCH  21  23
ATOM     23  C   UNL     1       1.651   8.548  18.882  0.00  0.00    +0.000 C 
BRANCH  23  24
ATOM     24  C   UNL     1       0.881   9.002  20.094  0.00  0.00    +0.000 A 
ATOM     25  C   UNL     1       1.252   8.551  21.385  0.00  0.00    +0.000 A 
ATOM     26  C   UNL     1       0.735   9.158  22.534  0.00  0.00    +0.000 A 
ATOM     27  C   UNL     1      -0.103  10.231  22.354  0.00  0.00    +0.000 A 
ATOM     28  C   UNL     1      -0.518  10.628  21.104  0.00  0.00    +0.000 A 
ATOM     29  C   UNL     1      -0.090  10.005  19.954  0.00  0.00    +0.000 A 
ATOM     30  O   UNL     1      -1.271  11.763  21.145  0.00  0.00    +0.000 OA
ATOM     31  C   UNL     1      -0.955  12.195  22.489  0.00  0.00    +0.000 C 
ATOM     32  O   UNL     1      -0.523  11.091  23.322  0.00  0.00    +0.000 OA
ENDBRANCH  23  24
ENDBRANCH  21  23
ENDBRANCH  18  19
ENDBRANCH   1  18
TORSDOF 7
ENDMDL
MODEL 4
REMARK VINA RESULT:      -8.1      5.488      7.839
REMARK  Name = 
REMARK  8 active torsions:
REMARK  status: ('A' for Active; 'I' for Inactive)
REMARK    1  A    between atoms: C_1  and  C_2
REMARK    2  A    between atoms: C_2  and  C_4
REMARK    3  A    between atoms: C_7  and  N_8
REMARK    4  A    between atoms: N_8  and  C_9
REMARK    5  A    between atoms: C_9  and  C_10
REMARK    6  A    between atoms: N_12  and  C_13
REMARK    7  A    between atoms: C_13  and  C_14
REMARK    8  A    between atoms: C_23  and  C_25
REMARK                            x       y       z     vdW  Elec       q    Type
REMARK                         _______ _______ _______ _____ _____    ______ ____
ROOT
ATOM      1  N   UNL     1       5.601   5.453  16.706  0.00  0.00    +0.000 N 
ATOM      2  C   UNL     1       6.008   4.447  15.783  0.00  0.00    +0.000 C 
ATOM      3  O   UNL     1       5.769   3.251  15.945  0.00  0.00    +0.000 OA
ENDROOT
BRANCH   1   7
ATOM      4  C   UNL     1       2.642   4.403  19.699  0.00  0.00    +0.000 A 
ATOM      5  C   UNL     1       3.928   3.883  19.757  0.00  0.00    +0.000 A 
ATOM      6  C   UNL     1       4.904   4.265  18.820  0.00  0.00    +0.000 A 
ATOM      7  C   UNL     1       4.637   5.170  17.779  0.00  0.00    +0.000 A 
ATOM      8  C   UNL     1       3.345   5.738  17.792  0.00  0.00    +0.000 A 
ATOM      9  C   UNL     1       2.356   5.360  18.724  0.00  0.00    +0.000 A 
BRANCH   4  11
ATOM     10  C   UNL     1       2.074   3.056  21.826  0.00  0.00    +0.000 C 
ATOM     11  C   UNL     1       1.623   3.885  20.657  0.00  0.00    +0.000 C 
ATOM     12  O   UNL     1       0.429   4.143  20.471  0.00  0.00    +0.000 OA
ENDBRANCH   4  11
ENDBRANCH   1   7
BRANCH   2  13
ATOM     13  C   UNL     1       6.802   4.782  14.585  0.00  0.00    +0.000 A 
ATOM     14  C   UNL     1       6.446   4.341  13.314  0.00  0.00    +0.000 A 
ATOM     15  S   UNL     1       7.590   4.949  12.198  0.00  0.00    +0.000 S 
ATOM     16  N   UNL     1       8.440   5.765  13.380  0.00  0.00    +0.000 NA
ATOM     17  N   UNL     1       7.905   5.630  14.579  0.00  0.00    +0.000 NA
ENDBRANCH   2  13
BRANCH   1  18
ATOM     18  C   UNL     1       6.114   6.842  16.611  0.00  0.00    +0.000 C 
BRANCH  18  19
ATOM     19  C   UNL     1       7.220   7.209  17.622  0.00  0.00    +0.000 C 
ATOM     20  O   UNL     1       7.616   6.408  18.465  0.00  0.00    +0.000 OA
ATOM     21  N   UNL     1       7.718   8.485  17.502  0.00  0.00    +0.000 N 
ATOM     22  H   UNL     1       7.420   9.073  16.732  0.00  0.00    +0.000 HD
BRANCH  21  23
ATOM     23  C   UNL     1       8.661   9.057  18.450  0.00  0.00    +0.000 C 
BRANCH  23  24
ATOM     24  C   UNL     1       8.965  10.482  18.071  0.00  0.00    +0.000 A 
ATOM     25  C   UNL     1       7.947  11.309  17.533  0.00  0.00    +0.000 A 
ATOM     26  C   UNL     1       8.126  12.692  17.426  0.00  0.00    +0.000 A 
ATOM     27  C   UNL     1       9.304  13.211  17.905  0.00  0.00    +0.000 A 
ATOM     28  C   UNL     1      10.320  12.404  18.366  0.00  0.00    +0.000 A 
ATOM     29  C   UNL     1      10.208  11.034  18.413  0.00  0.00    +0.000 A 
ATOM     30  O   UNL     1      11.360  13.123  18.877  0.00  0.00    +0.000 OA
ATOM     31  C   UNL     1      10.704  14.407  19.006  0.00  0.00    +0.000 C 
ATOM     32  O   UNL     1       9.577  14.529  18.104  0.00  0.00    +0.000 OA
ENDBRANCH  23  24
ENDBRANCH  21  23
ENDBRANCH  18  19
ENDBRANCH   1  18
TORSDOF 7
ENDMDL
MODEL 5
REMARK VINA RESULT:      -8.1      1.221      1.602
REMARK  Name = 
REMARK  8 active torsions:
REMARK  status: ('A' for Active; 'I' for Inactive)
REMARK    1  A    between atoms: C_1  and  C_2
REMARK    2  A    between atoms: C_2  and  C_4
REMARK    3  A    between atoms: C_7  and  N_8
REMARK    4  A    between atoms: N_8  and  C_9
REMARK    5  A    between atoms: C_9  and  C_10
REMARK    6  A    between atoms: N_12  and  C_13
REMARK    7  A    between atoms: C_13  and  C_14
REMARK    8  A    between atoms: C_23  and  C_25
REMARK                            x       y       z     vdW  Elec       q    Type
REMARK                         _______ _______ _______ _____ _____    ______ ____
ROOT
ATOM      1  N   UNL     1       4.350   4.584  18.381  0.00  0.00    +0.000 N 
ATOM      2  C   UNL     1       3.723   3.325  18.606  0.00  0.00    +0.000 C 
ATOM      3  O   UNL     1       3.664   2.441  17.751  0.00  0.00    +0.000 OA
ENDROOT
BRANCH   1   7
ATOM      4  C   UNL     1       6.783   5.017  14.816  0.00  0.00    +0.000 A 
ATOM      5  C   UNL     1       5.522   5.593  14.891  0.00  0.00    +0.000 A 
ATOM      6  C   UNL     1       4.754   5.500  16.065  0.00  0.00    +0.000 A 
ATOM      7  C   UNL     1       5.206   4.820  17.209  0.00  0.00    +0.000 A 
ATOM      8  C   UNL     1       6.520   4.311  17.128  0.00  0.00    +0.000 A 
ATOM      9  C   UNL     1       7.297   4.395  15.954  0.00  0.00    +0.000 A 
BRANCH   4  11
ATOM     10  C   UNL     1       7.071   4.146  12.403  0.00  0.00    +0.000 C 
ATOM     11  C   UNL     1       7.507   5.061  13.513  0.00  0.00    +0.000 C 
ATOM     12  O   UNL     1       8.452   5.843  13.369  0.00  0.00    +0.000 OA
ENDBRANCH   4  11
ENDBRANCH   1   7
BRANCH   2  13
ATOM     13  C   UNL     1       3.046   3.023  19.882  0.00  0.00    +0.000 A 
ATOM     14  C   UNL     1       1.660   3.039  20.008  0.00  0.00    +0.000 A 
ATOM     15  S   UNL     1       1.264   2.617  21.617  0.00  0.00    +0.000 S 
ATOM     16  N   UNL     1       2.863   2.397  22.046  0.00  0.00    +0.000 NA
ATOM     17  N   UNL     1       3.694   2.602  21.040  0.00  0.00    +0.000 NA
ENDBRANCH   2  13
BRANCH   1  18
ATOM     18  C   UNL     1       4.189   5.709  19.335  0.00  0.00    +0.000 C 
BRANCH  18  19
ATOM     19  C   UNL     1       2.879   6.512  19.194  0.00  0.00    +0.000 C 
ATOM     20  O   UNL     1       1.908   6.295  19.914  0.00  0.00    +0.000 OA
ATOM     21  N   UNL     1       2.889   7.473  18.211  0.00  0.00    +0.000 N 
ATOM     22  H   UNL     1       3.746   7.671  17.707  0.00  0.00    +0.000 HD
BRANCH  21  23
ATOM     23  C   UNL     1       1.706   8.232  17.836  0.00  0.00    +0.000 C 
BRANCH  23  24
ATOM     24  C   UNL     1       1.680   9.539  18.583  0.00  0.00    +0.000 A 
ATOM     25  C   UNL     1       2.195  10.715  17.982  0.00  0.00    +0.000 A 
ATOM     26  C   UNL     1       1.943  11.974  18.533  0.00  0.00    +0.000 A 
ATOM     27  C   UNL     1       1.141  12.022  19.647  0.00  0.00    +0.000 A 
ATOM     28  C   UNL     1       0.696  10.880  20.272  0.00  0.00    +0.000 A 
ATOM     29  C   UNL     1       0.989   9.621  19.801  0.00  0.00    +0.000 A 
ATOM     30  O   UNL     1      -0.157  11.152  21.301  0.00  0.00    +0.000 OA
ATOM     31  C   UNL     1      -0.452  12.534  20.989  0.00  0.00    +0.000 C 
ATOM     32  O   UNL     1       0.594  13.142  20.194  0.00  0.00    +0.000 OA
ENDBRANCH  23  24
ENDBRANCH  21  23
ENDBRANCH  18  19
ENDBRANCH   1  18
TORSDOF 7
ENDMDL
MODEL 6
REMARK VINA RESULT:      -8.0      1.013      1.083
REMARK  Name = 
REMARK  8 active torsions:
REMARK  status: ('A' for Active; 'I' for Inactive)
REMARK    1  A    between atoms: C_1  and  C_2
REMARK    2  A    between atoms: C_2  and  C_4
REMARK    3  A    between atoms: C_7  and  N_8
REMARK    4  A    between atoms: N_8  and  C_9
REMARK    5  A    between atoms: C_9  and  C_10
REMARK    6  A    between atoms: N_12  and  C_13
REMARK    7  A    between atoms: C_13  and  C_14
REMARK    8  A    between atoms: C_23  and  C_25
REMARK                            x       y       z     vdW  Elec       q    Type
REMARK                         _______ _______ _______ _____ _____    ______ ____
ROOT
ATOM      1  N   UNL     1       4.015   4.406  17.926  0.00  0.00    +0.000 N 
ATOM      2  C   UNL     1       3.553   3.129  18.354  0.00  0.00    +0.000 C 
ATOM      3  O   UNL     1       3.569   2.132  17.632  0.00  0.00    +0.000 OA
ENDROOT
BRANCH   1   7
ATOM      4  C   UNL     1       6.545   4.944  14.443  0.00  0.00    +0.000 A 
ATOM      5  C   UNL     1       6.282   3.675  14.943  0.00  0.00    +0.000 A 
ATOM      6  C   UNL     1       5.419   3.495  16.038  0.00  0.00    +0.000 A 
ATOM      7  C   UNL     1       4.791   4.570  16.688  0.00  0.00    +0.000 A 
ATOM      8  C   UNL     1       5.017   5.839  16.111  0.00  0.00    +0.000 A 
ATOM      9  C   UNL     1       5.884   6.032  15.016  0.00  0.00    +0.000 A 
BRANCH   4  11
ATOM     10  C   UNL     1       7.328   4.338  12.060  0.00  0.00    +0.000 C 
ATOM     11  C   UNL     1       7.546   5.082  13.347  0.00  0.00    +0.000 C 
ATOM     12  O   UNL     1       8.537   5.800  13.517  0.00  0.00    +0.000 OA
ENDBRANCH   4  11
ENDBRANCH   1   7
BRANCH   2  13
ATOM     13  C   UNL     1       2.966   2.935  19.694  0.00  0.00    +0.000 A 
ATOM     14  C   UNL     1       1.595   3.014  19.921  0.00  0.00    +0.000 A 
ATOM     15  S   UNL     1       1.310   2.711  21.580  0.00  0.00    +0.000 S 
ATOM     16  N   UNL     1       2.928   2.457  21.902  0.00  0.00    +0.000 NA
ATOM     17  N   UNL     1       3.686   2.565  20.826  0.00  0.00    +0.000 NA
ENDBRANCH   2  13
BRANCH   1  18
ATOM     18  C   UNL     1       3.756   5.629  18.725  0.00  0.00    +0.000 C 
BRANCH  18  19
ATOM     19  C   UNL     1       2.511   6.439  18.309  0.00  0.00    +0.000 C 
ATOM     20  O   UNL     1       1.489   5.890  17.903  0.00  0.00    +0.000 OA
ATOM     21  N   UNL     1       2.637   7.803  18.427  0.00  0.00    +0.000 N 
ATOM     22  H   UNL     1       3.468   8.198  18.852  0.00  0.00    +0.000 HD
BRANCH  21  23
ATOM     23  C   UNL     1       1.625   8.734  17.953  0.00  0.00    +0.000 C 
BRANCH  23  24
ATOM     24  C   UNL     1       1.078   9.526  19.111  0.00  0.00    +0.000 A 
ATOM     25  C   UNL     1      -0.023  10.398  18.921  0.00  0.00    +0.000 A 
ATOM     26  C   UNL     1      -0.714  10.931  20.014  0.00  0.00    +0.000 A 
ATOM     27  C   UNL     1      -0.309  10.537  21.265  0.00  0.00    +0.000 A 
ATOM     28  C   UNL     1       0.801   9.746  21.455  0.00  0.00    +0.000 A 
ATOM     29  C   UNL     1       1.551   9.266  20.406  0.00  0.00    +0.000 A 
ATOM     30  O   UNL     1       0.972   9.400  22.762  0.00  0.00    +0.000 OA
ATOM     31  C   UNL     1      -0.337   9.759  23.264  0.00  0.00    +0.000 C 
ATOM     32  O   UNL     1      -0.979  10.754  22.430  0.00  0.00    +0.000 OA
ENDBRANCH  23  24
ENDBRANCH  21  23
ENDBRANCH  18  19
ENDBRANCH   1  18
TORSDOF 7
ENDMDL
MODEL 7
REMARK VINA RESULT:      -7.9      5.285      7.725
REMARK  Name = 
REMARK  8 active torsions:
REMARK  status: ('A' for Active; 'I' for Inactive)
REMARK    1  A    between atoms: C_1  and  C_2
REMARK    2  A    between atoms: C_2  and  C_4
REMARK    3  A    between atoms: C_7  and  N_8
REMARK    4  A    between atoms: N_8  and  C_9
REMARK    5  A    between atoms: C_9  and  C_10
REMARK    6  A    between atoms: N_12  and  C_13
REMARK    7  A    between atoms: C_13  and  C_14
REMARK    8  A    between atoms: C_23  and  C_25
REMARK                            x       y       z     vdW  Elec       q    Type
REMARK                         _______ _______ _______ _____ _____    ______ ____
ROOT
ATOM      1  N   UNL     1       5.582   5.255  16.784  0.00  0.00    +0.000 N 
ATOM      2  C   UNL     1       5.936   4.311  15.779  0.00  0.00    +0.000 C 
ATOM      3  O   UNL     1       5.629   3.120  15.838  0.00  0.00    +0.000 OA
ENDROOT
BRANCH   1   7
ATOM      4  C   UNL     1       2.586   4.090  19.696  0.00  0.00    +0.000 A 
ATOM      5  C   UNL     1       3.898   3.652  19.812  0.00  0.00    +0.000 A 
ATOM      6  C   UNL     1       4.883   4.073  18.900  0.00  0.00    +0.000 A 
ATOM      7  C   UNL     1       4.599   4.937  17.830  0.00  0.00    +0.000 A 
ATOM      8  C   UNL     1       3.274   5.424  17.783  0.00  0.00    +0.000 A 
ATOM      9  C   UNL     1       2.278   5.005  18.689  0.00  0.00    +0.000 A 
BRANCH   4  11
ATOM     10  C   UNL     1       2.000   3.063  21.991  0.00  0.00    +0.000 C 
ATOM     11  C   UNL     1       1.566   3.531  20.630  0.00  0.00    +0.000 C 
ATOM     12  O   UNL     1       0.387   3.459  20.269  0.00  0.00    +0.000 OA
ENDBRANCH   4  11
ENDBRANCH   1   7
BRANCH   2  13
ATOM     13  C   UNL     1       6.753   4.700  14.613  0.00  0.00    +0.000 A 
ATOM     14  C   UNL     1       6.417   4.327  13.315  0.00  0.00    +0.000 A 
ATOM     15  S   UNL     1       7.584   4.984  12.251  0.00  0.00    +0.000 S 
ATOM     16  N   UNL     1       8.417   5.735  13.488  0.00  0.00    +0.000 NA
ATOM     17  N   UNL     1       7.860   5.542  14.669  0.00  0.00    +0.000 NA
ENDBRANCH   2  13
BRANCH   1  18
ATOM     18  C   UNL     1       6.173   6.616  16.808  0.00  0.00    +0.000 C 
BRANCH  18  19
ATOM     19  C   UNL     1       7.386   6.793  17.745  0.00  0.00    +0.000 C 
ATOM     20  O   UNL     1       7.891   5.841  18.335  0.00  0.00    +0.000 OA
ATOM     21  N   UNL     1       7.845   8.083  17.864  0.00  0.00    +0.000 N 
ATOM     22  H   UNL     1       7.449   8.816  17.286  0.00  0.00    +0.000 HD
BRANCH  21  23
ATOM     23  C   UNL     1       8.886   8.468  18.805  0.00  0.00    +0.000 C 
BRANCH  23  24
ATOM     24  C   UNL     1       8.870   9.961  19.000  0.00  0.00    +0.000 A 
ATOM     25  C   UNL     1       9.106  10.515  20.283  0.00  0.00    +0.000 A 
ATOM     26  C   UNL     1       9.363  11.880  20.440  0.00  0.00    +0.000 A 
ATOM     27  C   UNL     1       9.422  12.643  19.300  0.00  0.00    +0.000 A 
ATOM     28  C   UNL     1       9.128  12.122  18.061  0.00  0.00    +0.000 A 
ATOM     29  C   UNL     1       8.795  10.800  17.878  0.00  0.00    +0.000 A 
ATOM     30  O   UNL     1       9.336  13.023  17.058  0.00  0.00    +0.000 OA
ATOM     31  C   UNL     1      10.121  13.994  17.788  0.00  0.00    +0.000 C 
ATOM     32  O   UNL     1       9.878  13.922  19.214  0.00  0.00    +0.000 OA
ENDBRANCH  23  24
ENDBRANCH  21  23
ENDBRANCH  18  19
ENDBRANCH   1  18
TORSDOF 7
ENDMDL
MODEL 8
REMARK VINA RESULT:      -7.6      5.736      8.052
REMARK  Name = 
REMARK  8 active torsions:
REMARK  status: ('A' for Active; 'I' for Inactive)
REMARK    1  A    between atoms: C_1  and  C_2
REMARK    2  A    between atoms: C_2  and  C_4
REMARK    3  A    between atoms: C_7  and  N_8
REMARK    4  A    between atoms: N_8  and  C_9
REMARK    5  A    between atoms: C_9  and  C_10
REMARK    6  A    between atoms: N_12  and  C_13
REMARK    7  A    between atoms: C_13  and  C_14
REMARK    8  A    between atoms: C_23  and  C_25
REMARK                            x       y       z     vdW  Elec       q    Type
REMARK                         _______ _______ _______ _____ _____    ______ ____
ROOT
ATOM      1  N   UNL     1       5.770   6.026  16.577  0.00  0.00    +0.000 N 
ATOM      2  C   UNL     1       5.773   4.863  15.756  0.00  0.00    +0.000 C 
ATOM      3  O   UNL     1       5.125   3.850  16.023  0.00  0.00    +0.000 OA
ENDROOT
BRANCH   1   7
ATOM      4  C   UNL     1       2.696   6.366  19.619  0.00  0.00    +0.000 A 
ATOM      5  C   UNL     1       3.746   5.469  19.766  0.00  0.00    +0.000 A 
ATOM      6  C   UNL     1       4.772   5.396  18.807  0.00  0.00    +0.000 A 
ATOM      7  C   UNL     1       4.790   6.205  17.658  0.00  0.00    +0.000 A 
ATOM      8  C   UNL     1       3.751   7.158  17.575  0.00  0.00    +0.000 A 
ATOM      9  C   UNL     1       2.714   7.237  18.528  0.00  0.00    +0.000 A 
BRANCH   4  11
ATOM     10  C   UNL     1       1.124   7.611  21.244  0.00  0.00    +0.000 C 
ATOM     11  C   UNL     1       1.585   6.328  20.613  0.00  0.00    +0.000 C 
ATOM     12  O   UNL     1       1.068   5.244  20.904  0.00  0.00    +0.000 OA
ENDBRANCH   4  11
ENDBRANCH   1   7
BRANCH   2  13
ATOM     13  C   UNL     1       6.610   4.782  14.543  0.00  0.00    +0.000 A 
ATOM     14  C   UNL     1       6.245   4.014  13.441  0.00  0.00    +0.000 A 
ATOM     15  S   UNL     1       7.450   4.195  12.241  0.00  0.00    +0.000 S 
ATOM     16  N   UNL     1       8.336   5.264  13.168  0.00  0.00    +0.000 NA
ATOM     17  N   UNL     1       7.771   5.519  14.334  0.00  0.00    +0.000 NA
ENDBRANCH   2  13
BRANCH   1  18
ATOM     18  C   UNL     1       6.743   7.126  16.363  0.00  0.00    +0.000 C 
BRANCH  18  19
ATOM     19  C   UNL     1       7.623   7.476  17.580  0.00  0.00    +0.000 C 
ATOM     20  O   UNL     1       7.967   6.623  18.395  0.00  0.00    +0.000 OA
ATOM     21  N   UNL     1       7.984   8.799  17.676  0.00  0.00    +0.000 N 
ATOM     22  H   UNL     1       7.748   9.442  16.929  0.00  0.00    +0.000 HD
BRANCH  21  23
ATOM     23  C   UNL     1       8.691   9.343  18.825  0.00  0.00    +0.000 C 
BRANCH  23  24
ATOM     24  C   UNL     1       9.265  10.692  18.478  0.00  0.00    +0.000 A 
ATOM     25  C   UNL     1       8.464  11.661  17.825  0.00  0.00    +0.000 A 
ATOM     26  C   UNL     1       8.878  12.994  17.736  0.00  0.00    +0.000 A 
ATOM     27  C   UNL     1      10.064  13.324  18.345  0.00  0.00    +0.000 A 
ATOM     28  C   UNL     1      10.876  12.374  18.920  0.00  0.00    +0.000 A 
ATOM     29  C   UNL     1      10.536  11.041  18.958  0.00  0.00    +0.000 A 
ATOM     30  O   UNL     1      11.955  12.925  19.544  0.00  0.00    +0.000 OA
ATOM     31  C   UNL     1      11.509  14.301  19.594  0.00  0.00    +0.000 C 
ATOM     32  O   UNL     1      10.525  14.585  18.569  0.00  0.00    +0.000 OA
ENDBRANCH  23  24
ENDBRANCH  21  23
ENDBRANCH  18  19
ENDBRANCH   1  18
TORSDOF 7
ENDMDL
MODEL 9
REMARK VINA RESULT:      -7.6      1.038      1.115
REMARK  Name = 
REMARK  8 active torsions:
REMARK  status: ('A' for Active; 'I' for Inactive)
REMARK    1  A    between atoms: C_1  and  C_2
REMARK    2  A    between atoms: C_2  and  C_4
REMARK    3  A    between atoms: C_7  and  N_8
REMARK    4  A    between atoms: N_8  and  C_9
REMARK    5  A    between atoms: C_9  and  C_10
REMARK    6  A    between atoms: N_12  and  C_13
REMARK    7  A    between atoms: C_13  and  C_14
REMARK    8  A    between atoms: C_23  and  C_25
REMARK                            x       y       z     vdW  Elec       q    Type
REMARK                         _______ _______ _______ _____ _____    ______ ____
ROOT
ATOM      1  N   UNL     1       4.145   4.345  17.661  0.00  0.00    +0.000 N 
ATOM      2  C   UNL     1       3.339   3.233  18.037  0.00  0.00    +0.000 C 
ATOM      3  O   UNL     1       3.131   2.273  17.294  0.00  0.00    +0.000 OA
ENDROOT
BRANCH   1   7
ATOM      4  C   UNL     1       6.626   4.528  14.107  0.00  0.00    +0.000 A 
ATOM      5  C   UNL     1       7.189   4.615  15.373  0.00  0.00    +0.000 A 
ATOM      6  C   UNL     1       6.393   4.501  16.527  0.00  0.00    +0.000 A 
ATOM      7  C   UNL     1       5.003   4.308  16.468  0.00  0.00    +0.000 A 
ATOM      8  C   UNL     1       4.471   4.148  15.169  0.00  0.00    +0.000 A 
ATOM      9  C   UNL     1       5.259   4.265  14.005  0.00  0.00    +0.000 A 
BRANCH   4  11
ATOM     10  C   UNL     1       8.559   5.824  12.991  0.00  0.00    +0.000 C 
ATOM     11  C   UNL     1       7.502   4.758  12.922  0.00  0.00    +0.000 C 
ATOM     12  O   UNL     1       7.342   4.073  11.907  0.00  0.00    +0.000 OA
ENDBRANCH   4  11
ENDBRANCH   1   7
BRANCH   2  13
ATOM     13  C   UNL     1       2.650   3.190  19.341  0.00  0.00    +0.000 A 
ATOM     14  C   UNL     1       3.263   2.691  20.486  0.00  0.00    +0.000 A 
ATOM     15  S   UNL     1       2.160   2.832  21.786  0.00  0.00    +0.000 S 
ATOM     16  N   UNL     1       0.994   3.553  20.834  0.00  0.00    +0.000 NA
ATOM     17  N   UNL     1       1.386   3.720  19.585  0.00  0.00    +0.000 NA
ENDBRANCH   2  13
BRANCH   1  18
ATOM     18  C   UNL     1       4.175   5.586  18.473  0.00  0.00    +0.000 C 
BRANCH  18  19
ATOM     19  C   UNL     1       3.645   6.851  17.765  0.00  0.00    +0.000 C 
ATOM     20  O   UNL     1       4.301   7.433  16.905  0.00  0.00    +0.000 OA
ATOM     21  N   UNL     1       2.399   7.266  18.171  0.00  0.00    +0.000 N 
ATOM     22  H   UNL     1       1.864   6.699  18.819  0.00  0.00    +0.000 HD
BRANCH  21  23
ATOM     23  C   UNL     1       1.796   8.511  17.723  0.00  0.00    +0.000 C 
BRANCH  23  24
ATOM     24  C   UNL     1       1.305   9.297  18.910  0.00  0.00    +0.000 A 
ATOM     25  C   UNL     1       0.384  10.360  18.731  0.00  0.00    +0.000 A 
ATOM     26  C   UNL     1      -0.286  10.922  19.821  0.00  0.00    +0.000 A 
ATOM     27  C   UNL     1      -0.049  10.370  21.056  0.00  0.00    +0.000 A 
ATOM     28  C   UNL     1       0.893   9.384  21.243  0.00  0.00    +0.000 A 
ATOM     29  C   UNL     1       1.628   8.861  20.204  0.00  0.00    +0.000 A 
ATOM     30  O   UNL     1       0.905   8.916  22.523  0.00  0.00    +0.000 OA
ATOM     31  C   UNL     1      -0.359   9.459  22.973  0.00  0.00    +0.000 C 
ATOM     32  O   UNL     1      -0.758  10.611  22.192  0.00  0.00    +0.000 OA
ENDBRANCH  23  24
ENDBRANCH  21  23
ENDBRANCH  18  19
ENDBRANCH   1  18
TORSDOF 7
ENDMDL
