MODEL 1
REMARK VINA RESULT:      -5.3      0.000      0.000
REMARK  Name = 
REMARK  2 active torsions:
REMARK  status: ('A' for Active; 'I' for Inactive)
REMARK    1  A    between atoms: N_1  and  C_2
REMARK    2  A    between atoms: C_9  and  S_10
REMARK                            x       y       z     vdW  Elec       q    Type
REMARK                         _______ _______ _______ _____ _____    ______ ____
ROOT
ATOM      1  C   UNL     1       1.486   3.348  19.275  0.00  0.00    +0.000 A 
ATOM      2  C   UNL     1       1.969   2.109  18.828  0.00  0.00    +0.000 A 
ATOM      3  C   UNL     1       3.101   2.024  18.007  0.00  0.00    +0.000 A 
ATOM      4  C   UNL     1       3.765   3.185  17.647  0.00  0.00    +0.000 A 
ATOM      5  C   UNL     1       3.313   4.412  18.137  0.00  0.00    +0.000 A 
ATOM      6  C   UNL     1       2.197   4.508  18.956  0.00  0.00    +0.000 A 
ATOM      7  S   UNL     1       4.353   5.726  17.590  0.00  0.00    +0.000 S 
ATOM      8  C   UNL     1       5.368   4.567  16.627  0.00  0.00    +0.000 C 
ATOM      9  N   UNL     1       4.986   3.195  16.948  0.00  0.00    +0.000 N 
ATOM     10  H   UNL     1       5.025   2.547  16.171  0.00  0.00    +0.000 HD
ENDROOT
BRANCH   1  11
ATOM     11  N   UNL     1       0.459   3.396  20.226  0.00  0.00    +0.000 N 
ATOM     12  H   UNL     1       0.382   4.284  20.713  0.00  0.00    +0.000 HD
ATOM     13  H   UNL     1       0.436   2.603  20.856  0.00  0.00    +0.000 HD
ENDBRANCH   1  11
BRANCH   8  14
ATOM     14  S   UNL     1       7.114   4.774  17.025  0.00  0.00    +0.000 S 
ATOM     15  H   UNL     1       7.531   4.485  15.785  0.00  0.00    +0.000 HD
ENDBRANCH   8  14
TORSDOF 2
ENDMDL
MODEL 2
REMARK VINA RESULT:      -5.2      1.417      1.417
REMARK  Name = 
REMARK  2 active torsions:
REMARK  status: ('A' for Active; 'I' for Inactive)
REMARK    1  A    between atoms: N_1  and  C_2
REMARK    2  A    between atoms: C_9  and  S_10
REMARK                            x       y       z     vdW  Elec       q    Type
REMARK                         _______ _______ _______ _____ _____    ______ ____
ROOT
ATOM      1  C   UNL     1       1.874   3.552  19.779  0.00  0.00    +0.000 A 
ATOM      2  C   UNL     1       2.772   2.581  20.250  0.00  0.00    +0.000 A 
ATOM      3  C   UNL     1       4.127   2.612  19.896  0.00  0.00    +0.000 A 
ATOM      4  C   UNL     1       4.591   3.632  19.081  0.00  0.00    +0.000 A 
ATOM      5  C   UNL     1       3.706   4.625  18.658  0.00  0.00    +0.000 A 
ATOM      6  C   UNL     1       2.363   4.609  19.007  0.00  0.00    +0.000 A 
ATOM      7  S   UNL     1       4.543   5.836  17.687  0.00  0.00    +0.000 S 
ATOM      8  C   UNL     1       6.102   4.913  17.819  0.00  0.00    +0.000 C 
ATOM      9  N   UNL     1       5.952   3.830  18.786  0.00  0.00    +0.000 N 
ATOM     10  H   UNL     1       6.456   2.981  18.560  0.00  0.00    +0.000 HD
ENDROOT
BRANCH   1  11
ATOM     11  N   UNL     1       0.567   3.596  20.278  0.00  0.00    +0.000 N 
ATOM     12  H   UNL     1       0.171   4.530  20.332  0.00  0.00    +0.000 HD
ATOM     13  H   UNL     1       0.427   3.065  21.130  0.00  0.00    +0.000 HD
ENDBRANCH   1  11
BRANCH   8  14
ATOM     14  S   UNL     1       7.430   5.993  18.385  0.00  0.00    +0.000 S 
ATOM     15  H   UNL     1       7.361   6.799  17.317  0.00  0.00    +0.000 HD
ENDBRANCH   8  14
TORSDOF 2
ENDMDL
MODEL 3
REMARK VINA RESULT:      -5.1      1.608      1.787
REMARK  Name = 
REMARK  2 active torsions:
REMARK  status: ('A' for Active; 'I' for Inactive)
REMARK    1  A    between atoms: N_1  and  C_2
REMARK    2  A    between atoms: C_9  and  S_10
REMARK                            x       y       z     vdW  Elec       q    Type
REMARK                         _______ _______ _______ _____ _____    ______ ____
ROOT
ATOM      1  C   UNL     1       2.173   2.405  18.568  0.00  0.00    +0.000 A 
ATOM      2  C   UNL     1       2.901   2.346  19.766  0.00  0.00    +0.000 A 
ATOM      3  C   UNL     1       4.204   2.855  19.851  0.00  0.00    +0.000 A 
ATOM      4  C   UNL     1       4.773   3.445  18.734  0.00  0.00    +0.000 A 
ATOM      5  C   UNL     1       4.027   3.550  17.560  0.00  0.00    +0.000 A 
ATOM      6  C   UNL     1       2.734   3.054  17.465  0.00  0.00    +0.000 A 
ATOM      7  S   UNL     1       4.944   4.386  16.308  0.00  0.00    +0.000 S 
ATOM      8  C   UNL     1       6.384   4.522  17.407  0.00  0.00    +0.000 C 
ATOM      9  N   UNL     1       6.014   4.109  18.756  0.00  0.00    +0.000 N 
ATOM     10  H   UNL     1       6.737   3.620  19.268  0.00  0.00    +0.000 HD
ENDROOT
BRANCH   1  11
ATOM     11  N   UNL     1       0.821   2.042  18.554  0.00  0.00    +0.000 N 
ATOM     12  H   UNL     1       0.621   1.193  18.032  0.00  0.00    +0.000 HD
ATOM     13  H   UNL     1       0.188   2.799  18.322  0.00  0.00    +0.000 HD
ENDBRANCH   1  11
BRANCH   8  14
ATOM     14  S   UNL     1       6.966   6.227  17.479  0.00  0.00    +0.000 S 
ATOM     15  H   UNL     1       5.837   6.736  16.968  0.00  0.00    +0.000 HD
ENDBRANCH   8  14
TORSDOF 2
ENDMDL
MODEL 4
REMARK VINA RESULT:      -5.1      3.021      5.040
REMARK  Name = 
REMARK  2 active torsions:
REMARK  status: ('A' for Active; 'I' for Inactive)
REMARK    1  A    between atoms: N_1  and  C_2
REMARK    2  A    between atoms: C_9  and  S_10
REMARK                            x       y       z     vdW  Elec       q    Type
REMARK                         _______ _______ _______ _____ _____    ______ ____
ROOT
ATOM      1  C   UNL     1       7.023   7.034  17.704  0.00  0.00    +0.000 A 
ATOM      2  C   UNL     1       7.733   6.247  18.623  0.00  0.00    +0.000 A 
ATOM      3  C   UNL     1       7.152   5.116  19.212  0.00  0.00    +0.000 A 
ATOM      4  C   UNL     1       5.860   4.760  18.863  0.00  0.00    +0.000 A 
ATOM      5  C   UNL     1       5.176   5.514  17.909  0.00  0.00    +0.000 A 
ATOM      6  C   UNL     1       5.743   6.633  17.314  0.00  0.00    +0.000 A 
ATOM      7  S   UNL     1       3.582   4.830  17.595  0.00  0.00    +0.000 S 
ATOM      8  C   UNL     1       3.852   3.540  18.845  0.00  0.00    +0.000 C 
ATOM      9  N   UNL     1       5.243   3.569  19.289  0.00  0.00    +0.000 N 
ATOM     10  H   UNL     1       5.384   3.355  20.268  0.00  0.00    +0.000 HD
ENDROOT
BRANCH   1  11
ATOM     11  N   UNL     1       7.679   8.057  17.007  0.00  0.00    +0.000 N 
ATOM     12  H   UNL     1       7.649   8.962  17.467  0.00  0.00    +0.000 HD
ATOM     13  H   UNL     1       7.439   8.112  16.024  0.00  0.00    +0.000 HD
ENDBRANCH   1  11
BRANCH   8  14
ATOM     14  S   UNL     1       3.516   1.909  18.153  0.00  0.00    +0.000 S 
ATOM     15  H   UNL     1       4.810   1.587  18.030  0.00  0.00    +0.000 HD
ENDBRANCH   8  14
TORSDOF 2
ENDMDL
MODEL 5
REMARK VINA RESULT:      -5.0      1.248      1.280
REMARK  Name = 
REMARK  2 active torsions:
REMARK  status: ('A' for Active; 'I' for Inactive)
REMARK    1  A    between atoms: N_1  and  C_2
REMARK    2  A    between atoms: C_9  and  S_10
REMARK                            x       y       z     vdW  Elec       q    Type
REMARK                         _______ _______ _______ _____ _____    ______ ____
ROOT
ATOM      1  C   UNL     1       1.644   3.567  19.824  0.00  0.00    +0.000 A 
ATOM      2  C   UNL     1       1.334   3.270  18.487  0.00  0.00    +0.000 A 
ATOM      3  C   UNL     1       2.198   3.628  17.444  0.00  0.00    +0.000 A 
ATOM      4  C   UNL     1       3.390   4.270  17.742  0.00  0.00    +0.000 A 
ATOM      5  C   UNL     1       3.719   4.516  19.076  0.00  0.00    +0.000 A 
ATOM      6  C   UNL     1       2.874   4.161  20.118  0.00  0.00    +0.000 A 
ATOM      7  S   UNL     1       5.301   5.284  19.198  0.00  0.00    +0.000 S 
ATOM      8  C   UNL     1       5.461   5.320  17.389  0.00  0.00    +0.000 C 
ATOM      9  N   UNL     1       4.384   4.541  16.785  0.00  0.00    +0.000 N 
ATOM     10  H   UNL     1       4.029   4.908  15.910  0.00  0.00    +0.000 HD
ENDROOT
BRANCH   1  11
ATOM     11  N   UNL     1       0.849   3.054  20.856  0.00  0.00    +0.000 N 
ATOM     12  H   UNL     1       1.152   3.321  21.788  0.00  0.00    +0.000 HD
ATOM     13  H   UNL     1       0.653   2.063  20.779  0.00  0.00    +0.000 HD
ENDBRANCH   1  11
BRANCH   8  14
ATOM     14  S   UNL     1       7.032   4.598  16.879  0.00  0.00    +0.000 S 
ATOM     15  H   UNL     1       7.098   5.302  15.741  0.00  0.00    +0.000 HD
ENDBRANCH   8  14
TORSDOF 2
ENDMDL
MODEL 6
REMARK VINA RESULT:      -5.0      2.523      4.963
REMARK  Name = 
REMARK  2 active torsions:
REMARK  status: ('A' for Active; 'I' for Inactive)
REMARK    1  A    between atoms: N_1  and  C_2
REMARK    2  A    between atoms: C_9  and  S_10
REMARK                            x       y       z     vdW  Elec       q    Type
REMARK                         _______ _______ _______ _____ _____    ______ ____
ROOT
ATOM      1  C   UNL     1       5.874   5.475  16.211  0.00  0.00    +0.000 A 
ATOM      2  C   UNL     1       5.406   6.687  16.740  0.00  0.00    +0.000 A 
ATOM      3  C   UNL     1       4.197   6.754  17.444  0.00  0.00    +0.000 A 
ATOM      4  C   UNL     1       3.461   5.596  17.638  0.00  0.00    +0.000 A 
ATOM      5  C   UNL     1       3.956   4.383  17.157  0.00  0.00    +0.000 A 
ATOM      6  C   UNL     1       5.155   4.303  16.462  0.00  0.00    +0.000 A 
ATOM      7  S   UNL     1       2.875   3.055  17.577  0.00  0.00    +0.000 S 
ATOM      8  C   UNL     1       1.709   4.208  18.359  0.00  0.00    +0.000 C 
ATOM      9  N   UNL     1       2.313   5.533  18.449  0.00  0.00    +0.000 N 
ATOM     10  H   UNL     1       1.672   6.306  18.320  0.00  0.00    +0.000 HD
ENDROOT
BRANCH   1  11
ATOM     11  N   UNL     1       7.159   5.403  15.658  0.00  0.00    +0.000 N 
ATOM     12  H   UNL     1       7.451   4.465  15.401  0.00  0.00    +0.000 HD
ATOM     13  H   UNL     1       7.868   5.901  16.184  0.00  0.00    +0.000 HD
ENDBRANCH   1  11
BRANCH   8  14
ATOM     14  S   UNL     1       1.301   3.660  20.027  0.00  0.00    +0.000 S 
ATOM     15  H   UNL     1       0.032   4.081  19.960  0.00  0.00    +0.000 HD
ENDBRANCH   8  14
TORSDOF 2
ENDMDL
MODEL 7
REMARK VINA RESULT:      -4.9      1.615      1.806
REMARK  Name = 
REMARK  2 active torsions:
REMARK  status: ('A' for Active; 'I' for Inactive)
REMARK    1  A    between atoms: N_1  and  C_2
REMARK    2  A    between atoms: C_9  and  S_10
REMARK                            x       y       z     vdW  Elec       q    Type
REMARK                         _______ _______ _______ _____ _____    ______ ____
ROOT
ATOM      1  C   UNL     1       1.692   3.115  20.925  0.00  0.00    +0.000 A 
ATOM      2  C   UNL     1       0.927   2.790  19.794  0.00  0.00    +0.000 A 
ATOM      3  C   UNL     1       1.342   3.155  18.507  0.00  0.00    +0.000 A 
ATOM      4  C   UNL     1       2.541   3.831  18.349  0.00  0.00    +0.000 A 
ATOM      5  C   UNL     1       3.325   4.106  19.470  0.00  0.00    +0.000 A 
ATOM      6  C   UNL     1       2.927   3.745  20.750  0.00  0.00    +0.000 A 
ATOM      7  S   UNL     1       4.820   4.917  19.006  0.00  0.00    +0.000 S 
ATOM      8  C   UNL     1       4.310   4.929  17.262  0.00  0.00    +0.000 C 
ATOM      9  N   UNL     1       3.111   4.114  17.094  0.00  0.00    +0.000 N 
ATOM     10  H   UNL     1       2.452   4.458  16.407  0.00  0.00    +0.000 HD
ENDROOT
BRANCH   1  11
ATOM     11  N   UNL     1       1.342   2.597  22.178  0.00  0.00    +0.000 N 
ATOM     12  H   UNL     1       0.341   2.547  22.344  0.00  0.00    +0.000 HD
ATOM     13  H   UNL     1       1.845   3.009  22.956  0.00  0.00    +0.000 HD
ENDBRANCH   1  11
BRANCH   8  14
ATOM     14  S   UNL     1       5.610   4.241  16.219  0.00  0.00    +0.000 S 
ATOM     15  H   UNL     1       5.016   3.046  16.100  0.00  0.00    +0.000 HD
ENDBRANCH   8  14
TORSDOF 2
ENDMDL
MODEL 8
REMARK VINA RESULT:      -4.9      2.660      4.867
REMARK  Name = 
REMARK  2 active torsions:
REMARK  status: ('A' for Active; 'I' for Inactive)
REMARK    1  A    between atoms: N_1  and  C_2
REMARK    2  A    between atoms: C_9  and  S_10
REMARK                            x       y       z     vdW  Elec       q    Type
REMARK                         _______ _______ _______ _____ _____    ______ ____
ROOT
ATOM      1  C   UNL     1       6.445   4.870  16.942  0.00  0.00    +0.000 A 
ATOM      2  C   UNL     1       6.896   5.218  18.225  0.00  0.00    +0.000 A 
ATOM      3  C   UNL     1       5.999   5.416  19.282  0.00  0.00    +0.000 A 
ATOM      4  C   UNL     1       4.642   5.244  19.059  0.00  0.00    +0.000 A 
ATOM      5  C   UNL     1       4.201   4.846  17.796  0.00  0.00    +0.000 A 
ATOM      6  C   UNL     1       5.081   4.642  16.743  0.00  0.00    +0.000 A 
ATOM      7  S   UNL     1       2.450   4.640  17.781  0.00  0.00    +0.000 S 
ATOM      8  C   UNL     1       2.338   5.177  19.513  0.00  0.00    +0.000 C 
ATOM      9  N   UNL     1       3.678   5.280  20.083  0.00  0.00    +0.000 N 
ATOM     10  H   UNL     1       3.804   6.035  20.746  0.00  0.00    +0.000 HD
ENDROOT
BRANCH   1  11
ATOM     11  N   UNL     1       7.366   4.517  15.949  0.00  0.00    +0.000 N 
ATOM     12  H   UNL     1       7.079   4.762  15.006  0.00  0.00    +0.000 HD
ATOM     13  H   UNL     1       7.709   3.565  16.016  0.00  0.00    +0.000 HD
ENDBRANCH   1  11
BRANCH   8  14
ATOM     14  S   UNL     1       1.403   3.981  20.486  0.00  0.00    +0.000 S 
ATOM     15  H   UNL     1       2.252   4.013  21.521  0.00  0.00    +0.000 HD
ENDBRANCH   8  14
TORSDOF 2
ENDMDL
MODEL 9
REMARK VINA RESULT:      -4.9      2.561      5.094
REMARK  Name = 
REMARK  2 active torsions:
REMARK  status: ('A' for Active; 'I' for Inactive)
REMARK    1  A    between atoms: N_1  and  C_2
REMARK    2  A    between atoms: C_9  and  S_10
REMARK                            x       y       z     vdW  Elec       q    Type
REMARK                         _______ _______ _______ _____ _____    ______ ____
ROOT
ATOM      1  C   UNL     1       6.734   5.350  15.853  0.00  0.00    +0.000 A 
ATOM      2  C   UNL     1       7.181   5.978  17.026  0.00  0.00    +0.000 A 
ATOM      3  C   UNL     1       6.451   5.894  18.218  0.00  0.00    +0.000 A 
ATOM      4  C   UNL     1       5.276   5.159  18.243  0.00  0.00    +0.000 A 
ATOM      5  C   UNL     1       4.863   4.492  17.088  0.00  0.00    +0.000 A 
ATOM      6  C   UNL     1       5.580   4.563  15.903  0.00  0.00    +0.000 A 
ATOM      7  S   UNL     1       3.381   3.585  17.387  0.00  0.00    +0.000 S 
ATOM      8  C   UNL     1       3.311   4.197  19.096  0.00  0.00    +0.000 C 
ATOM      9  N   UNL     1       4.550   4.897  19.419  0.00  0.00    +0.000 N 
ATOM     10  H   UNL     1       4.442   5.700  20.027  0.00  0.00    +0.000 HD
ENDROOT
BRANCH   1  11
ATOM     11  N   UNL     1       7.561   5.309  14.724  0.00  0.00    +0.000 N 
ATOM     12  H   UNL     1       7.365   6.031  14.036  0.00  0.00    +0.000 HD
ATOM     13  H   UNL     1       7.654   4.390  14.307  0.00  0.00    +0.000 HD
ENDBRANCH   1  11
BRANCH   8  14
ATOM     14  S   UNL     1       3.122   2.826  20.251  0.00  0.00    +0.000 S 
ATOM     15  H   UNL     1       2.396   3.535  21.126  0.00  0.00    +0.000 HD
ENDBRANCH   8  14
TORSDOF 2
ENDMDL
