MODEL 1
REMARK VINA RESULT:      -8.0      0.000      0.000
REMARK  Name = 
REMARK  6 active torsions:
REMARK  status: ('A' for Active; 'I' for Inactive)
REMARK    1  A    between atoms: C_1  and  C_2
REMARK    2  A    between atoms: C_2  and  C_3
REMARK    3  A    between atoms: C_5  and  C_6
REMARK    4  A    between atoms: C_9  and  C_10
REMARK    5  A    between atoms: N_15  and  C_16
REMARK    6  A    between atoms: C_16  and  C_17
REMARK                            x       y       z     vdW  Elec       q    Type
REMARK                         _______ _______ _______ _____ _____    ______ ____
ROOT
ATOM      1  C   UNL     1       4.588   3.794  17.113  0.00  0.00    +0.000 C 
ATOM      2  O   UNL     1       4.480   2.574  17.197  0.00  0.00    +0.000 OA
ATOM      3  N   UNL     1       3.888   4.724  17.943  0.00  0.00    +0.000 N 
ATOM      4  C   UNL     1       4.025   6.190  17.806  0.00  0.00    +0.000 C 
ATOM      5  C   UNL     1       2.741   6.954  18.094  0.00  0.00    +0.000 C 
ATOM      6  N   UNL     1       2.283   6.649  19.438  0.00  0.00    +0.000 N 
ATOM      7  C   UNL     1       2.257   5.293  19.779  0.00  0.00    +0.000 A 
ATOM      8  C   UNL     1       1.464   4.859  20.860  0.00  0.00    +0.000 A 
ATOM      9  C   UNL     1       1.389   3.519  21.238  0.00  0.00    +0.000 A 
ATOM     10  C   UNL     1       2.125   2.576  20.541  0.00  0.00    +0.000 A 
ATOM     11  C   UNL     1       2.932   2.974  19.473  0.00  0.00    +0.000 A 
ATOM     12  C   UNL     1       3.022   4.315  19.053  0.00  0.00    +0.000 A 
ENDROOT
BRANCH   1  19
ATOM     13  C   UNL     1       6.820   4.700  16.276  0.00  0.00    +0.000 A 
ATOM     14  N   UNL     1       7.656   5.036  15.250  0.00  0.00    +0.000 NA
ATOM     15  C   UNL     1       7.167   5.018  13.999  0.00  0.00    +0.000 A 
ATOM     16  C   UNL     1       8.106   5.320  12.875  0.00  0.00    +0.000 C 
ATOM     17  N   UNL     1       5.895   4.724  13.693  0.00  0.00    +0.000 NA
ATOM     18  C   UNL     1       5.097   4.393  14.734  0.00  0.00    +0.000 A 
ATOM     19  C   UNL     1       5.517   4.263  16.045  0.00  0.00    +0.000 A 
BRANCH  13  21
ATOM     20  C   UNL     1       7.606   6.327  18.034  0.00  0.00    +0.000 C 
ATOM     21  C   UNL     1       7.453   4.871  17.634  0.00  0.00    +0.000 C 
ENDBRANCH  13  21
ENDBRANCH   1  19
BRANCH   6  22
ATOM     22  C   UNL     1       1.790   7.731  20.286  0.00  0.00    +0.000 C 
ATOM     23  C   UNL     1       1.386   8.956  19.485  0.00  0.00    +0.000 C 
ENDBRANCH   6  22
TORSDOF 3
ENDMDL
MODEL 2
REMARK VINA RESULT:      -7.4      2.429      4.919
REMARK  Name = 
REMARK  6 active torsions:
REMARK  status: ('A' for Active; 'I' for Inactive)
REMARK    1  A    between atoms: C_1  and  C_2
REMARK    2  A    between atoms: C_2  and  C_3
REMARK    3  A    between atoms: C_5  and  C_6
REMARK    4  A    between atoms: C_9  and  C_10
REMARK    5  A    between atoms: N_15  and  C_16
REMARK    6  A    between atoms: C_16  and  C_17
REMARK                            x       y       z     vdW  Elec       q    Type
REMARK                         _______ _______ _______ _____ _____    ______ ____
ROOT
ATOM      1  C   UNL     1       2.409   6.411  19.718  0.00  0.00    +0.000 C 
ATOM      2  O   UNL     1       2.018   5.765  20.686  0.00  0.00    +0.000 OA
ATOM      3  N   UNL     1       2.070   7.778  19.470  0.00  0.00    +0.000 N 
ATOM      4  C   UNL     1       2.543   8.525  18.285  0.00  0.00    +0.000 C 
ATOM      5  C   UNL     1       1.533   9.530  17.752  0.00  0.00    +0.000 C 
ATOM      6  N   UNL     1       1.190  10.477  18.798  0.00  0.00    +0.000 N 
ATOM      7  C   UNL     1       0.877   9.923  20.043  0.00  0.00    +0.000 A 
ATOM      8  C   UNL     1       0.147  10.679  20.982  0.00  0.00    +0.000 A 
ATOM      9  C   UNL     1      -0.205  10.174  22.233  0.00  0.00    +0.000 A 
ATOM     10  C   UNL     1       0.183   8.892  22.580  0.00  0.00    +0.000 A 
ATOM     11  C   UNL     1       0.919   8.120  21.678  0.00  0.00    +0.000 A 
ATOM     12  C   UNL     1       1.280   8.589  20.400  0.00  0.00    +0.000 A 
ENDROOT
BRANCH   1  19
ATOM     13  C   UNL     1       2.812   4.708  17.862  0.00  0.00    +0.000 A 
ATOM     14  N   UNL     1       3.644   4.106  16.963  0.00  0.00    +0.000 NA
ATOM     15  C   UNL     1       4.957   4.378  17.030  0.00  0.00    +0.000 A 
ATOM     16  C   UNL     1       5.854   3.769  16.000  0.00  0.00    +0.000 C 
ATOM     17  N   UNL     1       5.513   5.181  17.950  0.00  0.00    +0.000 NA
ATOM     18  C   UNL     1       4.658   5.763  18.821  0.00  0.00    +0.000 A 
ATOM     19  C   UNL     1       3.280   5.651  18.775  0.00  0.00    +0.000 A 
BRANCH  13  21
ATOM     20  C   UNL     1       1.132   2.952  18.531  0.00  0.00    +0.000 C 
ATOM     21  C   UNL     1       1.384   4.233  17.756  0.00  0.00    +0.000 C 
ENDBRANCH  13  21
ENDBRANCH   1  19
BRANCH   6  22
ATOM     22  C   UNL     1       1.089  11.897  18.469  0.00  0.00    +0.000 C 
ATOM     23  C   UNL     1       2.444  12.528  18.202  0.00  0.00    +0.000 C 
ENDBRANCH   6  22
TORSDOF 3
ENDMDL
MODEL 3
REMARK VINA RESULT:      -7.1      3.179      7.722
REMARK  Name = 
REMARK  6 active torsions:
REMARK  status: ('A' for Active; 'I' for Inactive)
REMARK    1  A    between atoms: C_1  and  C_2
REMARK    2  A    between atoms: C_2  and  C_3
REMARK    3  A    between atoms: C_5  and  C_6
REMARK    4  A    between atoms: C_9  and  C_10
REMARK    5  A    between atoms: N_15  and  C_16
REMARK    6  A    between atoms: C_16  and  C_17
REMARK                            x       y       z     vdW  Elec       q    Type
REMARK                         _______ _______ _______ _____ _____    ______ ____
ROOT
ATOM      1  C   UNL     1       1.925   8.464  19.163  0.00  0.00    +0.000 C 
ATOM      2  O   UNL     1       2.310   9.062  18.162  0.00  0.00    +0.000 OA
ATOM      3  N   UNL     1       2.223   7.095  19.449  0.00  0.00    +0.000 N 
ATOM      4  C   UNL     1       1.731   6.397  20.655  0.00  0.00    +0.000 C 
ATOM      5  C   UNL     1       1.409   4.928  20.423  0.00  0.00    +0.000 C 
ATOM      6  N   UNL     1       2.592   4.242  19.934  0.00  0.00    +0.000 N 
ATOM      7  C   UNL     1       3.274   4.874  18.890  0.00  0.00    +0.000 A 
ATOM      8  C   UNL     1       4.155   4.130  18.078  0.00  0.00    +0.000 A 
ATOM      9  C   UNL     1       4.851   4.703  17.014  0.00  0.00    +0.000 A 
ATOM     10  C   UNL     1       4.688   6.051  16.746  0.00  0.00    +0.000 A 
ATOM     11  C   UNL     1       3.834   6.820  17.539  0.00  0.00    +0.000 A 
ATOM     12  C   UNL     1       3.102   6.274  18.611  0.00  0.00    +0.000 A 
ENDROOT
BRANCH   1  19
ATOM     13  C   UNL     1      -0.050   9.987  19.699  0.00  0.00    +0.000 A 
ATOM     14  N   UNL     1      -0.830  10.645  20.605  0.00  0.00    +0.000 NA
ATOM     15  C   UNL     1      -0.431  10.671  21.887  0.00  0.00    +0.000 A 
ATOM     16  C   UNL     1      -1.324  11.335  22.886  0.00  0.00    +0.000 C 
ATOM     17  N   UNL     1       0.707  10.118  22.332  0.00  0.00    +0.000 NA
ATOM     18  C   UNL     1       1.452   9.471  21.408  0.00  0.00    +0.000 A 
ATOM     19  C   UNL     1       1.086   9.279  20.088  0.00  0.00    +0.000 A 
BRANCH  13  21
ATOM     20  C   UNL     1      -2.039  10.372  18.199  0.00  0.00    +0.000 C 
ATOM     21  C   UNL     1      -0.543  10.129  18.280  0.00  0.00    +0.000 C 
ENDBRANCH  13  21
ENDBRANCH   1  19
BRANCH   6  22
ATOM     22  C   UNL     1       2.925   2.924  20.470  0.00  0.00    +0.000 C 
ATOM     23  C   UNL     1       2.055   2.544  21.655  0.00  0.00    +0.000 C 
ENDBRANCH   6  22
TORSDOF 3
ENDMDL
MODEL 4
REMARK VINA RESULT:      -6.9      2.835      7.524
REMARK  Name = 
REMARK  6 active torsions:
REMARK  status: ('A' for Active; 'I' for Inactive)
REMARK    1  A    between atoms: C_1  and  C_2
REMARK    2  A    between atoms: C_2  and  C_3
REMARK    3  A    between atoms: C_5  and  C_6
REMARK    4  A    between atoms: C_9  and  C_10
REMARK    5  A    between atoms: N_15  and  C_16
REMARK    6  A    between atoms: C_16  and  C_17
REMARK                            x       y       z     vdW  Elec       q    Type
REMARK                         _______ _______ _______ _____ _____    ______ ____
ROOT
ATOM      1  C   UNL     1       2.286   8.100  18.865  0.00  0.00    +0.000 C 
ATOM      2  O   UNL     1       2.685   8.876  18.002  0.00  0.00    +0.000 OA
ATOM      3  N   UNL     1       2.569   6.699  18.882  0.00  0.00    +0.000 N 
ATOM      4  C   UNL     1       2.060   5.785  19.927  0.00  0.00    +0.000 C 
ATOM      5  C   UNL     1       1.726   4.393  19.412  0.00  0.00    +0.000 C 
ATOM      6  N   UNL     1       2.907   3.801  18.807  0.00  0.00    +0.000 N 
ATOM      7  C   UNL     1       3.603   4.616  17.908  0.00  0.00    +0.000 A 
ATOM      8  C   UNL     1       4.483   4.034  16.974  0.00  0.00    +0.000 A 
ATOM      9  C   UNL     1       5.193   4.795  16.045  0.00  0.00    +0.000 A 
ATOM     10  C   UNL     1       5.046   6.171  16.043  0.00  0.00    +0.000 A 
ATOM     11  C   UNL     1       4.192   6.781  16.964  0.00  0.00    +0.000 A 
ATOM     12  C   UNL     1       3.447   6.046  17.906  0.00  0.00    +0.000 A 
ENDROOT
BRANCH   1  19
ATOM     13  C   UNL     1       0.343   9.541  19.674  0.00  0.00    +0.000 A 
ATOM     14  N   UNL     1      -0.440  10.020  20.683  0.00  0.00    +0.000 NA
ATOM     15  C   UNL     1      -0.075   9.760  21.950  0.00  0.00    +0.000 A 
ATOM     16  C   UNL     1      -0.974  10.228  23.049  0.00  0.00    +0.000 C 
ATOM     17  N   UNL     1       1.035   9.088  22.289  0.00  0.00    +0.000 NA
ATOM     18  C   UNL     1       1.784   8.625  21.263  0.00  0.00    +0.000 A 
ATOM     19  C   UNL     1       1.448   8.729  19.926  0.00  0.00    +0.000 A 
BRANCH  13  21
ATOM     20  C   UNL     1      -1.488  10.630  18.326  0.00  0.00    +0.000 C 
ATOM     21  C   UNL     1      -0.109   9.997  18.308  0.00  0.00    +0.000 C 
ENDBRANCH  13  21
ENDBRANCH   1  19
BRANCH   6  22
ATOM     22  C   UNL     1       3.223   2.401  19.078  0.00  0.00    +0.000 C 
ATOM     23  C   UNL     1       4.323   2.246  20.113  0.00  0.00    +0.000 C 
ENDBRANCH   6  22
TORSDOF 3
ENDMDL
MODEL 5
REMARK VINA RESULT:      -6.4      2.929      5.008
REMARK  Name = 
REMARK  6 active torsions:
REMARK  status: ('A' for Active; 'I' for Inactive)
REMARK    1  A    between atoms: C_1  and  C_2
REMARK    2  A    between atoms: C_2  and  C_3
REMARK    3  A    between atoms: C_5  and  C_6
REMARK    4  A    between atoms: C_9  and  C_10
REMARK    5  A    between atoms: N_15  and  C_16
REMARK    6  A    between atoms: C_16  and  C_17
REMARK                            x       y       z     vdW  Elec       q    Type
REMARK                         _______ _______ _______ _____ _____    ______ ____
ROOT
ATOM      1  C   UNL     1       3.110   6.710  18.136  0.00  0.00    +0.000 C 
ATOM      2  O   UNL     1       3.726   7.310  17.260  0.00  0.00    +0.000 OA
ATOM      3  N   UNL     1       2.212   7.331  19.059  0.00  0.00    +0.000 N 
ATOM      4  C   UNL     1       1.495   6.584  20.115  0.00  0.00    +0.000 C 
ATOM      5  C   UNL     1       1.306   7.374  21.401  0.00  0.00    +0.000 C 
ATOM      6  N   UNL     1       0.579   8.599  21.118  0.00  0.00    +0.000 N 
ATOM      7  C   UNL     1       1.040   9.342  20.027  0.00  0.00    +0.000 A 
ATOM      8  C   UNL     1       0.700  10.705  19.915  0.00  0.00    +0.000 A 
ATOM      9  C   UNL     1       1.142  11.499  18.857  0.00  0.00    +0.000 A 
ATOM     10  C   UNL     1       1.930  10.934  17.870  0.00  0.00    +0.000 A 
ATOM     11  C   UNL     1       2.275   9.582  17.943  0.00  0.00    +0.000 A 
ATOM     12  C   UNL     1       1.861   8.753  19.004  0.00  0.00    +0.000 A 
ENDROOT
BRANCH   1  19
ATOM     13  C   UNL     1       4.518   4.672  18.744  0.00  0.00    +0.000 A 
ATOM     14  N   UNL     1       4.668   3.319  18.842  0.00  0.00    +0.000 NA
ATOM     15  C   UNL     1       3.718   2.533  18.310  0.00  0.00    +0.000 A 
ATOM     16  C   UNL     1       3.854   1.054  18.481  0.00  0.00    +0.000 C 
ATOM     17  N   UNL     1       2.643   2.993  17.653  0.00  0.00    +0.000 NA
ATOM     18  C   UNL     1       2.525   4.338  17.579  0.00  0.00    +0.000 A 
ATOM     19  C   UNL     1       3.374   5.243  18.188  0.00  0.00    +0.000 A 
BRANCH  13  21
ATOM     20  C   UNL     1       6.919   5.344  18.372  0.00  0.00    +0.000 C 
ATOM     21  C   UNL     1       5.703   5.439  19.276  0.00  0.00    +0.000 C 
ENDBRANCH  13  21
ENDBRANCH   1  19
BRANCH   6  22
ATOM     22  C   UNL     1      -0.484   9.024  22.026  0.00  0.00    +0.000 C 
ATOM     23  C   UNL     1       0.055   9.536  23.350  0.00  0.00    +0.000 C 
ENDBRANCH   6  22
TORSDOF 3
ENDMDL
MODEL 6
REMARK VINA RESULT:      -6.4      1.960      6.512
REMARK  Name = 
REMARK  6 active torsions:
REMARK  status: ('A' for Active; 'I' for Inactive)
REMARK    1  A    between atoms: C_1  and  C_2
REMARK    2  A    between atoms: C_2  and  C_3
REMARK    3  A    between atoms: C_5  and  C_6
REMARK    4  A    between atoms: C_9  and  C_10
REMARK    5  A    between atoms: N_15  and  C_16
REMARK    6  A    between atoms: C_16  and  C_17
REMARK                            x       y       z     vdW  Elec       q    Type
REMARK                         _______ _______ _______ _____ _____    ______ ____
ROOT
ATOM      1  C   UNL     1       4.171   3.119  17.797  0.00  0.00    +0.000 C 
ATOM      2  O   UNL     1       4.027   2.191  17.008  0.00  0.00    +0.000 OA
ATOM      3  N   UNL     1       5.044   4.231  17.585  0.00  0.00    +0.000 N 
ATOM      4  C   UNL     1       5.208   5.328  18.563  0.00  0.00    +0.000 C 
ATOM      5  C   UNL     1       6.620   5.891  18.618  0.00  0.00    +0.000 C 
ATOM      6  N   UNL     1       7.004   6.375  17.304  0.00  0.00    +0.000 N 
ATOM      7  C   UNL     1       6.753   5.504  16.239  0.00  0.00    +0.000 A 
ATOM      8  C   UNL     1       7.439   5.675  15.019  0.00  0.00    +0.000 A 
ATOM      9  C   UNL     1       7.239   4.831  13.927  0.00  0.00    +0.000 A 
ATOM     10  C   UNL     1       6.328   3.795  14.030  0.00  0.00    +0.000 A 
ATOM     11  C   UNL     1       5.621   3.605  15.220  0.00  0.00    +0.000 A 
ATOM     12  C   UNL     1       5.807   4.427  16.348  0.00  0.00    +0.000 A 
ENDROOT
BRANCH   1  19
ATOM     13  C   UNL     1       2.041   3.448  19.163  0.00  0.00    +0.000 A 
ATOM     14  N   UNL     1       1.317   3.240  20.301  0.00  0.00    +0.000 NA
ATOM     15  C   UNL     1       1.930   2.668  21.350  0.00  0.00    +0.000 A 
ATOM     16  C   UNL     1       1.113   2.380  22.569  0.00  0.00    +0.000 C 
ATOM     17  N   UNL     1       3.225   2.318  21.365  0.00  0.00    +0.000 NA
ATOM     18  C   UNL     1       3.910   2.535  20.220  0.00  0.00    +0.000 A 
ATOM     19  C   UNL     1       3.358   3.006  19.043  0.00  0.00    +0.000 A 
BRANCH  13  21
ATOM     20  C   UNL     1       1.690   5.655  17.997  0.00  0.00    +0.000 C 
ATOM     21  C   UNL     1       1.275   4.199  18.103  0.00  0.00    +0.000 C 
ENDBRANCH  13  21
ENDBRANCH   1  19
BRANCH   6  22
ATOM     22  C   UNL     1       7.706   7.650  17.189  0.00  0.00    +0.000 C 
ATOM     23  C   UNL     1       8.330   8.087  18.503  0.00  0.00    +0.000 C 
ENDBRANCH   6  22
TORSDOF 3
ENDMDL
MODEL 7
REMARK VINA RESULT:      -6.3      3.302      7.369
REMARK  Name = 
REMARK  6 active torsions:
REMARK  status: ('A' for Active; 'I' for Inactive)
REMARK    1  A    between atoms: C_1  and  C_2
REMARK    2  A    between atoms: C_2  and  C_3
REMARK    3  A    between atoms: C_5  and  C_6
REMARK    4  A    between atoms: C_9  and  C_10
REMARK    5  A    between atoms: N_15  and  C_16
REMARK    6  A    between atoms: C_16  and  C_17
REMARK                            x       y       z     vdW  Elec       q    Type
REMARK                         _______ _______ _______ _____ _____    ______ ____
ROOT
ATOM      1  C   UNL     1       1.125   8.849  20.064  0.00  0.00    +0.000 C 
ATOM      2  O   UNL     1       0.650   8.530  21.150  0.00  0.00    +0.000 OA
ATOM      3  N   UNL     1       1.946   7.996  19.262  0.00  0.00    +0.000 N 
ATOM      4  C   UNL     1       2.519   8.414  17.965  0.00  0.00    +0.000 C 
ATOM      5  C   UNL     1       3.898   7.834  17.689  0.00  0.00    +0.000 C 
ATOM      6  N   UNL     1       3.833   6.383  17.728  0.00  0.00    +0.000 N 
ATOM      7  C   UNL     1       3.165   5.834  18.826  0.00  0.00    +0.000 A 
ATOM      8  C   UNL     1       3.393   4.489  19.182  0.00  0.00    +0.000 A 
ATOM      9  C   UNL     1       2.767   3.890  20.275  0.00  0.00    +0.000 A 
ATOM     10  C   UNL     1       1.877   4.630  21.034  0.00  0.00    +0.000 A 
ATOM     11  C   UNL     1       1.617   5.961  20.700  0.00  0.00    +0.000 A 
ATOM     12  C   UNL     1       2.242   6.605  19.615  0.00  0.00    +0.000 A 
ENDROOT
BRANCH   1  19
ATOM     13  C   UNL     1      -0.171  10.540  18.662  0.00  0.00    +0.000 A 
ATOM     14  N   UNL     1      -0.496  11.831  18.359  0.00  0.00    +0.000 NA
ATOM     15  C   UNL     1       0.197  12.817  18.951  0.00  0.00    +0.000 A 
ATOM     16  C   UNL     1      -0.209  14.228  18.668  0.00  0.00    +0.000 C 
ATOM     17  N   UNL     1       1.217  12.615  19.799  0.00  0.00    +0.000 NA
ATOM     18  C   UNL     1       1.508  11.325  20.078  0.00  0.00    +0.000 A 
ATOM     19  C   UNL     1       0.792  10.234  19.623  0.00  0.00    +0.000 A 
BRANCH  13  21
ATOM     20  C   UNL     1      -2.139  10.135  17.141  0.00  0.00    +0.000 C 
ATOM     21  C   UNL     1      -0.940   9.530  17.847  0.00  0.00    +0.000 C 
ENDBRANCH  13  21
ENDBRANCH   1  19
BRANCH   6  22
ATOM     22  C   UNL     1       4.540   5.610  16.710  0.00  0.00    +0.000 C 
ATOM     23  C   UNL     1       5.233   6.495  15.688  0.00  0.00    +0.000 C 
ENDBRANCH   6  22
TORSDOF 3
ENDMDL
MODEL 8
REMARK VINA RESULT:      -6.1      2.530      6.735
REMARK  Name = 
REMARK  6 active torsions:
REMARK  status: ('A' for Active; 'I' for Inactive)
REMARK    1  A    between atoms: C_1  and  C_2
REMARK    2  A    between atoms: C_2  and  C_3
REMARK    3  A    between atoms: C_5  and  C_6
REMARK    4  A    between atoms: C_9  and  C_10
REMARK    5  A    between atoms: N_15  and  C_16
REMARK    6  A    between atoms: C_16  and  C_17
REMARK                            x       y       z     vdW  Elec       q    Type
REMARK                         _______ _______ _______ _____ _____    ______ ____
ROOT
ATOM      1  C   UNL     1       1.658   7.359  20.204  0.00  0.00    +0.000 C 
ATOM      2  O   UNL     1       1.173   6.871  21.221  0.00  0.00    +0.000 OA
ATOM      3  N   UNL     1       2.447   6.633  19.259  0.00  0.00    +0.000 N 
ATOM      4  C   UNL     1       3.032   7.252  18.051  0.00  0.00    +0.000 C 
ATOM      5  C   UNL     1       4.389   6.681  17.667  0.00  0.00    +0.000 C 
ATOM      6  N   UNL     1       4.271   5.250  17.450  0.00  0.00    +0.000 N 
ATOM      7  C   UNL     1       3.585   4.539  18.439  0.00  0.00    +0.000 A 
ATOM      8  C   UNL     1       3.765   3.145  18.551  0.00  0.00    +0.000 A 
ATOM      9  C   UNL     1       3.118   2.386  19.525  0.00  0.00    +0.000 A 
ATOM     10  C   UNL     1       2.256   3.011  20.409  0.00  0.00    +0.000 A 
ATOM     11  C   UNL     1       2.045   4.389  20.318  0.00  0.00    +0.000 A 
ATOM     12  C   UNL     1       2.692   5.191  19.358  0.00  0.00    +0.000 A 
ENDROOT
BRANCH   1  19
ATOM     13  C   UNL     1       1.102   9.698  21.057  0.00  0.00    +0.000 A 
ATOM     14  N   UNL     1       0.936  11.034  20.836  0.00  0.00    +0.000 NA
ATOM     15  C   UNL     1       0.956  11.475  19.567  0.00  0.00    +0.000 A 
ATOM     16  C   UNL     1       0.842  12.948  19.336  0.00  0.00    +0.000 C 
ATOM     17  N   UNL     1       1.095  10.680  18.496  0.00  0.00    +0.000 NA
ATOM     18  C   UNL     1       1.261   9.363  18.755  0.00  0.00    +0.000 A 
ATOM     19  C   UNL     1       1.375   8.811  20.017  0.00  0.00    +0.000 A 
BRANCH  13  21
ATOM     20  C   UNL     1      -0.379   9.770  23.096  0.00  0.00    +0.000 C 
ATOM     21  C   UNL     1       0.944   9.315  22.508  0.00  0.00    +0.000 C 
ENDBRANCH  13  21
ENDBRANCH   1  19
BRANCH   6  22
ATOM     22  C   UNL     1       4.949   4.643  16.306  0.00  0.00    +0.000 C 
ATOM     23  C   UNL     1       5.478   5.680  15.330  0.00  0.00    +0.000 C 
ENDBRANCH   6  22
TORSDOF 3
ENDMDL
MODEL 9
REMARK VINA RESULT:      -6.0      3.162      6.111
REMARK  Name = 
REMARK  6 active torsions:
REMARK  status: ('A' for Active; 'I' for Inactive)
REMARK    1  A    between atoms: C_1  and  C_2
REMARK    2  A    between atoms: C_2  and  C_3
REMARK    3  A    between atoms: C_5  and  C_6
REMARK    4  A    between atoms: C_9  and  C_10
REMARK    5  A    between atoms: N_15  and  C_16
REMARK    6  A    between atoms: C_16  and  C_17
REMARK                            x       y       z     vdW  Elec       q    Type
REMARK                         _______ _______ _______ _____ _____    ______ ____
ROOT
ATOM      1  C   UNL     1       1.556   7.680  20.338  0.00  0.00    +0.000 C 
ATOM      2  O   UNL     1       1.465   7.189  21.460  0.00  0.00    +0.000 OA
ATOM      3  N   UNL     1       0.926   8.899  19.938  0.00  0.00    +0.000 N 
ATOM      4  C   UNL     1       1.040   9.457  18.573  0.00  0.00    +0.000 C 
ATOM      5  C   UNL     1      -0.218  10.164  18.094  0.00  0.00    +0.000 C 
ATOM      6  N   UNL     1      -0.553  11.238  19.013  0.00  0.00    +0.000 N 
ATOM      7  C   UNL     1      -0.540  10.903  20.371  0.00  0.00    +0.000 A 
ATOM      8  C   UNL     1      -1.231  11.710  21.297  0.00  0.00    +0.000 A 
ATOM      9  C   UNL     1      -1.264  11.418  22.660  0.00  0.00    +0.000 A 
ATOM     10  C   UNL     1      -0.585  10.308  23.132  0.00  0.00    +0.000 A 
ATOM     11  C   UNL     1       0.121   9.495  22.243  0.00  0.00    +0.000 A 
ATOM     12  C   UNL     1       0.164   9.748  20.858  0.00  0.00    +0.000 A 
ENDROOT
BRANCH   1  19
ATOM     13  C   UNL     1       2.452   5.499  19.365  0.00  0.00    +0.000 A 
ATOM     14  N   UNL     1       3.158   4.826  18.410  0.00  0.00    +0.000 NA
ATOM     15  C   UNL     1       3.868   5.541  17.522  0.00  0.00    +0.000 A 
ATOM     16  C   UNL     1       4.584   4.801  16.438  0.00  0.00    +0.000 C 
ATOM     17  N   UNL     1       3.956   6.879  17.533  0.00  0.00    +0.000 NA
ATOM     18  C   UNL     1       3.240   7.512  18.490  0.00  0.00    +0.000 A 
ATOM     19  C   UNL     1       2.384   6.891  19.381  0.00  0.00    +0.000 A 
BRANCH  13  21
ATOM     20  C   UNL     1       1.006   3.463  19.714  0.00  0.00    +0.000 C 
ATOM     21  C   UNL     1       1.794   4.584  20.368  0.00  0.00    +0.000 C 
ENDBRANCH  13  21
ENDBRANCH   1  19
BRANCH   6  22
ATOM     22  C   UNL     1      -0.978  12.529  18.478  0.00  0.00    +0.000 C 
ATOM     23  C   UNL     1       0.164  13.528  18.402  0.00  0.00    +0.000 C 
ENDBRANCH   6  22
TORSDOF 3
ENDMDL
