MODEL 1
REMARK VINA RESULT:      -7.3      0.000      0.000
REMARK  Name = 
REMARK  6 active torsions:
REMARK  status: ('A' for Active; 'I' for Inactive)
REMARK    1  A    between atoms: C_1  and  S_2
REMARK    2  A    between atoms: S_2  and  C_3
REMARK    3  A    between atoms: C_5  and  C_6
REMARK    4  A    between atoms: C_10  and  C_11
REMARK    5  A    between atoms: C_13  and  C_14
REMARK    6  A    between atoms: C_19  and  C_20
REMARK                            x       y       z     vdW  Elec       q    Type
REMARK                         _______ _______ _______ _____ _____    ______ ____
ROOT
ATOM      1  C   UNL     1       1.456   8.975  19.467  0.00  0.00    +0.000 A 
ATOM      2  S   UNL     1       0.694  10.237  20.348  0.00  0.00    +0.000 S 
ATOM      3  C   UNL     1       0.553   9.286  21.754  0.00  0.00    +0.000 A 
ATOM      4  C   UNL     1       1.112   8.039  21.567  0.00  0.00    +0.000 A 
ATOM      5  C   UNL     1       1.658   7.849  20.250  0.00  0.00    +0.000 A 
ENDROOT
BRANCH   3   6
ATOM      6  C   UNL     1      -0.091   9.803  22.951  0.00  0.00    +0.000 C 
ATOM      7  N   UNL     1       0.290   9.435  24.135  0.00  0.00    +0.000 NA
ATOM      8  N   UNL     1      -1.126  10.691  22.929  0.00  0.00    +0.000 N 
ATOM      9  H   UNL     1       1.073   8.773  24.047  0.00  0.00    +0.000 HD
ATOM     10  H   UNL     1      -1.783  10.592  22.166  0.00  0.00    +0.000 HD
ATOM     11  H   UNL     1      -1.574  10.737  23.838  0.00  0.00    +0.000 HD
ENDBRANCH   3   6
BRANCH   5  12
ATOM     12  C   UNL     1       2.355   6.575  19.819  0.00  0.00    +0.000 A 
ATOM     13  N   UNL     1       3.217   6.522  18.827  0.00  0.00    +0.000 NA
ATOM     14  C   UNL     1       3.776   5.256  18.714  0.00  0.00    +0.000 A 
ATOM     15  C   UNL     1       3.266   4.329  19.601  0.00  0.00    +0.000 A 
ATOM     16  S   UNL     1       2.103   5.064  20.617  0.00  0.00    +0.000 S 
BRANCH  14  17
ATOM     17  C   UNL     1       4.839   4.957  17.750  0.00  0.00    +0.000 A 
ATOM     18  C   UNL     1       4.496   4.516  16.456  0.00  0.00    +0.000 A 
ATOM     19  C   UNL     1       5.479   4.187  15.518  0.00  0.00    +0.000 A 
ATOM     20  C   UNL     1       6.824   4.305  15.853  0.00  0.00    +0.000 A 
ATOM     21  C   UNL     1       7.183   4.750  17.121  0.00  0.00    +0.000 A 
ATOM     22  C   UNL     1       6.208   5.074  18.082  0.00  0.00    +0.000 A 
ATOM     23  C   UNL     1       6.683   5.536  19.435  0.00  0.00    +0.000 C 
ENDBRANCH  14  17
ENDBRANCH   5  12
BRANCH   1  25
ATOM     24  C   UNL     1       2.220  11.044  17.869  0.00  0.00    +0.000 C 
ATOM     25  S   UNL     1       1.854   9.276  17.778  0.00  0.00    +0.000 S 
ENDBRANCH   1  25
TORSDOF 4
ENDMDL
MODEL 2
REMARK VINA RESULT:      -7.1      2.091      8.011
REMARK  Name = 
REMARK  6 active torsions:
REMARK  status: ('A' for Active; 'I' for Inactive)
REMARK    1  A    between atoms: C_1  and  S_2
REMARK    2  A    between atoms: S_2  and  C_3
REMARK    3  A    between atoms: C_5  and  C_6
REMARK    4  A    between atoms: C_10  and  C_11
REMARK    5  A    between atoms: C_13  and  C_14
REMARK    6  A    between atoms: C_19  and  C_20
REMARK                            x       y       z     vdW  Elec       q    Type
REMARK                         _______ _______ _______ _____ _____    ______ ____
ROOT
ATOM      1  C   UNL     1       3.052   4.852  19.471  0.00  0.00    +0.000 A 
ATOM      2  S   UNL     1       4.281   3.690  19.172  0.00  0.00    +0.000 S 
ATOM      3  C   UNL     1       5.174   4.760  18.193  0.00  0.00    +0.000 A 
ATOM      4  C   UNL     1       4.564   5.995  18.126  0.00  0.00    +0.000 A 
ATOM      5  C   UNL     1       3.341   6.071  18.878  0.00  0.00    +0.000 A 
ENDROOT
BRANCH   3   6
ATOM      6  C   UNL     1       6.408   4.339  17.549  0.00  0.00    +0.000 C 
ATOM      7  N   UNL     1       6.412   3.870  16.340  0.00  0.00    +0.000 NA
ATOM      8  N   UNL     1       7.632   4.394  18.150  0.00  0.00    +0.000 N 
ATOM      9  H   UNL     1       5.451   3.873  15.974  0.00  0.00    +0.000 HD
ATOM     10  H   UNL     1       7.649   4.211  19.145  0.00  0.00    +0.000 HD
ATOM     11  H   UNL     1       8.307   3.844  17.631  0.00  0.00    +0.000 HD
ENDBRANCH   3   6
BRANCH   5  12
ATOM     12  C   UNL     1       2.511   7.334  18.984  0.00  0.00    +0.000 A 
ATOM     13  N   UNL     1       1.810   7.651  20.050  0.00  0.00    +0.000 NA
ATOM     14  C   UNL     1       1.229   8.905  19.915  0.00  0.00    +0.000 A 
ATOM     15  C   UNL     1       1.449   9.503  18.690  0.00  0.00    +0.000 A 
ATOM     16  S   UNL     1       2.431   8.501  17.712  0.00  0.00    +0.000 S 
BRANCH  14  17
ATOM     17  C   UNL     1       0.477   9.538  21.003  0.00  0.00    +0.000 A 
ATOM     18  C   UNL     1       0.627   9.056  22.319  0.00  0.00    +0.000 A 
ATOM     19  C   UNL     1      -0.097   9.608  23.379  0.00  0.00    +0.000 A 
ATOM     20  C   UNL     1      -0.976  10.661  23.145  0.00  0.00    +0.000 A 
ATOM     21  C   UNL     1      -1.129  11.158  21.855  0.00  0.00    +0.000 A 
ATOM     22  C   UNL     1      -0.418  10.608  20.774  0.00  0.00    +0.000 A 
ATOM     23  C   UNL     1      -0.652  11.197  19.407  0.00  0.00    +0.000 C 
ENDBRANCH  14  17
ENDBRANCH   5  12
BRANCH   1  25
ATOM     24  C   UNL     1       1.025   3.035  19.384  0.00  0.00    +0.000 C 
ATOM     25  S   UNL     1       1.669   4.354  20.440  0.00  0.00    +0.000 S 
ENDBRANCH   1  25
TORSDOF 4
ENDMDL
MODEL 3
REMARK VINA RESULT:      -6.9      2.682      7.688
REMARK  Name = 
REMARK  6 active torsions:
REMARK  status: ('A' for Active; 'I' for Inactive)
REMARK    1  A    between atoms: C_1  and  S_2
REMARK    2  A    between atoms: S_2  and  C_3
REMARK    3  A    between atoms: C_5  and  C_6
REMARK    4  A    between atoms: C_10  and  C_11
REMARK    5  A    between atoms: C_13  and  C_14
REMARK    6  A    between atoms: C_19  and  C_20
REMARK                            x       y       z     vdW  Elec       q    Type
REMARK                         _______ _______ _______ _____ _____    ______ ____
ROOT
ATOM      1  C   UNL     1       3.690   4.287  17.512  0.00  0.00    +0.000 A 
ATOM      2  S   UNL     1       5.006   4.005  16.446  0.00  0.00    +0.000 S 
ATOM      3  C   UNL     1       5.747   5.490  16.829  0.00  0.00    +0.000 A 
ATOM      4  C   UNL     1       5.021   6.173  17.782  0.00  0.00    +0.000 A 
ATOM      5  C   UNL     1       3.834   5.480  18.204  0.00  0.00    +0.000 A 
ENDROOT
BRANCH   3   6
ATOM      6  C   UNL     1       6.982   5.904  16.183  0.00  0.00    +0.000 C 
ATOM      7  N   UNL     1       7.449   5.270  15.152  0.00  0.00    +0.000 NA
ATOM      8  N   UNL     1       7.737   6.960  16.600  0.00  0.00    +0.000 N 
ATOM      9  H   UNL     1       6.811   4.498  14.913  0.00  0.00    +0.000 HD
ATOM     10  H   UNL     1       7.767   7.121  17.598  0.00  0.00    +0.000 HD
ATOM     11  H   UNL     1       8.656   6.930  16.172  0.00  0.00    +0.000 HD
ENDBRANCH   3   6
BRANCH   5  12
ATOM     12  C   UNL     1       2.896   6.015  19.266  0.00  0.00    +0.000 A 
ATOM     13  N   UNL     1       2.560   7.282  19.362  0.00  0.00    +0.000 NA
ATOM     14  C   UNL     1       1.612   7.478  20.358  0.00  0.00    +0.000 A 
ATOM     15  C   UNL     1       1.289   6.336  21.065  0.00  0.00    +0.000 A 
ATOM     16  S   UNL     1       2.150   4.995  20.445  0.00  0.00    +0.000 S 
BRANCH  14  17
ATOM     17  C   UNL     1       0.996   8.785  20.603  0.00  0.00    +0.000 A 
ATOM     18  C   UNL     1       0.599   9.128  21.911  0.00  0.00    +0.000 A 
ATOM     19  C   UNL     1      -0.023  10.350  22.182  0.00  0.00    +0.000 A 
ATOM     20  C   UNL     1      -0.248  11.257  21.152  0.00  0.00    +0.000 A 
ATOM     21  C   UNL     1       0.148  10.942  19.856  0.00  0.00    +0.000 A 
ATOM     22  C   UNL     1       0.765   9.713  19.562  0.00  0.00    +0.000 A 
ATOM     23  C   UNL     1       1.151   9.445  18.131  0.00  0.00    +0.000 C 
ENDBRANCH  14  17
ENDBRANCH   5  12
BRANCH   1  25
ATOM     24  C   UNL     1       3.314   1.721  18.345  0.00  0.00    +0.000 C 
ATOM     25  S   UNL     1       2.408   3.081  17.572  0.00  0.00    +0.000 S 
ENDBRANCH   1  25
TORSDOF 4
ENDMDL
MODEL 4
REMARK VINA RESULT:      -6.9      3.204      4.239
REMARK  Name = 
REMARK  6 active torsions:
REMARK  status: ('A' for Active; 'I' for Inactive)
REMARK    1  A    between atoms: C_1  and  S_2
REMARK    2  A    between atoms: S_2  and  C_3
REMARK    3  A    between atoms: C_5  and  C_6
REMARK    4  A    between atoms: C_10  and  C_11
REMARK    5  A    between atoms: C_13  and  C_14
REMARK    6  A    between atoms: C_19  and  C_20
REMARK                            x       y       z     vdW  Elec       q    Type
REMARK                         _______ _______ _______ _____ _____    ______ ____
ROOT
ATOM      1  C   UNL     1       0.354  11.619  18.752  0.00  0.00    +0.000 A 
ATOM      2  S   UNL     1      -0.936  12.639  18.257  0.00  0.00    +0.000 S 
ATOM      3  C   UNL     1      -1.872  11.330  17.700  0.00  0.00    +0.000 A 
ATOM      4  C   UNL     1      -1.228  10.131  17.923  0.00  0.00    +0.000 A 
ATOM      5  C   UNL     1       0.058  10.280  18.550  0.00  0.00    +0.000 A 
ENDROOT
BRANCH   3   6
ATOM      6  C   UNL     1      -3.171  11.543  17.082  0.00  0.00    +0.000 C 
ATOM      7  N   UNL     1      -4.200  11.906  17.783  0.00  0.00    +0.000 NA
ATOM      8  N   UNL     1      -3.411  11.377  15.750  0.00  0.00    +0.000 N 
ATOM      9  H   UNL     1      -3.919  12.009  18.768  0.00  0.00    +0.000 HD
ATOM     10  H   UNL     1      -2.898  10.633  15.293  0.00  0.00    +0.000 HD
ATOM     11  H   UNL     1      -4.408  11.343  15.571  0.00  0.00    +0.000 HD
ENDBRANCH   3   6
BRANCH   5  12
ATOM     12  C   UNL     1       0.937   9.105  18.925  0.00  0.00    +0.000 A 
ATOM     13  N   UNL     1       1.585   8.376  18.043  0.00  0.00    +0.000 NA
ATOM     14  C   UNL     1       2.391   7.432  18.666  0.00  0.00    +0.000 A 
ATOM     15  C   UNL     1       2.285   7.415  20.042  0.00  0.00    +0.000 A 
ATOM     16  S   UNL     1       1.196   8.626  20.565  0.00  0.00    +0.000 S 
BRANCH  14  17
ATOM     17  C   UNL     1       3.293   6.557  17.911  0.00  0.00    +0.000 A 
ATOM     18  C   UNL     1       4.436   7.107  17.296  0.00  0.00    +0.000 A 
ATOM     19  C   UNL     1       5.304   6.315  16.539  0.00  0.00    +0.000 A 
ATOM     20  C   UNL     1       5.051   4.955  16.393  0.00  0.00    +0.000 A 
ATOM     21  C   UNL     1       3.935   4.391  17.002  0.00  0.00    +0.000 A 
ATOM     22  C   UNL     1       3.045   5.174  17.758  0.00  0.00    +0.000 A 
ATOM     23  C   UNL     1       1.854   4.487  18.373  0.00  0.00    +0.000 C 
ENDBRANCH  14  17
ENDBRANCH   5  12
BRANCH   1  25
ATOM     24  C   UNL     1       1.097  13.090  20.920  0.00  0.00    +0.000 C 
ATOM     25  S   UNL     1       1.798  12.381  19.412  0.00  0.00    +0.000 S 
ENDBRANCH   1  25
TORSDOF 4
ENDMDL
MODEL 5
REMARK VINA RESULT:      -6.8      0.523      1.440
REMARK  Name = 
REMARK  6 active torsions:
REMARK  status: ('A' for Active; 'I' for Inactive)
REMARK    1  A    between atoms: C_1  and  S_2
REMARK    2  A    between atoms: S_2  and  C_3
REMARK    3  A    between atoms: C_5  and  C_6
REMARK    4  A    between atoms: C_10  and  C_11
REMARK    5  A    between atoms: C_13  and  C_14
REMARK    6  A    between atoms: C_19  and  C_20
REMARK                            x       y       z     vdW  Elec       q    Type
REMARK                         _______ _______ _______ _____ _____    ______ ____
ROOT
ATOM      1  C   UNL     1       1.336   9.130  19.518  0.00  0.00    +0.000 A 
ATOM      2  S   UNL     1       0.550  10.385  20.388  0.00  0.00    +0.000 S 
ATOM      3  C   UNL     1       0.421   9.442  21.800  0.00  0.00    +0.000 A 
ATOM      4  C   UNL     1       1.001   8.204  21.623  0.00  0.00    +0.000 A 
ATOM      5  C   UNL     1       1.554   8.013  20.309  0.00  0.00    +0.000 A 
ENDROOT
BRANCH   3   6
ATOM      6  C   UNL     1      -0.235   9.957  22.991  0.00  0.00    +0.000 C 
ATOM      7  N   UNL     1       0.126   9.578  24.178  0.00  0.00    +0.000 NA
ATOM      8  N   UNL     1      -1.263  10.854  22.961  0.00  0.00    +0.000 N 
ATOM      9  H   UNL     1       0.905   8.910  24.096  0.00  0.00    +0.000 HD
ATOM     10  H   UNL     1      -1.910  10.765  22.188  0.00  0.00    +0.000 HD
ATOM     11  H   UNL     1      -1.722  10.897  23.864  0.00  0.00    +0.000 HD
ENDBRANCH   3   6
BRANCH   5  12
ATOM     12  C   UNL     1       2.273   6.748  19.889  0.00  0.00    +0.000 A 
ATOM     13  N   UNL     1       3.165   6.709  18.924  0.00  0.00    +0.000 NA
ATOM     14  C   UNL     1       3.737   5.449  18.817  0.00  0.00    +0.000 A 
ATOM     15  C   UNL     1       3.207   4.511  19.681  0.00  0.00    +0.000 A 
ATOM     16  S   UNL     1       2.008   5.228  20.667  0.00  0.00    +0.000 S 
BRANCH  14  17
ATOM     17  C   UNL     1       4.832   5.165  17.884  0.00  0.00    +0.000 A 
ATOM     18  C   UNL     1       6.026   5.908  17.972  0.00  0.00    +0.000 A 
ATOM     19  C   UNL     1       7.080   5.693  17.080  0.00  0.00    +0.000 A 
ATOM     20  C   UNL     1       6.965   4.722  16.091  0.00  0.00    +0.000 A 
ATOM     21  C   UNL     1       5.798   3.969  15.995  0.00  0.00    +0.000 A 
ATOM     22  C   UNL     1       4.723   4.180  16.876  0.00  0.00    +0.000 A 
ATOM     23  C   UNL     1       3.491   3.331  16.696  0.00  0.00    +0.000 C 
ENDBRANCH  14  17
ENDBRANCH   5  12
BRANCH   1  25
ATOM     24  C   UNL     1       2.219  11.163  17.935  0.00  0.00    +0.000 C 
ATOM     25  S   UNL     1       1.732   9.425  17.828  0.00  0.00    +0.000 S 
ENDBRANCH   1  25
TORSDOF 4
ENDMDL
MODEL 6
REMARK VINA RESULT:      -6.8      2.617      4.448
REMARK  Name = 
REMARK  6 active torsions:
REMARK  status: ('A' for Active; 'I' for Inactive)
REMARK    1  A    between atoms: C_1  and  S_2
REMARK    2  A    between atoms: S_2  and  C_3
REMARK    3  A    between atoms: C_5  and  C_6
REMARK    4  A    between atoms: C_10  and  C_11
REMARK    5  A    between atoms: C_13  and  C_14
REMARK    6  A    between atoms: C_19  and  C_20
REMARK                            x       y       z     vdW  Elec       q    Type
REMARK                         _______ _______ _______ _____ _____    ______ ____
ROOT
ATOM      1  C   UNL     1       0.681  10.025  20.784  0.00  0.00    +0.000 A 
ATOM      2  S   UNL     1      -0.261  11.459  20.720  0.00  0.00    +0.000 S 
ATOM      3  C   UNL     1      -0.175  11.542  19.021  0.00  0.00    +0.000 A 
ATOM      4  C   UNL     1       0.530  10.473  18.508  0.00  0.00    +0.000 A 
ATOM      5  C   UNL     1       1.017   9.572  19.518  0.00  0.00    +0.000 A 
ENDROOT
BRANCH   3   6
ATOM      6  C   UNL     1      -0.791  12.637  18.289  0.00  0.00    +0.000 C 
ATOM      7  N   UNL     1      -1.509  12.421  17.230  0.00  0.00    +0.000 NA
ATOM      8  N   UNL     1      -0.664  13.949  18.640  0.00  0.00    +0.000 N 
ATOM      9  H   UNL     1      -1.548  11.408  17.050  0.00  0.00    +0.000 HD
ATOM     10  H   UNL     1       0.226  14.220  19.037  0.00  0.00    +0.000 HD
ATOM     11  H   UNL     1      -0.964  14.550  17.881  0.00  0.00    +0.000 HD
ENDBRANCH   3   6
BRANCH   5  12
ATOM     12  C   UNL     1       1.787   8.308  19.197  0.00  0.00    +0.000 A 
ATOM     13  N   UNL     1       1.746   7.226  19.944  0.00  0.00    +0.000 NA
ATOM     14  C   UNL     1       2.463   6.188  19.365  0.00  0.00    +0.000 A 
ATOM     15  C   UNL     1       3.110   6.529  18.194  0.00  0.00    +0.000 A 
ATOM     16  S   UNL     1       2.779   8.157  17.790  0.00  0.00    +0.000 S 
BRANCH  14  17
ATOM     17  C   UNL     1       2.494   4.843  19.947  0.00  0.00    +0.000 A 
ATOM     18  C   UNL     1       1.357   4.354  20.622  0.00  0.00    +0.000 A 
ATOM     19  C   UNL     1       1.357   3.091  21.220  0.00  0.00    +0.000 A 
ATOM     20  C   UNL     1       2.489   2.287  21.143  0.00  0.00    +0.000 A 
ATOM     21  C   UNL     1       3.618   2.746  20.471  0.00  0.00    +0.000 A 
ATOM     22  C   UNL     1       3.641   4.019  19.873  0.00  0.00    +0.000 A 
ATOM     23  C   UNL     1       4.907   4.444  19.176  0.00  0.00    +0.000 C 
ENDBRANCH  14  17
ENDBRANCH   5  12
BRANCH   1  25
ATOM     24  C   UNL     1      -0.468   9.761  23.239  0.00  0.00    +0.000 C 
ATOM     25  S   UNL     1       1.067   9.366  22.371  0.00  0.00    +0.000 S 
ENDBRANCH   1  25
TORSDOF 4
ENDMDL
MODEL 7
REMARK VINA RESULT:      -6.7      2.471      7.674
REMARK  Name = 
REMARK  6 active torsions:
REMARK  status: ('A' for Active; 'I' for Inactive)
REMARK    1  A    between atoms: C_1  and  S_2
REMARK    2  A    between atoms: S_2  and  C_3
REMARK    3  A    between atoms: C_5  and  C_6
REMARK    4  A    between atoms: C_10  and  C_11
REMARK    5  A    between atoms: C_13  and  C_14
REMARK    6  A    between atoms: C_19  and  C_20
REMARK                            x       y       z     vdW  Elec       q    Type
REMARK                         _______ _______ _______ _____ _____    ______ ____
ROOT
ATOM      1  C   UNL     1       4.454   5.540  17.880  0.00  0.00    +0.000 A 
ATOM      2  S   UNL     1       4.796   3.868  17.691  0.00  0.00    +0.000 S 
ATOM      3  C   UNL     1       3.292   3.399  18.338  0.00  0.00    +0.000 A 
ATOM      4  C   UNL     1       2.527   4.500  18.658  0.00  0.00    +0.000 A 
ATOM      5  C   UNL     1       3.179   5.751  18.381  0.00  0.00    +0.000 A 
ENDROOT
BRANCH   3   6
ATOM      6  C   UNL     1       2.946   1.995  18.497  0.00  0.00    +0.000 C 
ATOM      7  N   UNL     1       1.727   1.624  18.738  0.00  0.00    +0.000 NA
ATOM      8  N   UNL     1       3.852   0.979  18.417  0.00  0.00    +0.000 N 
ATOM      9  H   UNL     1       1.122   2.456  18.776  0.00  0.00    +0.000 HD
ATOM     10  H   UNL     1       4.778   1.177  18.772  0.00  0.00    +0.000 HD
ATOM     11  H   UNL     1       3.457   0.121  18.786  0.00  0.00    +0.000 HD
ENDBRANCH   3   6
BRANCH   5  12
ATOM     12  C   UNL     1       2.524   7.096  18.617  0.00  0.00    +0.000 A 
ATOM     13  N   UNL     1       1.818   7.379  19.689  0.00  0.00    +0.000 NA
ATOM     14  C   UNL     1       1.420   8.709  19.694  0.00  0.00    +0.000 A 
ATOM     15  C   UNL     1       1.783   9.413  18.563  0.00  0.00    +0.000 A 
ATOM     16  S   UNL     1       2.671   8.408  17.501  0.00  0.00    +0.000 S 
BRANCH  14  17
ATOM     17  C   UNL     1       0.704   9.306  20.825  0.00  0.00    +0.000 A 
ATOM     18  C   UNL     1       1.040   8.918  22.138  0.00  0.00    +0.000 A 
ATOM     19  C   UNL     1       0.359   9.437  23.243  0.00  0.00    +0.000 A 
ATOM     20  C   UNL     1      -0.662  10.362  23.056  0.00  0.00    +0.000 A 
ATOM     21  C   UNL     1      -1.000  10.767  21.769  0.00  0.00    +0.000 A 
ATOM     22  C   UNL     1      -0.335  10.247  20.645  0.00  0.00    +0.000 A 
ATOM     23  C   UNL     1      -0.771  10.729  19.286  0.00  0.00    +0.000 C 
ENDBRANCH  14  17
ENDBRANCH   5  12
BRANCH   1  25
ATOM     24  C   UNL     1       7.172   5.720  17.865  0.00  0.00    +0.000 C 
ATOM     25  S   UNL     1       5.710   6.691  17.433  0.00  0.00    +0.000 S 
ENDBRANCH   1  25
TORSDOF 4
ENDMDL
MODEL 8
REMARK VINA RESULT:      -6.7      2.719      7.898
REMARK  Name = 
REMARK  6 active torsions:
REMARK  status: ('A' for Active; 'I' for Inactive)
REMARK    1  A    between atoms: C_1  and  S_2
REMARK    2  A    between atoms: S_2  and  C_3
REMARK    3  A    between atoms: C_5  and  C_6
REMARK    4  A    between atoms: C_10  and  C_11
REMARK    5  A    between atoms: C_13  and  C_14
REMARK    6  A    between atoms: C_19  and  C_20
REMARK                            x       y       z     vdW  Elec       q    Type
REMARK                         _______ _______ _______ _____ _____    ______ ____
ROOT
ATOM      1  C   UNL     1       2.944   5.266  17.967  0.00  0.00    +0.000 A 
ATOM      2  S   UNL     1       4.154   4.434  17.077  0.00  0.00    +0.000 S 
ATOM      3  C   UNL     1       5.026   5.863  16.762  0.00  0.00    +0.000 A 
ATOM      4  C   UNL     1       4.424   6.951  17.358  0.00  0.00    +0.000 A 
ATOM      5  C   UNL     1       3.224   6.619  18.077  0.00  0.00    +0.000 A 
ENDROOT
BRANCH   3   6
ATOM      6  C   UNL     1       6.237   5.842  15.957  0.00  0.00    +0.000 C 
ATOM      7  N   UNL     1       7.354   6.323  16.408  0.00  0.00    +0.000 NA
ATOM      8  N   UNL     1       6.296   5.336  14.692  0.00  0.00    +0.000 N 
ATOM      9  H   UNL     1       7.209   6.675  17.364  0.00  0.00    +0.000 HD
ATOM     10  H   UNL     1       5.471   5.464  14.121  0.00  0.00    +0.000 HD
ATOM     11  H   UNL     1       7.151   5.630  14.233  0.00  0.00    +0.000 HD
ENDBRANCH   3   6
BRANCH   5  12
ATOM     12  C   UNL     1       2.409   7.641  18.842  0.00  0.00    +0.000 A 
ATOM     13  N   UNL     1       2.073   8.814  18.351  0.00  0.00    +0.000 NA
ATOM     14  C   UNL     1       1.244   9.506  19.223  0.00  0.00    +0.000 A 
ATOM     15  C   UNL     1       1.015   8.860  20.421  0.00  0.00    +0.000 A 
ATOM     16  S   UNL     1       1.812   7.347  20.437  0.00  0.00    +0.000 S 
BRANCH  14  17
ATOM     17  C   UNL     1       0.648  10.798  18.871  0.00  0.00    +0.000 A 
ATOM     18  C   UNL     1       1.384  11.981  19.083  0.00  0.00    +0.000 A 
ATOM     19  C   UNL     1       0.840  13.235  18.793  0.00  0.00    +0.000 A 
ATOM     20  C   UNL     1      -0.447  13.329  18.274  0.00  0.00    +0.000 A 
ATOM     21  C   UNL     1      -1.186  12.173  18.047  0.00  0.00    +0.000 A 
ATOM     22  C   UNL     1      -0.659  10.903  18.343  0.00  0.00    +0.000 A 
ATOM     23  C   UNL     1      -1.530   9.703  18.078  0.00  0.00    +0.000 C 
ENDBRANCH  14  17
ENDBRANCH   5  12
BRANCH   1  25
ATOM     24  C   UNL     1       2.443   3.351  19.838  0.00  0.00    +0.000 C 
ATOM     25  S   UNL     1       1.585   4.329  18.583  0.00  0.00    +0.000 S 
ENDBRANCH   1  25
TORSDOF 4
ENDMDL
MODEL 9
REMARK VINA RESULT:      -6.7      3.391      8.022
REMARK  Name = 
REMARK  6 active torsions:
REMARK  status: ('A' for Active; 'I' for Inactive)
REMARK    1  A    between atoms: C_1  and  S_2
REMARK    2  A    between atoms: S_2  and  C_3
REMARK    3  A    between atoms: C_5  and  C_6
REMARK    4  A    between atoms: C_10  and  C_11
REMARK    5  A    between atoms: C_13  and  C_14
REMARK    6  A    between atoms: C_19  and  C_20
REMARK                            x       y       z     vdW  Elec       q    Type
REMARK                         _______ _______ _______ _____ _____    ______ ____
ROOT
ATOM      1  C   UNL     1       6.516   5.296  16.781  0.00  0.00    +0.000 A 
ATOM      2  S   UNL     1       7.523   5.020  15.418  0.00  0.00    +0.000 S 
ATOM      3  C   UNL     1       6.237   4.409  14.483  0.00  0.00    +0.000 A 
ATOM      4  C   UNL     1       5.051   4.450  15.187  0.00  0.00    +0.000 A 
ATOM      5  C   UNL     1       5.192   4.980  16.516  0.00  0.00    +0.000 A 
ENDROOT
BRANCH   3   6
ATOM      6  C   UNL     1       6.454   3.926  13.129  0.00  0.00    +0.000 C 
ATOM      7  N   UNL     1       7.305   4.501  12.337  0.00  0.00    +0.000 NA
ATOM      8  N   UNL     1       5.793   2.862  12.590  0.00  0.00    +0.000 N 
ATOM      9  H   UNL     1       7.752   5.284  12.832  0.00  0.00    +0.000 HD
ATOM     10  H   UNL     1       4.831   2.741  12.879  0.00  0.00    +0.000 HD
ATOM     11  H   UNL     1       5.913   2.842  11.584  0.00  0.00    +0.000 HD
ENDBRANCH   3   6
BRANCH   5  12
ATOM     12  C   UNL     1       4.025   5.156  17.465  0.00  0.00    +0.000 A 
ATOM     13  N   UNL     1       3.761   6.284  18.087  0.00  0.00    +0.000 NA
ATOM     14  C   UNL     1       2.582   6.195  18.813  0.00  0.00    +0.000 A 
ATOM     15  C   UNL     1       1.992   4.947  18.785  0.00  0.00    +0.000 A 
ATOM     16  S   UNL     1       2.903   3.886  17.802  0.00  0.00    +0.000 S 
BRANCH  14  17
ATOM     17  C   UNL     1       2.010   7.347  19.518  0.00  0.00    +0.000 A 
ATOM     18  C   UNL     1       1.668   7.225  20.879  0.00  0.00    +0.000 A 
ATOM     19  C   UNL     1       1.089   8.287  21.579  0.00  0.00    +0.000 A 
ATOM     20  C   UNL     1       0.854   9.496  20.933  0.00  0.00    +0.000 A 
ATOM     21  C   UNL     1       1.197   9.641  19.592  0.00  0.00    +0.000 A 
ATOM     22  C   UNL     1       1.769   8.579  18.869  0.00  0.00    +0.000 A 
ATOM     23  C   UNL     1       2.097   8.815  17.418  0.00  0.00    +0.000 C 
ENDBRANCH  14  17
ENDBRANCH   5  12
BRANCH   1  25
ATOM     24  C   UNL     1       7.655   7.590  17.705  0.00  0.00    +0.000 C 
ATOM     25  S   UNL     1       7.270   5.910  18.249  0.00  0.00    +0.000 S 
ENDBRANCH   1  25
TORSDOF 4
ENDMDL
