MODEL 1
REMARK VINA RESULT:      -7.7      0.000      0.000
REMARK  Name = 
REMARK  8 active torsions:
REMARK  status: ('A' for Active; 'I' for Inactive)
REMARK    1  A    between atoms: C_1  and  C_2
REMARK    2  A    between atoms: C_2  and  O_3
REMARK    3  A    between atoms: C_2  and  C_4
REMARK    4  A    between atoms: C_2  and  C_21
REMARK    5  A    between atoms: N_6  and  C_7
REMARK    6  A    between atoms: C_10  and  C_11
REMARK    7  A    between atoms: C_11  and  O_12
REMARK    8  A    between atoms: C_11  and  C_13
REMARK                            x       y       z     vdW  Elec       q    Type
REMARK                         _______ _______ _______ _____ _____    ______ ____
ROOT
ATOM      1  C   UNL     1       2.486   7.289  19.149  0.00  0.00    +0.000 A 
ATOM      2  C   UNL     1       1.731   7.763  20.223  0.00  0.00    +0.000 A 
ATOM      3  C   UNL     1       1.017   8.959  20.127  0.00  0.00    +0.000 A 
ATOM      4  C   UNL     1       1.038   9.716  18.950  0.00  0.00    +0.000 A 
ATOM      5  C   UNL     1       1.804   9.244  17.872  0.00  0.00    +0.000 A 
ATOM      6  C   UNL     1       2.534   8.048  17.977  0.00  0.00    +0.000 A 
ENDROOT
BRANCH   1   9
ATOM      7  C   UNL     1       2.731   4.830  18.822  0.00  0.00    +0.000 C 
ATOM      8  O   UNL     1       1.637   4.626  18.292  0.00  0.00    +0.000 OA
ATOM      9  N   UNL     1       3.210   6.079  19.210  0.00  0.00    +0.000 N 
ATOM     10  H   UNL     1       4.199   6.131  19.443  0.00  0.00    +0.000 HD
BRANCH   7  12
ATOM     11  C   UNL     1       3.772   2.795  17.822  0.00  0.00    +0.000 C 
ATOM     12  C   UNL     1       3.701   3.682  19.073  0.00  0.00    +0.000 C 
BRANCH  12  13
ATOM     13  C   UNL     1       3.154   2.886  20.279  0.00  0.00    +0.000 C 
ATOM     14  F   UNL     1       2.188   2.009  19.915  0.00  0.00    +0.000 F 
ATOM     15  F   UNL     1       4.132   2.153  20.871  0.00  0.00    +0.000 F 
ATOM     16  F   UNL     1       2.628   3.670  21.248  0.00  0.00    +0.000 F 
ENDBRANCH  12  13
BRANCH  12  17
ATOM     17  O   UNL     1       5.021   4.241  19.301  0.00  0.00    +0.000 OA
ATOM     18  H   UNL     1       5.672   3.559  19.052  0.00  0.00    +0.000 HD
ENDBRANCH  12  17
ENDBRANCH   7  12
ENDBRANCH   1   9
BRANCH   4  19
ATOM     19  C   UNL     1       0.239  11.008  18.892  0.00  0.00    +0.000 C 
BRANCH  19  20
ATOM     20  C   UNL     1      -1.217  10.885  18.466  0.00  0.00    +0.000 A 
ATOM     21  C   UNL     1      -2.217  11.734  18.967  0.00  0.00    +0.000 A 
ATOM     22  C   UNL     1      -3.530  11.652  18.497  0.00  0.00    +0.000 A 
ATOM     23  C   UNL     1      -3.863  10.734  17.504  0.00  0.00    +0.000 A 
ATOM     24  C   UNL     1      -2.884   9.893  16.983  0.00  0.00    +0.000 A 
ATOM     25  C   UNL     1      -1.574   9.971  17.456  0.00  0.00    +0.000 A 
ENDBRANCH  19  20
BRANCH  19  26
ATOM     26  O   UNL     1       0.914  11.949  18.055  0.00  0.00    +0.000 OA
ATOM     27  H   UNL     1       1.476  12.496  18.625  0.00  0.00    +0.000 HD
ENDBRANCH  19  26
ENDBRANCH   4  19
TORSDOF 7
ENDMDL
MODEL 2
REMARK VINA RESULT:      -7.7      0.164      1.399
REMARK  Name = 
REMARK  8 active torsions:
REMARK  status: ('A' for Active; 'I' for Inactive)
REMARK    1  A    between atoms: C_1  and  C_2
REMARK    2  A    between atoms: C_2  and  O_3
REMARK    3  A    between atoms: C_2  and  C_4
REMARK    4  A    between atoms: C_2  and  C_21
REMARK    5  A    between atoms: N_6  and  C_7
REMARK    6  A    between atoms: C_10  and  C_11
REMARK    7  A    between atoms: C_11  and  O_12
REMARK    8  A    between atoms: C_11  and  C_13
REMARK                            x       y       z     vdW  Elec       q    Type
REMARK                         _______ _______ _______ _____ _____    ______ ____
ROOT
ATOM      1  C   UNL     1       2.453   7.218  19.179  0.00  0.00    +0.000 A 
ATOM      2  C   UNL     1       2.454   7.964  17.999  0.00  0.00    +0.000 A 
ATOM      3  C   UNL     1       1.767   9.176  17.915  0.00  0.00    +0.000 A 
ATOM      4  C   UNL     1       1.058   9.679  19.012  0.00  0.00    +0.000 A 
ATOM      5  C   UNL     1       1.049   8.925  20.197  0.00  0.00    +0.000 A 
ATOM      6  C   UNL     1       1.728   7.698  20.274  0.00  0.00    +0.000 A 
ENDROOT
BRANCH   1   9
ATOM      7  C   UNL     1       2.683   4.758  18.858  0.00  0.00    +0.000 C 
ATOM      8  O   UNL     1       1.643   4.577  18.222  0.00  0.00    +0.000 OA
ATOM      9  N   UNL     1       3.145   5.994  19.301  0.00  0.00    +0.000 N 
ATOM     10  H   UNL     1       4.107   6.026  19.630  0.00  0.00    +0.000 HD
BRANCH   7  12
ATOM     11  C   UNL     1       3.632   2.611  18.011  0.00  0.00    +0.000 C 
ATOM     12  C   UNL     1       3.603   3.589  19.193  0.00  0.00    +0.000 C 
BRANCH  12  13
ATOM     13  C   UNL     1       3.023   2.909  20.455  0.00  0.00    +0.000 C 
ATOM     14  F   UNL     1       2.008   2.062  20.156  0.00  0.00    +0.000 F 
ATOM     15  F   UNL     1       3.965   2.166  21.091  0.00  0.00    +0.000 F 
ATOM     16  F   UNL     1       2.548   3.784  21.369  0.00  0.00    +0.000 F 
ENDBRANCH  12  13
BRANCH  12  17
ATOM     17  O   UNL     1       4.946   4.105  19.381  0.00  0.00    +0.000 OA
ATOM     18  H   UNL     1       5.138   4.075  20.337  0.00  0.00    +0.000 HD
ENDBRANCH  12  17
ENDBRANCH   7  12
ENDBRANCH   1   9
BRANCH   4  19
ATOM     19  C   UNL     1       0.331  11.007  18.873  0.00  0.00    +0.000 C 
BRANCH  19  20
ATOM     20  C   UNL     1      -1.111  10.942  18.391  0.00  0.00    +0.000 A 
ATOM     21  C   UNL     1      -1.545   9.988  17.455  0.00  0.00    +0.000 A 
ATOM     22  C   UNL     1      -2.891   9.900  17.093  0.00  0.00    +0.000 A 
ATOM     23  C   UNL     1      -3.831  10.748  17.674  0.00  0.00    +0.000 A 
ATOM     24  C   UNL     1      -3.424  11.690  18.615  0.00  0.00    +0.000 A 
ATOM     25  C   UNL     1      -2.079  11.783  18.973  0.00  0.00    +0.000 A 
ENDBRANCH  19  20
BRANCH  19  26
ATOM     26  O   UNL     1       1.088  11.878  18.030  0.00  0.00    +0.000 OA
ATOM     27  H   UNL     1       1.237  11.417  17.191  0.00  0.00    +0.000 HD
ENDBRANCH  19  26
ENDBRANCH   4  19
TORSDOF 7
ENDMDL
MODEL 3
REMARK VINA RESULT:      -7.7      0.541      1.120
REMARK  Name = 
REMARK  8 active torsions:
REMARK  status: ('A' for Active; 'I' for Inactive)
REMARK    1  A    between atoms: C_1  and  C_2
REMARK    2  A    between atoms: C_2  and  O_3
REMARK    3  A    between atoms: C_2  and  C_4
REMARK    4  A    between atoms: C_2  and  C_21
REMARK    5  A    between atoms: N_6  and  C_7
REMARK    6  A    between atoms: C_10  and  C_11
REMARK    7  A    between atoms: C_11  and  O_12
REMARK    8  A    between atoms: C_11  and  C_13
REMARK                            x       y       z     vdW  Elec       q    Type
REMARK                         _______ _______ _______ _____ _____    ______ ____
ROOT
ATOM      1  C   UNL     1       2.382   7.017  19.407  0.00  0.00    +0.000 A 
ATOM      2  C   UNL     1       1.680   7.650  20.434  0.00  0.00    +0.000 A 
ATOM      3  C   UNL     1       1.086   8.897  20.235  0.00  0.00    +0.000 A 
ATOM      4  C   UNL     1       1.178   9.549  18.999  0.00  0.00    +0.000 A 
ATOM      5  C   UNL     1       1.892   8.917  17.969  0.00  0.00    +0.000 A 
ATOM      6  C   UNL     1       2.502   7.669  18.176  0.00  0.00    +0.000 A 
ENDROOT
BRANCH   1   9
ATOM      7  C   UNL     1       2.436   4.537  19.171  0.00  0.00    +0.000 C 
ATOM      8  O   UNL     1       1.385   4.410  18.539  0.00  0.00    +0.000 OA
ATOM      9  N   UNL     1       2.986   5.752  19.572  0.00  0.00    +0.000 N 
ATOM     10  H   UNL     1       3.947   5.726  19.902  0.00  0.00    +0.000 HD
BRANCH   7  12
ATOM     11  C   UNL     1       3.090   2.230  18.479  0.00  0.00    +0.000 C 
ATOM     12  C   UNL     1       3.270   3.318  19.547  0.00  0.00    +0.000 C 
BRANCH  12  13
ATOM     13  C   UNL     1       2.757   2.829  20.921  0.00  0.00    +0.000 C 
ATOM     14  F   UNL     1       1.640   2.069  20.807  0.00  0.00    +0.000 F 
ATOM     15  F   UNL     1       3.682   2.056  21.547  0.00  0.00    +0.000 F 
ATOM     16  F   UNL     1       2.461   3.835  21.775  0.00  0.00    +0.000 F 
ENDBRANCH  12  13
BRANCH  12  17
ATOM     17  O   UNL     1       4.668   3.707  19.559  0.00  0.00    +0.000 OA
ATOM     18  H   UNL     1       4.801   4.334  18.823  0.00  0.00    +0.000 HD
ENDBRANCH  12  17
ENDBRANCH   7  12
ENDBRANCH   1   9
BRANCH   4  19
ATOM     19  C   UNL     1       0.508  10.903  18.830  0.00  0.00    +0.000 C 
BRANCH  19  20
ATOM     20  C   UNL     1      -0.946  10.888  18.383  0.00  0.00    +0.000 A 
ATOM     21  C   UNL     1      -1.440   9.934  17.478  0.00  0.00    +0.000 A 
ATOM     22  C   UNL     1      -2.797   9.894  17.148  0.00  0.00    +0.000 A 
ATOM     23  C   UNL     1      -3.687  10.792  17.731  0.00  0.00    +0.000 A 
ATOM     24  C   UNL     1      -3.221  11.736  18.642  0.00  0.00    +0.000 A 
ATOM     25  C   UNL     1      -1.865  11.780  18.968  0.00  0.00    +0.000 A 
ENDBRANCH  19  20
BRANCH  19  26
ATOM     26  O   UNL     1       1.284  11.711  17.943  0.00  0.00    +0.000 OA
ATOM     27  H   UNL     1       0.863  12.583  17.898  0.00  0.00    +0.000 HD
ENDBRANCH  19  26
ENDBRANCH   4  19
TORSDOF 7
ENDMDL
MODEL 4
REMARK VINA RESULT:      -7.7      1.535      2.193
REMARK  Name = 
REMARK  8 active torsions:
REMARK  status: ('A' for Active; 'I' for Inactive)
REMARK    1  A    between atoms: C_1  and  C_2
REMARK    2  A    between atoms: C_2  and  O_3
REMARK    3  A    between atoms: C_2  and  C_4
REMARK    4  A    between atoms: C_2  and  C_21
REMARK    5  A    between atoms: N_6  and  C_7
REMARK    6  A    between atoms: C_10  and  C_11
REMARK    7  A    between atoms: C_11  and  O_12
REMARK    8  A    between atoms: C_11  and  C_13
REMARK                            x       y       z     vdW  Elec       q    Type
REMARK                         _______ _______ _______ _____ _____    ______ ____
ROOT
ATOM      1  C   UNL     1       2.268   6.262  19.352  0.00  0.00    +0.000 A 
ATOM      2  C   UNL     1       1.691   7.069  20.333  0.00  0.00    +0.000 A 
ATOM      3  C   UNL     1       1.422   8.417  20.087  0.00  0.00    +0.000 A 
ATOM      4  C   UNL     1       1.724   8.996  18.849  0.00  0.00    +0.000 A 
ATOM      5  C   UNL     1       2.313   8.187  17.865  0.00  0.00    +0.000 A 
ATOM      6  C   UNL     1       2.597   6.835  18.119  0.00  0.00    +0.000 A 
ENDROOT
BRANCH   1   9
ATOM      7  C   UNL     1       1.953   3.836  18.877  0.00  0.00    +0.000 C 
ATOM      8  O   UNL     1       1.172   3.954  17.931  0.00  0.00    +0.000 OA
ATOM      9  N   UNL     1       2.544   4.894  19.564  0.00  0.00    +0.000 N 
ATOM     10  H   UNL     1       3.317   4.657  20.181  0.00  0.00    +0.000 HD
BRANCH   7  12
ATOM     11  C   UNL     1       2.455   2.465  20.901  0.00  0.00    +0.000 C 
ATOM     12  C   UNL     1       2.379   2.457  19.368  0.00  0.00    +0.000 C 
BRANCH  12  13
ATOM     13  C   UNL     1       3.767   2.169  18.751  0.00  0.00    +0.000 C 
ATOM     14  F   UNL     1       3.987   2.896  17.629  0.00  0.00    +0.000 F 
ATOM     15  F   UNL     1       4.766   2.486  19.614  0.00  0.00    +0.000 F 
ATOM     16  F   UNL     1       3.950   0.870  18.420  0.00  0.00    +0.000 F 
ENDBRANCH  12  13
BRANCH  12  17
ATOM     17  O   UNL     1       1.362   1.498  18.975  0.00  0.00    +0.000 OA
ATOM     18  H   UNL     1       1.822   0.724  18.602  0.00  0.00    +0.000 HD
ENDBRANCH  12  17
ENDBRANCH   7  12
ENDBRANCH   1   9
BRANCH   4  19
ATOM     19  C   UNL     1       1.406  10.466  18.628  0.00  0.00    +0.000 C 
BRANCH  19  20
ATOM     20  C   UNL     1      -0.068  10.831  18.516  0.00  0.00    +0.000 A 
ATOM     21  C   UNL     1      -0.981  10.041  17.797  0.00  0.00    +0.000 A 
ATOM     22  C   UNL     1      -2.342  10.356  17.779  0.00  0.00    +0.000 A 
ATOM     23  C   UNL     1      -2.818  11.452  18.494  0.00  0.00    +0.000 A 
ATOM     24  C   UNL     1      -1.933  12.238  19.226  0.00  0.00    +0.000 A 
ATOM     25  C   UNL     1      -0.572  11.928  19.240  0.00  0.00    +0.000 A 
ENDBRANCH  19  20
BRANCH  19  26
ATOM     26  O   UNL     1       2.114  10.941  17.482  0.00  0.00    +0.000 OA
ATOM     27  H   UNL     1       2.477  10.168  17.022  0.00  0.00    +0.000 HD
ENDBRANCH  19  26
ENDBRANCH   4  19
TORSDOF 7
ENDMDL
MODEL 5
REMARK VINA RESULT:      -7.6      1.307      1.446
REMARK  Name = 
REMARK  8 active torsions:
REMARK  status: ('A' for Active; 'I' for Inactive)
REMARK    1  A    between atoms: C_1  and  C_2
REMARK    2  A    between atoms: C_2  and  O_3
REMARK    3  A    between atoms: C_2  and  C_4
REMARK    4  A    between atoms: C_2  and  C_21
REMARK    5  A    between atoms: N_6  and  C_7
REMARK    6  A    between atoms: C_10  and  C_11
REMARK    7  A    between atoms: C_11  and  O_12
REMARK    8  A    between atoms: C_11  and  C_13
REMARK                            x       y       z     vdW  Elec       q    Type
REMARK                         _______ _______ _______ _____ _____    ______ ____
ROOT
ATOM      1  C   UNL     1       2.484   6.771  19.208  0.00  0.00    +0.000 A 
ATOM      2  C   UNL     1       1.875   7.388  20.302  0.00  0.00    +0.000 A 
ATOM      3  C   UNL     1       1.321   8.664  20.191  0.00  0.00    +0.000 A 
ATOM      4  C   UNL     1       1.359   9.362  18.978  0.00  0.00    +0.000 A 
ATOM      5  C   UNL     1       1.979   8.746  17.879  0.00  0.00    +0.000 A 
ATOM      6  C   UNL     1       2.550   7.468  17.997  0.00  0.00    +0.000 A 
ENDROOT
BRANCH   1   9
ATOM      7  C   UNL     1       2.354   4.317  19.623  0.00  0.00    +0.000 C 
ATOM      8  O   UNL     1       1.139   4.248  19.819  0.00  0.00    +0.000 OA
ATOM      9  N   UNL     1       3.044   5.478  19.284  0.00  0.00    +0.000 N 
ATOM     10  H   UNL     1       3.998   5.356  18.953  0.00  0.00    +0.000 HD
BRANCH   7  12
ATOM     11  C   UNL     1       4.678   3.446  19.370  0.00  0.00    +0.000 C 
ATOM     12  C   UNL     1       3.228   3.072  19.705  0.00  0.00    +0.000 C 
BRANCH  12  13
ATOM     13  C   UNL     1       2.670   2.062  18.677  0.00  0.00    +0.000 C 
ATOM     14  F   UNL     1       2.373   2.651  17.493  0.00  0.00    +0.000 F 
ATOM     15  F   UNL     1       3.575   1.087  18.401  0.00  0.00    +0.000 F 
ATOM     16  F   UNL     1       1.549   1.432  19.094  0.00  0.00    +0.000 F 
ENDBRANCH  12  13
BRANCH  12  17
ATOM     17  O   UNL     1       3.196   2.581  21.071  0.00  0.00    +0.000 OA
ATOM     18  H   UNL     1       4.118   2.544  21.388  0.00  0.00    +0.000 HD
ENDBRANCH  12  17
ENDBRANCH   7  12
ENDBRANCH   1   9
BRANCH   4  19
ATOM     19  C   UNL     1       0.735  10.746  18.905  0.00  0.00    +0.000 C 
BRANCH  19  20
ATOM     20  C   UNL     1      -0.755  10.803  18.603  0.00  0.00    +0.000 A 
ATOM     21  C   UNL     1      -1.610  11.726  19.227  0.00  0.00    +0.000 A 
ATOM     22  C   UNL     1      -2.959  11.810  18.869  0.00  0.00    +0.000 A 
ATOM     23  C   UNL     1      -3.471  10.987  17.870  0.00  0.00    +0.000 A 
ATOM     24  C   UNL     1      -2.637  10.075  17.228  0.00  0.00    +0.000 A 
ATOM     25  C   UNL     1      -1.292   9.988  17.588  0.00  0.00    +0.000 A 
ENDBRANCH  19  20
BRANCH  19  26
ATOM     26  O   UNL     1       1.455  11.545  17.964  0.00  0.00    +0.000 OA
ATOM     27  H   UNL     1       2.368  11.617  18.280  0.00  0.00    +0.000 HD
ENDBRANCH  19  26
ENDBRANCH   4  19
TORSDOF 7
ENDMDL
MODEL 6
REMARK VINA RESULT:      -7.6      1.531      2.417
REMARK  Name = 
REMARK  8 active torsions:
REMARK  status: ('A' for Active; 'I' for Inactive)
REMARK    1  A    between atoms: C_1  and  C_2
REMARK    2  A    between atoms: C_2  and  O_3
REMARK    3  A    between atoms: C_2  and  C_4
REMARK    4  A    between atoms: C_2  and  C_21
REMARK    5  A    between atoms: N_6  and  C_7
REMARK    6  A    between atoms: C_10  and  C_11
REMARK    7  A    between atoms: C_11  and  O_12
REMARK    8  A    between atoms: C_11  and  C_13
REMARK                            x       y       z     vdW  Elec       q    Type
REMARK                         _______ _______ _______ _____ _____    ______ ____
ROOT
ATOM      1  C   UNL     1       2.222   6.285  19.280  0.00  0.00    +0.000 A 
ATOM      2  C   UNL     1       2.467   6.914  18.058  0.00  0.00    +0.000 A 
ATOM      3  C   UNL     1       2.196   8.272  17.882  0.00  0.00    +0.000 A 
ATOM      4  C   UNL     1       1.669   9.041  18.926  0.00  0.00    +0.000 A 
ATOM      5  C   UNL     1       1.413   8.408  20.152  0.00  0.00    +0.000 A 
ATOM      6  C   UNL     1       1.673   7.038  20.322  0.00  0.00    +0.000 A 
ENDROOT
BRANCH   1   9
ATOM      7  C   UNL     1       1.941   3.861  18.775  0.00  0.00    +0.000 C 
ATOM      8  O   UNL     1       1.203   3.982  17.795  0.00  0.00    +0.000 OA
ATOM      9  N   UNL     1       2.494   4.917  19.494  0.00  0.00    +0.000 N 
ATOM     10  H   UNL     1       3.241   4.680  20.143  0.00  0.00    +0.000 HD
BRANCH   7  12
ATOM     11  C   UNL     1       2.351   2.475  20.809  0.00  0.00    +0.000 C 
ATOM     12  C   UNL     1       2.352   2.481  19.274  0.00  0.00    +0.000 C 
BRANCH  12  13
ATOM     13  C   UNL     1       3.771   2.208  18.726  0.00  0.00    +0.000 C 
ATOM     14  F   UNL     1       4.733   2.502  19.633  0.00  0.00    +0.000 F 
ATOM     15  F   UNL     1       3.933   0.898  18.407  0.00  0.00    +0.000 F 
ATOM     16  F   UNL     1       4.060   2.909  17.606  0.00  0.00    +0.000 F 
ENDBRANCH  12  13
BRANCH  12  17
ATOM     17  O   UNL     1       1.363   1.519  18.822  0.00  0.00    +0.000 OA
ATOM     18  H   UNL     1       1.338   0.799  19.480  0.00  0.00    +0.000 HD
ENDBRANCH  12  17
ENDBRANCH   7  12
ENDBRANCH   1   9
BRANCH   4  19
ATOM     19  C   UNL     1       1.397  10.518  18.687  0.00  0.00    +0.000 C 
BRANCH  19  20
ATOM     20  C   UNL     1      -0.066  10.932  18.605  0.00  0.00    +0.000 A 
ATOM     21  C   UNL     1      -1.017  10.181  17.895  0.00  0.00    +0.000 A 
ATOM     22  C   UNL     1      -2.367  10.540  17.905  0.00  0.00    +0.000 A 
ATOM     23  C   UNL     1      -2.794  11.643  18.641  0.00  0.00    +0.000 A 
ATOM     24  C   UNL     1      -1.870  12.391  19.365  0.00  0.00    +0.000 A 
ATOM     25  C   UNL     1      -0.520  12.036  19.350  0.00  0.00    +0.000 A 
ENDBRANCH  19  20
BRANCH  19  26
ATOM     26  O   UNL     1       2.091  10.947  17.514  0.00  0.00    +0.000 OA
ATOM     27  H   UNL     1       2.370  11.864  17.659  0.00  0.00    +0.000 HD
ENDBRANCH  19  26
ENDBRANCH   4  19
TORSDOF 7
ENDMDL
MODEL 7
REMARK VINA RESULT:      -7.6      1.532      2.213
REMARK  Name = 
REMARK  8 active torsions:
REMARK  status: ('A' for Active; 'I' for Inactive)
REMARK    1  A    between atoms: C_1  and  C_2
REMARK    2  A    between atoms: C_2  and  O_3
REMARK    3  A    between atoms: C_2  and  C_4
REMARK    4  A    between atoms: C_2  and  C_21
REMARK    5  A    between atoms: N_6  and  C_7
REMARK    6  A    between atoms: C_10  and  C_11
REMARK    7  A    between atoms: C_11  and  O_12
REMARK    8  A    between atoms: C_11  and  C_13
REMARK                            x       y       z     vdW  Elec       q    Type
REMARK                         _______ _______ _______ _____ _____    ______ ____
ROOT
ATOM      1  C   UNL     1       2.322   6.260  19.385  0.00  0.00    +0.000 A 
ATOM      2  C   UNL     1       2.582   6.877  18.161  0.00  0.00    +0.000 A 
ATOM      3  C   UNL     1       2.275   8.223  17.955  0.00  0.00    +0.000 A 
ATOM      4  C   UNL     1       1.699   8.993  18.973  0.00  0.00    +0.000 A 
ATOM      5  C   UNL     1       1.429   8.370  20.202  0.00  0.00    +0.000 A 
ATOM      6  C   UNL     1       1.723   7.011  20.401  0.00  0.00    +0.000 A 
ENDROOT
BRANCH   1   9
ATOM      7  C   UNL     1       2.017   3.814  19.013  0.00  0.00    +0.000 C 
ATOM      8  O   UNL     1       1.185   3.889  18.108  0.00  0.00    +0.000 OA
ATOM      9  N   UNL     1       2.629   4.904  19.629  0.00  0.00    +0.000 N 
ATOM     10  H   UNL     1       3.438   4.699  20.210  0.00  0.00    +0.000 HD
BRANCH   7  12
ATOM     11  C   UNL     1       2.616   2.512  21.056  0.00  0.00    +0.000 C 
ATOM     12  C   UNL     1       2.490   2.459  19.527  0.00  0.00    +0.000 C 
BRANCH  12  13
ATOM     13  C   UNL     1       3.863   2.184  18.873  0.00  0.00    +0.000 C 
ATOM     14  F   UNL     1       4.892   2.513  19.690  0.00  0.00    +0.000 F 
ATOM     15  F   UNL     1       4.014   0.867  18.579  0.00  0.00    +0.000 F 
ATOM     16  F   UNL     1       4.052   2.855  17.714  0.00  0.00    +0.000 F 
ENDBRANCH  12  13
BRANCH  12  17
ATOM     17  O   UNL     1       1.483   1.468  19.195  0.00  0.00    +0.000 OA
ATOM     18  H   UNL     1       0.699   1.656  19.743  0.00  0.00    +0.000 HD
ENDBRANCH  12  17
ENDBRANCH   7  12
ENDBRANCH   1   9
BRANCH   4  19
ATOM     19  C   UNL     1       1.390  10.456  18.702  0.00  0.00    +0.000 C 
BRANCH  19  20
ATOM     20  C   UNL     1      -0.082  10.841  18.660  0.00  0.00    +0.000 A 
ATOM     21  C   UNL     1      -0.576  11.983  19.311  0.00  0.00    +0.000 A 
ATOM     22  C   UNL     1      -1.917  12.357  19.187  0.00  0.00    +0.000 A 
ATOM     23  C   UNL     1      -2.783  11.607  18.395  0.00  0.00    +0.000 A 
ATOM     24  C   UNL     1      -2.310  10.480  17.728  0.00  0.00    +0.000 A 
ATOM     25  C   UNL     1      -0.973  10.104  17.856  0.00  0.00    +0.000 A 
ENDBRANCH  19  20
BRANCH  19  26
ATOM     26  O   UNL     1       2.036  10.865  17.495  0.00  0.00    +0.000 OA
ATOM     27  H   UNL     1       2.824  10.312  17.383  0.00  0.00    +0.000 HD
ENDBRANCH  19  26
ENDBRANCH   4  19
TORSDOF 7
ENDMDL
MODEL 8
REMARK VINA RESULT:      -7.6      0.136      1.258
REMARK  Name = 
REMARK  8 active torsions:
REMARK  status: ('A' for Active; 'I' for Inactive)
REMARK    1  A    between atoms: C_1  and  C_2
REMARK    2  A    between atoms: C_2  and  O_3
REMARK    3  A    between atoms: C_2  and  C_4
REMARK    4  A    between atoms: C_2  and  C_21
REMARK    5  A    between atoms: N_6  and  C_7
REMARK    6  A    between atoms: C_10  and  C_11
REMARK    7  A    between atoms: C_11  and  O_12
REMARK    8  A    between atoms: C_11  and  C_13
REMARK                            x       y       z     vdW  Elec       q    Type
REMARK                         _______ _______ _______ _____ _____    ______ ____
ROOT
ATOM      1  C   UNL     1       2.554   7.328  19.002  0.00  0.00    +0.000 A 
ATOM      2  C   UNL     1       2.496   8.128  17.860  0.00  0.00    +0.000 A 
ATOM      3  C   UNL     1       1.756   9.311  17.849  0.00  0.00    +0.000 A 
ATOM      4  C   UNL     1       1.050   9.729  18.984  0.00  0.00    +0.000 A 
ATOM      5  C   UNL     1       1.100   8.920  20.130  0.00  0.00    +0.000 A 
ATOM      6  C   UNL     1       1.834   7.721  20.134  0.00  0.00    +0.000 A 
ENDROOT
BRANCH   1   9
ATOM      7  C   UNL     1       2.810   4.860  18.762  0.00  0.00    +0.000 C 
ATOM      8  O   UNL     1       1.677   4.618  18.344  0.00  0.00    +0.000 OA
ATOM      9  N   UNL     1       3.302   6.131  19.050  0.00  0.00    +0.000 N 
ATOM     10  H   UNL     1       4.306   6.207  19.189  0.00  0.00    +0.000 HD
BRANCH   7  12
ATOM     11  C   UNL     1       3.928   2.904  17.689  0.00  0.00    +0.000 C 
ATOM     12  C   UNL     1       3.819   3.738  18.974  0.00  0.00    +0.000 C 
BRANCH  12  13
ATOM     13  C   UNL     1       3.293   2.875  20.144  0.00  0.00    +0.000 C 
ATOM     14  F   UNL     1       4.287   2.189  20.758  0.00  0.00    +0.000 F 
ATOM     15  F   UNL     1       2.712   3.644  21.101  0.00  0.00    +0.000 F 
ATOM     16  F   UNL     1       2.363   1.968  19.770  0.00  0.00    +0.000 F 
ENDBRANCH  12  13
BRANCH  12  17
ATOM     17  O   UNL     1       5.117   4.333  19.233  0.00  0.00    +0.000 OA
ATOM     18  H   UNL     1       5.788   3.753  18.827  0.00  0.00    +0.000 HD
ENDBRANCH  12  17
ENDBRANCH   7  12
ENDBRANCH   1   9
BRANCH   4  19
ATOM     19  C   UNL     1       0.263  11.028  18.924  0.00  0.00    +0.000 C 
BRANCH  19  20
ATOM     20  C   UNL     1      -1.199  10.917  18.515  0.00  0.00    +0.000 A 
ATOM     21  C   UNL     1      -2.183  11.786  19.013  0.00  0.00    +0.000 A 
ATOM     22  C   UNL     1      -3.502  11.713  18.558  0.00  0.00    +0.000 A 
ATOM     23  C   UNL     1      -3.856  10.783  17.583  0.00  0.00    +0.000 A 
ATOM     24  C   UNL     1      -2.892   9.922  17.065  0.00  0.00    +0.000 A 
ATOM     25  C   UNL     1      -1.576   9.992  17.523  0.00  0.00    +0.000 A 
ENDBRANCH  19  20
BRANCH  19  26
ATOM     26  O   UNL     1       0.939  11.956  18.072  0.00  0.00    +0.000 OA
ATOM     27  H   UNL     1       1.884  11.911  18.283  0.00  0.00    +0.000 HD
ENDBRANCH  19  26
ENDBRANCH   4  19
TORSDOF 7
ENDMDL
MODEL 9
REMARK VINA RESULT:      -7.5      1.293      2.075
REMARK  Name = 
REMARK  8 active torsions:
REMARK  status: ('A' for Active; 'I' for Inactive)
REMARK    1  A    between atoms: C_1  and  C_2
REMARK    2  A    between atoms: C_2  and  O_3
REMARK    3  A    between atoms: C_2  and  C_4
REMARK    4  A    between atoms: C_2  and  C_21
REMARK    5  A    between atoms: N_6  and  C_7
REMARK    6  A    between atoms: C_10  and  C_11
REMARK    7  A    between atoms: C_11  and  O_12
REMARK    8  A    between atoms: C_11  and  C_13
REMARK                            x       y       z     vdW  Elec       q    Type
REMARK                         _______ _______ _______ _____ _____    ______ ____
ROOT
ATOM      1  C   UNL     1       2.505   6.779  19.085  0.00  0.00    +0.000 A 
ATOM      2  C   UNL     1       2.507   7.512  17.898  0.00  0.00    +0.000 A 
ATOM      3  C   UNL     1       1.938   8.785  17.840  0.00  0.00    +0.000 A 
ATOM      4  C   UNL     1       1.350   9.363  18.971  0.00  0.00    +0.000 A 
ATOM      5  C   UNL     1       1.339   8.622  20.163  0.00  0.00    +0.000 A 
ATOM      6  C   UNL     1       1.898   7.335  20.216  0.00  0.00    +0.000 A 
ENDROOT
BRANCH   1   9
ATOM      7  C   UNL     1       2.391   4.321  19.480  0.00  0.00    +0.000 C 
ATOM      8  O   UNL     1       1.170   4.233  19.617  0.00  0.00    +0.000 OA
ATOM      9  N   UNL     1       3.080   5.493  19.181  0.00  0.00    +0.000 N 
ATOM     10  H   UNL     1       4.051   5.387  18.896  0.00  0.00    +0.000 HD
BRANCH   7  12
ATOM     11  C   UNL     1       4.733   3.476  19.297  0.00  0.00    +0.000 C 
ATOM     12  C   UNL     1       3.279   3.087  19.599  0.00  0.00    +0.000 C 
BRANCH  12  13
ATOM     13  C   UNL     1       2.761   2.060  18.566  0.00  0.00    +0.000 C 
ATOM     14  F   UNL     1       1.614   1.463  18.973  0.00  0.00    +0.000 F 
ATOM     15  F   UNL     1       2.482   2.653  17.377  0.00  0.00    +0.000 F 
ATOM     16  F   UNL     1       3.644   1.071  18.300  0.00  0.00    +0.000 F 
ENDBRANCH  12  13
BRANCH  12  17
ATOM     17  O   UNL     1       3.218   2.610  20.968  0.00  0.00    +0.000 OA
ATOM     18  H   UNL     1       3.166   1.637  20.934  0.00  0.00    +0.000 HD
ENDBRANCH  12  17
ENDBRANCH   7  12
ENDBRANCH   1   9
BRANCH   4  19
ATOM     19  C   UNL     1       0.749  10.755  18.858  0.00  0.00    +0.000 C 
BRANCH  19  20
ATOM     20  C   UNL     1      -0.721  10.829  18.470  0.00  0.00    +0.000 A 
ATOM     21  C   UNL     1      -1.294   9.943  17.543  0.00  0.00    +0.000 A 
ATOM     22  C   UNL     1      -2.664   9.982  17.267  0.00  0.00    +0.000 A 
ATOM     23  C   UNL     1      -3.486  10.892  17.927  0.00  0.00    +0.000 A 
ATOM     24  C   UNL     1      -2.940  11.768  18.861  0.00  0.00    +0.000 A 
ATOM     25  C   UNL     1      -1.572  11.733  19.132  0.00  0.00    +0.000 A 
ENDBRANCH  19  20
BRANCH  19  26
ATOM     26  O   UNL     1       1.532  11.540  17.956  0.00  0.00    +0.000 OA
ATOM     27  H   UNL     1       2.282  10.997  17.670  0.00  0.00    +0.000 HD
ENDBRANCH  19  26
ENDBRANCH   4  19
TORSDOF 7
ENDMDL
