MODEL 1
REMARK VINA RESULT:      -7.7      0.000      0.000
REMARK  Name = 
REMARK  7 active torsions:
REMARK  status: ('A' for Active; 'I' for Inactive)
REMARK    1  A    between atoms: C_1  and  C_2
REMARK    2  A    between atoms: C_5  and  O_6
REMARK    3  A    between atoms: C_7  and  O_8
REMARK    4  A    between atoms: C_12  and  C_13
REMARK    5  A    between atoms: C_16  and  O_17
REMARK    6  A    between atoms: C_18  and  O_19
REMARK    7  A    between atoms: N_21  and  C_22
REMARK                            x       y       z     vdW  Elec       q    Type
REMARK                         _______ _______ _______ _____ _____    ______ ____
ROOT
ATOM      1  C   UNL     1       1.926   9.936  17.759  0.00  0.00    +0.000 C 
ATOM      2  C   UNL     1       1.758   8.973  18.903  0.00  0.00    +0.000 A 
ATOM      3  C   UNL     1       1.025   9.341  20.067  0.00  0.00    +0.000 A 
ATOM      4  C   UNL     1       0.341  10.579  20.225  0.00  0.00    +0.000 A 
ATOM      5  C   UNL     1      -0.411  10.854  21.359  0.00  0.00    +0.000 A 
ATOM      6  C   UNL     1      -0.499   9.915  22.371  0.00  0.00    +0.000 A 
ATOM      7  C   UNL     1       0.187   8.713  22.275  0.00  0.00    +0.000 A 
ATOM      8  C   UNL     1       0.948   8.418  21.129  0.00  0.00    +0.000 A 
ATOM      9  C   UNL     1       1.628   7.207  21.020  0.00  0.00    +0.000 A 
ATOM     10  C   UNL     1       2.313   6.845  19.843  0.00  0.00    +0.000 A 
ATOM     11  N   UNL     1       2.322   7.721  18.785  0.00  0.00    +0.000 N 
ATOM     12  C   UNL     1       2.889   7.363  17.452  0.00  0.00    +0.000 C 
ENDROOT
BRANCH  10  13
ATOM     13  C   UNL     1       2.919   5.493  19.707  0.00  0.00    +0.000 A 
ATOM     14  C   UNL     1       2.219   4.290  19.952  0.00  0.00    +0.000 A 
ATOM     15  C   UNL     1       2.871   3.046  19.998  0.00  0.00    +0.000 A 
ATOM     16  C   UNL     1       4.220   2.976  19.685  0.00  0.00    +0.000 A 
ATOM     17  C   UNL     1       4.899   4.123  19.303  0.00  0.00    +0.000 A 
ATOM     18  C   UNL     1       4.273   5.366  19.325  0.00  0.00    +0.000 A 
BRANCH  16  19
ATOM     19  O   UNL     1       4.923   1.808  19.737  0.00  0.00    +0.000 OA
ATOM     20  H   UNL     1       4.452   1.130  19.222  0.00  0.00    +0.000 HD
ENDBRANCH  16  19
BRANCH  17  21
ATOM     21  O   UNL     1       6.207   4.053  18.924  0.00  0.00    +0.000 OA
ATOM     22  H   UNL     1       6.643   4.812  19.363  0.00  0.00    +0.000 HD
ENDBRANCH  17  21
ENDBRANCH  10  13
BRANCH   5  23
ATOM     23  O   UNL     1      -1.095  12.025  21.508  0.00  0.00    +0.000 OA
ATOM     24  H   UNL     1      -1.938  11.849  21.972  0.00  0.00    +0.000 HD
ENDBRANCH   5  23
BRANCH   6  25
ATOM     25  O   UNL     1      -1.271  10.162  23.467  0.00  0.00    +0.000 OA
ATOM     26  H   UNL     1      -1.696  11.025  23.285  0.00  0.00    +0.000 HD
ENDBRANCH   6  25
TORSDOF 5
ENDMDL
MODEL 2
REMARK VINA RESULT:      -7.6      2.211      7.642
REMARK  Name = 
REMARK  7 active torsions:
REMARK  status: ('A' for Active; 'I' for Inactive)
REMARK    1  A    between atoms: C_1  and  C_2
REMARK    2  A    between atoms: C_5  and  O_6
REMARK    3  A    between atoms: C_7  and  O_8
REMARK    4  A    between atoms: C_12  and  C_13
REMARK    5  A    between atoms: C_16  and  O_17
REMARK    6  A    between atoms: C_18  and  O_19
REMARK    7  A    between atoms: N_21  and  C_22
REMARK                            x       y       z     vdW  Elec       q    Type
REMARK                         _______ _______ _______ _____ _____    ______ ____
ROOT
ATOM      1  C   UNL     1       3.112   3.379  19.614  0.00  0.00    +0.000 C 
ATOM      2  C   UNL     1       3.237   4.724  18.950  0.00  0.00    +0.000 A 
ATOM      3  C   UNL     1       4.106   4.913  17.838  0.00  0.00    +0.000 A 
ATOM      4  C   UNL     1       4.856   3.872  17.221  0.00  0.00    +0.000 A 
ATOM      5  C   UNL     1       5.638   4.108  16.099  0.00  0.00    +0.000 A 
ATOM      6  C   UNL     1       5.705   5.380  15.561  0.00  0.00    +0.000 A 
ATOM      7  C   UNL     1       5.024   6.431  16.157  0.00  0.00    +0.000 A 
ATOM      8  C   UNL     1       4.222   6.207  17.292  0.00  0.00    +0.000 A 
ATOM      9  C   UNL     1       3.524   7.255  17.887  0.00  0.00    +0.000 A 
ATOM     10  C   UNL     1       2.637   7.039  18.960  0.00  0.00    +0.000 A 
ATOM     11  N   UNL     1       2.475   5.762  19.440  0.00  0.00    +0.000 N 
ATOM     12  C   UNL     1       1.449   5.415  20.467  0.00  0.00    +0.000 C 
ENDROOT
BRANCH  10  13
ATOM     13  C   UNL     1       1.806   8.155  19.490  0.00  0.00    +0.000 A 
ATOM     14  C   UNL     1       1.444   8.288  20.849  0.00  0.00    +0.000 A 
ATOM     15  C   UNL     1       0.506   9.242  21.278  0.00  0.00    +0.000 A 
ATOM     16  C   UNL     1       0.002  10.156  20.366  0.00  0.00    +0.000 A 
ATOM     17  C   UNL     1       0.450  10.136  19.054  0.00  0.00    +0.000 A 
ATOM     18  C   UNL     1       1.324   9.149  18.610  0.00  0.00    +0.000 A 
BRANCH  16  19
ATOM     19  O   UNL     1      -0.931  11.091  20.706  0.00  0.00    +0.000 OA
ATOM     20  H   UNL     1      -0.950  11.784  20.023  0.00  0.00    +0.000 HD
ENDBRANCH  16  19
BRANCH  17  21
ATOM     21  O   UNL     1       0.016  11.077  18.166  0.00  0.00    +0.000 OA
ATOM     22  H   UNL     1       0.245  10.721  17.282  0.00  0.00    +0.000 HD
ENDBRANCH  17  21
ENDBRANCH  10  13
BRANCH   5  23
ATOM     23  O   UNL     1       6.337   3.112  15.482  0.00  0.00    +0.000 OA
ATOM     24  H   UNL     1       6.791   2.570  16.159  0.00  0.00    +0.000 HD
ENDBRANCH   5  23
BRANCH   6  25
ATOM     25  O   UNL     1       6.437   5.608  14.434  0.00  0.00    +0.000 OA
ATOM     26  H   UNL     1       7.348   5.337  14.667  0.00  0.00    +0.000 HD
ENDBRANCH   6  25
TORSDOF 5
ENDMDL
MODEL 3
REMARK VINA RESULT:      -7.5      4.921      7.878
REMARK  Name = 
REMARK  7 active torsions:
REMARK  status: ('A' for Active; 'I' for Inactive)
REMARK    1  A    between atoms: C_1  and  C_2
REMARK    2  A    between atoms: C_5  and  O_6
REMARK    3  A    between atoms: C_7  and  O_8
REMARK    4  A    between atoms: C_12  and  C_13
REMARK    5  A    between atoms: C_16  and  O_17
REMARK    6  A    between atoms: C_18  and  O_19
REMARK    7  A    between atoms: N_21  and  C_22
REMARK                            x       y       z     vdW  Elec       q    Type
REMARK                         _______ _______ _______ _____ _____    ______ ____
ROOT
ATOM      1  C   UNL     1       7.449   6.661  17.453  0.00  0.00    +0.000 C 
ATOM      2  C   UNL     1       6.438   5.616  17.067  0.00  0.00    +0.000 A 
ATOM      3  C   UNL     1       6.383   5.107  15.738  0.00  0.00    +0.000 A 
ATOM      4  C   UNL     1       7.293   5.466  14.704  0.00  0.00    +0.000 A 
ATOM      5  C   UNL     1       7.227   4.886  13.445  0.00  0.00    +0.000 A 
ATOM      6  C   UNL     1       6.254   3.941  13.172  0.00  0.00    +0.000 A 
ATOM      7  C   UNL     1       5.322   3.595  14.139  0.00  0.00    +0.000 A 
ATOM      8  C   UNL     1       5.380   4.169  15.422  0.00  0.00    +0.000 A 
ATOM      9  C   UNL     1       4.455   3.815  16.402  0.00  0.00    +0.000 A 
ATOM     10  C   UNL     1       4.551   4.299  17.721  0.00  0.00    +0.000 A 
ATOM     11  N   UNL     1       5.577   5.157  18.040  0.00  0.00    +0.000 N 
ATOM     12  C   UNL     1       5.848   5.598  19.440  0.00  0.00    +0.000 C 
ENDROOT
BRANCH  10  13
ATOM     13  C   UNL     1       3.629   3.802  18.778  0.00  0.00    +0.000 A 
ATOM     14  C   UNL     1       2.264   4.159  18.861  0.00  0.00    +0.000 A 
ATOM     15  C   UNL     1       1.475   3.825  19.974  0.00  0.00    +0.000 A 
ATOM     16  C   UNL     1       2.012   3.026  20.972  0.00  0.00    +0.000 A 
ATOM     17  C   UNL     1       3.307   2.545  20.845  0.00  0.00    +0.000 A 
ATOM     18  C   UNL     1       4.114   2.932  19.779  0.00  0.00    +0.000 A 
BRANCH  16  19
ATOM     19  O   UNL     1       1.314   2.686  22.093  0.00  0.00    +0.000 OA
ATOM     20  H   UNL     1       1.603   3.251  22.832  0.00  0.00    +0.000 HD
ENDBRANCH  16  19
BRANCH  17  21
ATOM     21  O   UNL     1       3.820   1.700  21.785  0.00  0.00    +0.000 OA
ATOM     22  H   UNL     1       3.475   2.028  22.641  0.00  0.00    +0.000 HD
ENDBRANCH  17  21
ENDBRANCH  10  13
BRANCH   5  23
ATOM     23  O   UNL     1       8.112   5.201  12.456  0.00  0.00    +0.000 OA
ATOM     24  H   UNL     1       9.022   5.172  12.816  0.00  0.00    +0.000 HD
ENDBRANCH   5  23
BRANCH   6  25
ATOM     25  O   UNL     1       6.211   3.337  11.951  0.00  0.00    +0.000 OA
ATOM     26  H   UNL     1       5.259   3.193  11.776  0.00  0.00    +0.000 HD
ENDBRANCH   6  25
TORSDOF 5
ENDMDL
MODEL 4
REMARK VINA RESULT:      -7.4      2.069      7.568
REMARK  Name = 
REMARK  7 active torsions:
REMARK  status: ('A' for Active; 'I' for Inactive)
REMARK    1  A    between atoms: C_1  and  C_2
REMARK    2  A    between atoms: C_5  and  O_6
REMARK    3  A    between atoms: C_7  and  O_8
REMARK    4  A    between atoms: C_12  and  C_13
REMARK    5  A    between atoms: C_16  and  O_17
REMARK    6  A    between atoms: C_18  and  O_19
REMARK    7  A    between atoms: N_21  and  C_22
REMARK                            x       y       z     vdW  Elec       q    Type
REMARK                         _______ _______ _______ _____ _____    ______ ____
ROOT
ATOM      1  C   UNL     1       3.017   3.360  19.737  0.00  0.00    +0.000 C 
ATOM      2  C   UNL     1       3.156   4.714  19.096  0.00  0.00    +0.000 A 
ATOM      3  C   UNL     1       4.015   4.908  17.977  0.00  0.00    +0.000 A 
ATOM      4  C   UNL     1       4.740   3.866  17.332  0.00  0.00    +0.000 A 
ATOM      5  C   UNL     1       5.512   4.109  16.205  0.00  0.00    +0.000 A 
ATOM      6  C   UNL     1       5.595   5.390  15.689  0.00  0.00    +0.000 A 
ATOM      7  C   UNL     1       4.938   6.441  16.312  0.00  0.00    +0.000 A 
ATOM      8  C   UNL     1       4.147   6.209  17.452  0.00  0.00    +0.000 A 
ATOM      9  C   UNL     1       3.473   7.258  18.074  0.00  0.00    +0.000 A 
ATOM     10  C   UNL     1       2.596   7.038  19.155  0.00  0.00    +0.000 A 
ATOM     11  N   UNL     1       2.418   5.756  19.613  0.00  0.00    +0.000 N 
ATOM     12  C   UNL     1       1.398   5.408  20.647  0.00  0.00    +0.000 C 
ENDROOT
BRANCH  10  13
ATOM     13  C   UNL     1       1.791   8.158  19.715  0.00  0.00    +0.000 A 
ATOM     14  C   UNL     1       1.156   9.142  18.923  0.00  0.00    +0.000 A 
ATOM     15  C   UNL     1       0.567  10.285  19.489  0.00  0.00    +0.000 A 
ATOM     16  C   UNL     1       0.504  10.403  20.868  0.00  0.00    +0.000 A 
ATOM     17  C   UNL     1       0.993   9.382  21.670  0.00  0.00    +0.000 A 
ATOM     18  C   UNL     1       1.640   8.283  21.113  0.00  0.00    +0.000 A 
BRANCH  16  19
ATOM     19  O   UNL     1      -0.028  11.497  21.486  0.00  0.00    +0.000 OA
ATOM     20  H   UNL     1       0.669  12.166  21.603  0.00  0.00    +0.000 HD
ENDBRANCH  16  19
BRANCH  17  21
ATOM     21  O   UNL     1       0.870   9.455  23.026  0.00  0.00    +0.000 OA
ATOM     22  H   UNL     1       1.680   9.912  23.334  0.00  0.00    +0.000 HD
ENDBRANCH  17  21
ENDBRANCH  10  13
BRANCH   5  23
ATOM     23  O   UNL     1       6.187   3.113  15.562  0.00  0.00    +0.000 OA
ATOM     24  H   UNL     1       6.179   2.307  16.118  0.00  0.00    +0.000 HD
ENDBRANCH   5  23
BRANCH   6  25
ATOM     25  O   UNL     1       6.317   5.626  14.558  0.00  0.00    +0.000 OA
ATOM     26  H   UNL     1       7.238   5.394  14.795  0.00  0.00    +0.000 HD
ENDBRANCH   6  25
TORSDOF 5
ENDMDL
MODEL 5
REMARK VINA RESULT:      -7.4      0.961      1.576
REMARK  Name = 
REMARK  7 active torsions:
REMARK  status: ('A' for Active; 'I' for Inactive)
REMARK    1  A    between atoms: C_1  and  C_2
REMARK    2  A    between atoms: C_5  and  O_6
REMARK    3  A    between atoms: C_7  and  O_8
REMARK    4  A    between atoms: C_12  and  C_13
REMARK    5  A    between atoms: C_16  and  O_17
REMARK    6  A    between atoms: C_18  and  O_19
REMARK    7  A    between atoms: N_21  and  C_22
REMARK                            x       y       z     vdW  Elec       q    Type
REMARK                         _______ _______ _______ _____ _____    ______ ____
ROOT
ATOM      1  C   UNL     1       2.104   9.868  17.792  0.00  0.00    +0.000 C 
ATOM      2  C   UNL     1       1.849   8.864  18.883  0.00  0.00    +0.000 A 
ATOM      3  C   UNL     1       1.117   9.223  20.051  0.00  0.00    +0.000 A 
ATOM      4  C   UNL     1       0.513  10.495  20.259  0.00  0.00    +0.000 A 
ATOM      5  C   UNL     1      -0.242  10.764  21.391  0.00  0.00    +0.000 A 
ATOM      6  C   UNL     1      -0.415   9.785  22.352  0.00  0.00    +0.000 A 
ATOM      7  C   UNL     1       0.191   8.545  22.208  0.00  0.00    +0.000 A 
ATOM      8  C   UNL     1       0.955   8.256  21.063  0.00  0.00    +0.000 A 
ATOM      9  C   UNL     1       1.555   7.009  20.905  0.00  0.00    +0.000 A 
ATOM     10  C   UNL     1       2.240   6.659  19.724  0.00  0.00    +0.000 A 
ATOM     11  N   UNL     1       2.330   7.584  18.713  0.00  0.00    +0.000 N 
ATOM     12  C   UNL     1       2.901   7.254  17.373  0.00  0.00    +0.000 C 
ENDROOT
BRANCH  10  13
ATOM     13  C   UNL     1       2.757   5.277  19.531  0.00  0.00    +0.000 A 
ATOM     14  C   UNL     1       4.123   4.929  19.624  0.00  0.00    +0.000 A 
ATOM     15  C   UNL     1       4.594   3.659  19.250  0.00  0.00    +0.000 A 
ATOM     16  C   UNL     1       3.684   2.679  18.885  0.00  0.00    +0.000 A 
ATOM     17  C   UNL     1       2.325   2.954  18.922  0.00  0.00    +0.000 A 
ATOM     18  C   UNL     1       1.860   4.230  19.224  0.00  0.00    +0.000 A 
BRANCH  16  19
ATOM     19  O   UNL     1       4.071   1.434  18.483  0.00  0.00    +0.000 OA
ATOM     20  H   UNL     1       4.816   1.139  19.036  0.00  0.00    +0.000 HD
ENDBRANCH  16  19
BRANCH  17  21
ATOM     21  O   UNL     1       1.419   1.975  18.635  0.00  0.00    +0.000 OA
ATOM     22  H   UNL     1       0.852   2.349  17.929  0.00  0.00    +0.000 HD
ENDBRANCH  17  21
ENDBRANCH  10  13
BRANCH   5  23
ATOM     23  O   UNL     1      -0.850  11.970  21.587  0.00  0.00    +0.000 OA
ATOM     24  H   UNL     1      -1.543  12.096  20.907  0.00  0.00    +0.000 HD
ENDBRANCH   5  23
BRANCH   6  25
ATOM     25  O   UNL     1      -1.192  10.029  23.446  0.00  0.00    +0.000 OA
ATOM     26  H   UNL     1      -1.437  10.974  23.373  0.00  0.00    +0.000 HD
ENDBRANCH   6  25
TORSDOF 5
ENDMDL
MODEL 6
REMARK VINA RESULT:      -7.4      4.636      7.958
REMARK  Name = 
REMARK  7 active torsions:
REMARK  status: ('A' for Active; 'I' for Inactive)
REMARK    1  A    between atoms: C_1  and  C_2
REMARK    2  A    between atoms: C_5  and  O_6
REMARK    3  A    between atoms: C_7  and  O_8
REMARK    4  A    between atoms: C_12  and  C_13
REMARK    5  A    between atoms: C_16  and  O_17
REMARK    6  A    between atoms: C_18  and  O_19
REMARK    7  A    between atoms: N_21  and  C_22
REMARK                            x       y       z     vdW  Elec       q    Type
REMARK                         _______ _______ _______ _____ _____    ______ ____
ROOT
ATOM      1  C   UNL     1       7.621   6.814  17.175  0.00  0.00    +0.000 C 
ATOM      2  C   UNL     1       6.639   5.693  16.963  0.00  0.00    +0.000 A 
ATOM      3  C   UNL     1       6.488   5.085  15.684  0.00  0.00    +0.000 A 
ATOM      4  C   UNL     1       7.274   5.413  14.543  0.00  0.00    +0.000 A 
ATOM      5  C   UNL     1       7.122   4.739  13.339  0.00  0.00    +0.000 A 
ATOM      6  C   UNL     1       6.184   3.728  13.229  0.00  0.00    +0.000 A 
ATOM      7  C   UNL     1       5.369   3.407  14.304  0.00  0.00    +0.000 A 
ATOM      8  C   UNL     1       5.515   4.077  15.533  0.00  0.00    +0.000 A 
ATOM      9  C   UNL     1       4.710   3.750  16.621  0.00  0.00    +0.000 A 
ATOM     10  C   UNL     1       4.902   4.334  17.888  0.00  0.00    +0.000 A 
ATOM     11  N   UNL     1       5.902   5.264  18.045  0.00  0.00    +0.000 N 
ATOM     12  C   UNL     1       6.278   5.821  19.377  0.00  0.00    +0.000 C 
ENDROOT
BRANCH  10  13
ATOM     13  C   UNL     1       4.114   3.870  19.063  0.00  0.00    +0.000 A 
ATOM     14  C   UNL     1       4.470   2.757  19.857  0.00  0.00    +0.000 A 
ATOM     15  C   UNL     1       3.605   2.236  20.835  0.00  0.00    +0.000 A 
ATOM     16  C   UNL     1       2.418   2.895  21.111  0.00  0.00    +0.000 A 
ATOM     17  C   UNL     1       2.111   4.071  20.443  0.00  0.00    +0.000 A 
ATOM     18  C   UNL     1       2.930   4.550  19.425  0.00  0.00    +0.000 A 
BRANCH  16  19
ATOM     19  O   UNL     1       1.519   2.431  22.027  0.00  0.00    +0.000 OA
ATOM     20  H   UNL     1       0.804   1.962  21.561  0.00  0.00    +0.000 HD
ENDBRANCH  16  19
BRANCH  17  21
ATOM     21  O   UNL     1       0.981   4.765  20.759  0.00  0.00    +0.000 OA
ATOM     22  H   UNL     1       0.915   5.471  20.082  0.00  0.00    +0.000 HD
ENDBRANCH  17  21
ENDBRANCH  10  13
BRANCH   5  23
ATOM     23  O   UNL     1       7.891   5.024  12.248  0.00  0.00    +0.000 OA
ATOM     24  H   UNL     1       7.673   5.923  11.927  0.00  0.00    +0.000 HD
ENDBRANCH   5  23
BRANCH   6  25
ATOM     25  O   UNL     1       6.061   3.035  12.062  0.00  0.00    +0.000 OA
ATOM     26  H   UNL     1       5.798   2.132  12.334  0.00  0.00    +0.000 HD
ENDBRANCH   6  25
TORSDOF 5
ENDMDL
MODEL 7
REMARK VINA RESULT:      -7.3      2.673      4.213
REMARK  Name = 
REMARK  7 active torsions:
REMARK  status: ('A' for Active; 'I' for Inactive)
REMARK    1  A    between atoms: C_1  and  C_2
REMARK    2  A    between atoms: C_5  and  O_6
REMARK    3  A    between atoms: C_7  and  O_8
REMARK    4  A    between atoms: C_12  and  C_13
REMARK    5  A    between atoms: C_16  and  O_17
REMARK    6  A    between atoms: C_18  and  O_19
REMARK    7  A    between atoms: N_21  and  C_22
REMARK                            x       y       z     vdW  Elec       q    Type
REMARK                         _______ _______ _______ _____ _____    ______ ____
ROOT
ATOM      1  C   UNL     1       2.185   4.363  21.164  0.00  0.00    +0.000 C 
ATOM      2  C   UNL     1       2.570   5.429  20.173  0.00  0.00    +0.000 A 
ATOM      3  C   UNL     1       1.929   6.701  20.181  0.00  0.00    +0.000 A 
ATOM      4  C   UNL     1       0.953   7.100  21.136  0.00  0.00    +0.000 A 
ATOM      5  C   UNL     1       0.411   8.378  21.129  0.00  0.00    +0.000 A 
ATOM      6  C   UNL     1       0.813   9.292  20.172  0.00  0.00    +0.000 A 
ATOM      7  C   UNL     1       1.731   8.929  19.197  0.00  0.00    +0.000 A 
ATOM      8  C   UNL     1       2.294   7.639  19.195  0.00  0.00    +0.000 A 
ATOM      9  C   UNL     1       3.226   7.273  18.227  0.00  0.00    +0.000 A 
ATOM     10  C   UNL     1       3.878   6.024  18.261  0.00  0.00    +0.000 A 
ATOM     11  N   UNL     1       3.570   5.143  19.269  0.00  0.00    +0.000 N 
ATOM     12  C   UNL     1       4.316   3.866  19.475  0.00  0.00    +0.000 C 
ENDROOT
BRANCH  10  13
ATOM     13  C   UNL     1       4.964   5.712  17.292  0.00  0.00    +0.000 A 
ATOM     14  C   UNL     1       6.315   6.081  17.480  0.00  0.00    +0.000 A 
ATOM     15  C   UNL     1       7.272   5.938  16.461  0.00  0.00    +0.000 A 
ATOM     16  C   UNL     1       6.915   5.314  15.276  0.00  0.00    +0.000 A 
ATOM     17  C   UNL     1       5.630   4.815  15.122  0.00  0.00    +0.000 A 
ATOM     18  C   UNL     1       4.661   5.018  16.100  0.00  0.00    +0.000 A 
BRANCH  16  19
ATOM     19  O   UNL     1       7.784   5.167  14.235  0.00  0.00    +0.000 OA
ATOM     20  H   UNL     1       8.570   5.717  14.397  0.00  0.00    +0.000 HD
ENDBRANCH  16  19
BRANCH  17  21
ATOM     21  O   UNL     1       5.289   4.136  13.990  0.00  0.00    +0.000 OA
ATOM     22  H   UNL     1       4.309   4.132  13.977  0.00  0.00    +0.000 HD
ENDBRANCH  17  21
ENDBRANCH  10  13
BRANCH   5  23
ATOM     23  O   UNL     1      -0.503   8.781  22.059  0.00  0.00    +0.000 OA
ATOM     24  H   UNL     1      -1.219   9.278  21.613  0.00  0.00    +0.000 HD
ENDBRANCH   5  23
BRANCH   6  25
ATOM     25  O   UNL     1       0.316  10.561  20.187  0.00  0.00    +0.000 OA
ATOM     26  H   UNL     1      -0.649  10.450  20.306  0.00  0.00    +0.000 HD
ENDBRANCH   6  25
TORSDOF 5
ENDMDL
MODEL 8
REMARK VINA RESULT:      -7.3      1.865      3.140
REMARK  Name = 
REMARK  7 active torsions:
REMARK  status: ('A' for Active; 'I' for Inactive)
REMARK    1  A    between atoms: C_1  and  C_2
REMARK    2  A    between atoms: C_5  and  O_6
REMARK    3  A    between atoms: C_7  and  O_8
REMARK    4  A    between atoms: C_12  and  C_13
REMARK    5  A    between atoms: C_16  and  O_17
REMARK    6  A    between atoms: C_18  and  O_19
REMARK    7  A    between atoms: N_21  and  C_22
REMARK                            x       y       z     vdW  Elec       q    Type
REMARK                         _______ _______ _______ _____ _____    ______ ____
ROOT
ATOM      1  C   UNL     1       0.429   8.418  21.812  0.00  0.00    +0.000 C 
ATOM      2  C   UNL     1       1.176   8.365  20.507  0.00  0.00    +0.000 A 
ATOM      3  C   UNL     1       1.384   9.545  19.735  0.00  0.00    +0.000 A 
ATOM      4  C   UNL     1       0.988  10.849  20.144  0.00  0.00    +0.000 A 
ATOM      5  C   UNL     1       1.276  11.969  19.376  0.00  0.00    +0.000 A 
ATOM      6  C   UNL     1       1.956  11.828  18.180  0.00  0.00    +0.000 A 
ATOM      7  C   UNL     1       2.322  10.569  17.725  0.00  0.00    +0.000 A 
ATOM      8  C   UNL     1       2.042   9.425  18.495  0.00  0.00    +0.000 A 
ATOM      9  C   UNL     1       2.420   8.160  18.052  0.00  0.00    +0.000 A 
ATOM     10  C   UNL     1       2.242   7.012  18.848  0.00  0.00    +0.000 A 
ATOM     11  N   UNL     1       1.665   7.147  20.087  0.00  0.00    +0.000 N 
ATOM     12  C   UNL     1       1.575   6.017  21.059  0.00  0.00    +0.000 C 
ENDROOT
BRANCH  10  13
ATOM     13  C   UNL     1       2.773   5.694  18.404  0.00  0.00    +0.000 A 
ATOM     14  C   UNL     1       1.992   4.710  17.757  0.00  0.00    +0.000 A 
ATOM     15  C   UNL     1       2.477   3.411  17.525  0.00  0.00    +0.000 A 
ATOM     16  C   UNL     1       3.795   3.113  17.835  0.00  0.00    +0.000 A 
ATOM     17  C   UNL     1       4.624   4.104  18.340  0.00  0.00    +0.000 A 
ATOM     18  C   UNL     1       4.128   5.370  18.637  0.00  0.00    +0.000 A 
BRANCH  16  19
ATOM     19  O   UNL     1       4.324   1.868  17.663  0.00  0.00    +0.000 OA
ATOM     20  H   UNL     1       3.679   1.310  17.194  0.00  0.00    +0.000 HD
ENDBRANCH  16  19
BRANCH  17  21
ATOM     21  O   UNL     1       5.941   3.841  18.579  0.00  0.00    +0.000 OA
ATOM     22  H   UNL     1       5.969   3.476  19.488  0.00  0.00    +0.000 HD
ENDBRANCH  17  21
ENDBRANCH  10  13
BRANCH   5  23
ATOM     23  O   UNL     1       0.927  13.227  19.772  0.00  0.00    +0.000 OA
ATOM     24  H   UNL     1       1.738  13.752  19.928  0.00  0.00    +0.000 HD
ENDBRANCH   5  23
BRANCH   6  25
ATOM     25  O   UNL     1       2.279  12.928  17.443  0.00  0.00    +0.000 OA
ATOM     26  H   UNL     1       3.249  13.019  17.541  0.00  0.00    +0.000 HD
ENDBRANCH   6  25
TORSDOF 5
ENDMDL
MODEL 9
REMARK VINA RESULT:      -7.2      2.453      3.847
REMARK  Name = 
REMARK  7 active torsions:
REMARK  status: ('A' for Active; 'I' for Inactive)
REMARK    1  A    between atoms: C_1  and  C_2
REMARK    2  A    between atoms: C_5  and  O_6
REMARK    3  A    between atoms: C_7  and  O_8
REMARK    4  A    between atoms: C_12  and  C_13
REMARK    5  A    between atoms: C_16  and  O_17
REMARK    6  A    between atoms: C_18  and  O_19
REMARK    7  A    between atoms: N_21  and  C_22
REMARK                            x       y       z     vdW  Elec       q    Type
REMARK                         _______ _______ _______ _____ _____    ______ ____
ROOT
ATOM      1  C   UNL     1       1.956   4.518  21.297  0.00  0.00    +0.000 C 
ATOM      2  C   UNL     1       2.310   5.580  20.293  0.00  0.00    +0.000 A 
ATOM      3  C   UNL     1       1.692   6.863  20.336  0.00  0.00    +0.000 A 
ATOM      4  C   UNL     1       0.771   7.275  21.340  0.00  0.00    +0.000 A 
ATOM      5  C   UNL     1       0.251   8.562  21.363  0.00  0.00    +0.000 A 
ATOM      6  C   UNL     1       0.621   9.472  20.391  0.00  0.00    +0.000 A 
ATOM      7  C   UNL     1       1.484   9.098  19.371  0.00  0.00    +0.000 A 
ATOM      8  C   UNL     1       2.024   7.799  19.337  0.00  0.00    +0.000 A 
ATOM      9  C   UNL     1       2.901   7.421  18.323  0.00  0.00    +0.000 A 
ATOM     10  C   UNL     1       3.534   6.162  18.322  0.00  0.00    +0.000 A 
ATOM     11  N   UNL     1       3.260   5.282  19.340  0.00  0.00    +0.000 N 
ATOM     12  C   UNL     1       3.993   3.992  19.505  0.00  0.00    +0.000 C 
ENDROOT
BRANCH  10  13
ATOM     13  C   UNL     1       4.565   5.835  17.300  0.00  0.00    +0.000 A 
ATOM     14  C   UNL     1       4.416   4.818  16.330  0.00  0.00    +0.000 A 
ATOM     15  C   UNL     1       5.481   4.412  15.509  0.00  0.00    +0.000 A 
ATOM     16  C   UNL     1       6.683   5.101  15.567  0.00  0.00    +0.000 A 
ATOM     17  C   UNL     1       6.809   6.195  16.409  0.00  0.00    +0.000 A 
ATOM     18  C   UNL     1       5.780   6.555  17.275  0.00  0.00    +0.000 A 
BRANCH  16  19
ATOM     19  O   UNL     1       7.767   4.745  14.819  0.00  0.00    +0.000 OA
ATOM     20  H   UNL     1       8.325   4.139  15.337  0.00  0.00    +0.000 HD
ENDBRANCH  16  19
BRANCH  17  21
ATOM     21  O   UNL     1       7.962   6.924  16.421  0.00  0.00    +0.000 OA
ATOM     22  H   UNL     1       7.738   7.751  16.896  0.00  0.00    +0.000 HD
ENDBRANCH  17  21
ENDBRANCH  10  13
BRANCH   5  23
ATOM     23  O   UNL     1      -0.610   8.976  22.338  0.00  0.00    +0.000 OA
ATOM     24  H   UNL     1      -0.440   9.919  22.537  0.00  0.00    +0.000 HD
ENDBRANCH   5  23
BRANCH   6  25
ATOM     25  O   UNL     1       0.147  10.749  20.434  0.00  0.00    +0.000 OA
ATOM     26  H   UNL     1      -0.333  10.867  19.589  0.00  0.00    +0.000 HD
ENDBRANCH   6  25
TORSDOF 5
ENDMDL
