MODEL 1
REMARK VINA RESULT:      -7.3      0.000      0.000
REMARK  Name = 
REMARK  6 active torsions:
REMARK  status: ('A' for Active; 'I' for Inactive)
REMARK    1  A    between atoms: C_1  and  C_2
REMARK    2  A    between atoms: C_2  and  N_3
REMARK    3  A    between atoms: C_7  and  C_8
REMARK    4  A    between atoms: N_18  and  C_19
REMARK    5  A    between atoms: C_22  and  O_23
REMARK    6  A    between atoms: O_23  and  C_24
REMARK                            x       y       z     vdW  Elec       q    Type
REMARK                         _______ _______ _______ _____ _____    ______ ____
ROOT
ATOM      1  C   UNL     1       6.521   5.760  16.546  0.00  0.00    +0.000 C 
ATOM      2  N   UNL     1       7.420   5.289  15.497  0.00  0.00    +0.000 N 
ATOM      3  C   UNL     1       6.843   4.787  14.335  0.00  0.00    +0.000 A 
ATOM      4  C   UNL     1       7.615   4.625  13.179  0.00  0.00    +0.000 A 
ATOM      5  C   UNL     1       7.090   3.999  12.044  0.00  0.00    +0.000 A 
ATOM      6  C   UNL     1       5.787   3.504  12.056  0.00  0.00    +0.000 A 
ATOM      7  C   UNL     1       5.016   3.631  13.206  0.00  0.00    +0.000 A 
ATOM      8  C   UNL     1       5.552   4.261  14.339  0.00  0.00    +0.000 A 
ATOM      9  C   UNL     1       4.781   4.289  15.595  0.00  0.00    +0.000 C 
ATOM     10  O   UNL     1       3.652   3.798  15.589  0.00  0.00    +0.000 OA
ATOM     11  N   UNL     1       5.429   4.794  16.730  0.00  0.00    +0.000 N 
ATOM     12  H   UNL     1       8.184   5.936  15.324  0.00  0.00    +0.000 HD
ENDROOT
BRANCH  11  13
ATOM     13  C   UNL     1       4.700   4.763  17.957  0.00  0.00    +0.000 A 
ATOM     14  C   UNL     1       3.959   5.857  18.413  0.00  0.00    +0.000 A 
ATOM     15  C   UNL     1       3.145   5.720  19.536  0.00  0.00    +0.000 A 
ATOM     16  C   UNL     1       3.092   4.485  20.162  0.00  0.00    +0.000 A 
ATOM     17  N   UNL     1       3.813   3.415  19.769  0.00  0.00    +0.000 NA
ATOM     18  C   UNL     1       4.587   3.575  18.673  0.00  0.00    +0.000 A 
BRANCH  16  19
ATOM     19  O   UNL     1       2.218   4.365  21.223  0.00  0.00    +0.000 OA
ATOM     20  C   UNL     1       1.956   3.004  21.559  0.00  0.00    +0.000 C 
ENDBRANCH  16  19
ENDBRANCH  11  13
BRANCH   1  25
ATOM     21  N   UNL     1       7.836   7.245  18.156  0.00  0.00    +0.000 N 
ATOM     22  N   UNL     1       8.522   7.203  19.317  0.00  0.00    +0.000 NA
ATOM     23  C   UNL     1       8.435   5.932  19.705  0.00  0.00    +0.000 A 
ATOM     24  C   UNL     1       7.723   5.149  18.788  0.00  0.00    +0.000 A 
ATOM     25  C   UNL     1       7.318   6.023  17.790  0.00  0.00    +0.000 A 
BRANCH  21  27
ATOM     26  C   UNL     1       8.498   9.615  18.193  0.00  0.00    +0.000 C 
ATOM     27  C   UNL     1       7.739   8.519  17.467  0.00  0.00    +0.000 C 
ENDBRANCH  21  27
ENDBRANCH   1  25
TORSDOF 4
ENDMDL
MODEL 2
REMARK VINA RESULT:      -7.3      2.599      7.091
REMARK  Name = 
REMARK  6 active torsions:
REMARK  status: ('A' for Active; 'I' for Inactive)
REMARK    1  A    between atoms: C_1  and  C_2
REMARK    2  A    between atoms: C_2  and  N_3
REMARK    3  A    between atoms: C_7  and  C_8
REMARK    4  A    between atoms: N_18  and  C_19
REMARK    5  A    between atoms: C_22  and  O_23
REMARK    6  A    between atoms: O_23  and  C_24
REMARK                            x       y       z     vdW  Elec       q    Type
REMARK                         _______ _______ _______ _____ _____    ______ ____
ROOT
ATOM      1  C   UNL     1       2.753   5.256  18.943  0.00  0.00    +0.000 C 
ATOM      2  N   UNL     1       2.265   5.908  20.154  0.00  0.00    +0.000 N 
ATOM      3  C   UNL     1       1.752   7.195  20.028  0.00  0.00    +0.000 A 
ATOM      4  C   UNL     1       0.981   7.749  21.057  0.00  0.00    +0.000 A 
ATOM      5  C   UNL     1       0.569   9.085  21.008  0.00  0.00    +0.000 A 
ATOM      6  C   UNL     1       0.941   9.895  19.936  0.00  0.00    +0.000 A 
ATOM      7  C   UNL     1       1.730   9.368  18.920  0.00  0.00    +0.000 A 
ATOM      8  C   UNL     1       2.138   8.027  18.979  0.00  0.00    +0.000 A 
ATOM      9  C   UNL     1       3.072   7.501  17.967  0.00  0.00    +0.000 C 
ATOM     10  O   UNL     1       3.423   8.256  17.060  0.00  0.00    +0.000 OA
ATOM     11  N   UNL     1       3.562   6.203  18.164  0.00  0.00    +0.000 N 
ATOM     12  H   UNL     1       1.686   5.293  20.719  0.00  0.00    +0.000 HD
ENDROOT
BRANCH  11  13
ATOM     13  C   UNL     1       4.513   5.720  17.216  0.00  0.00    +0.000 A 
ATOM     14  C   UNL     1       4.217   4.689  16.321  0.00  0.00    +0.000 A 
ATOM     15  C   UNL     1       5.127   4.363  15.316  0.00  0.00    +0.000 A 
ATOM     16  C   UNL     1       6.304   5.090  15.236  0.00  0.00    +0.000 A 
ATOM     17  N   UNL     1       6.638   6.072  16.097  0.00  0.00    +0.000 NA
ATOM     18  C   UNL     1       5.733   6.372  17.056  0.00  0.00    +0.000 A 
BRANCH  16  19
ATOM     19  O   UNL     1       7.145   4.792  14.184  0.00  0.00    +0.000 OA
ATOM     20  C   UNL     1       6.528   3.941  13.220  0.00  0.00    +0.000 C 
ENDBRANCH  16  19
ENDBRANCH  11  13
BRANCH   1  25
ATOM     21  N   UNL     1       3.119   2.728  18.948  0.00  0.00    +0.000 N 
ATOM     22  N   UNL     1       3.941   1.776  19.438  0.00  0.00    +0.000 NA
ATOM     23  C   UNL     1       4.851   2.454  20.134  0.00  0.00    +0.000 A 
ATOM     24  C   UNL     1       4.605   3.833  20.121  0.00  0.00    +0.000 A 
ATOM     25  C   UNL     1       3.482   4.001  19.325  0.00  0.00    +0.000 A 
BRANCH  21  27
ATOM     26  C   UNL     1       0.691   2.328  18.890  0.00  0.00    +0.000 C 
ATOM     27  C   UNL     1       2.001   2.305  18.124  0.00  0.00    +0.000 C 
ENDBRANCH  21  27
ENDBRANCH   1  25
TORSDOF 4
ENDMDL
MODEL 3
REMARK VINA RESULT:      -7.1      3.071      7.487
REMARK  Name = 
REMARK  6 active torsions:
REMARK  status: ('A' for Active; 'I' for Inactive)
REMARK    1  A    between atoms: C_1  and  C_2
REMARK    2  A    between atoms: C_2  and  N_3
REMARK    3  A    between atoms: C_7  and  C_8
REMARK    4  A    between atoms: N_18  and  C_19
REMARK    5  A    between atoms: C_22  and  O_23
REMARK    6  A    between atoms: O_23  and  C_24
REMARK                            x       y       z     vdW  Elec       q    Type
REMARK                         _______ _______ _______ _____ _____    ______ ____
ROOT
ATOM      1  C   UNL     1       1.592   5.700  19.875  0.00  0.00    +0.000 C 
ATOM      2  N   UNL     1       0.983   6.494  20.937  0.00  0.00    +0.000 N 
ATOM      3  C   UNL     1       0.749   7.841  20.678  0.00  0.00    +0.000 A 
ATOM      4  C   UNL     1      -0.110   8.577  21.501  0.00  0.00    +0.000 A 
ATOM      5  C   UNL     1      -0.255   9.959  21.339  0.00  0.00    +0.000 A 
ATOM      6  C   UNL     1       0.476  10.630  20.361  0.00  0.00    +0.000 A 
ATOM      7  C   UNL     1       1.355   9.918  19.553  0.00  0.00    +0.000 A 
ATOM      8  C   UNL     1       1.493   8.533  19.724  0.00  0.00    +0.000 A 
ATOM      9  C   UNL     1       2.511   7.797  18.951  0.00  0.00    +0.000 C 
ATOM     10  O   UNL     1       3.177   8.427  18.131  0.00  0.00    +0.000 OA
ATOM     11  N   UNL     1       2.706   6.448  19.276  0.00  0.00    +0.000 N 
ATOM     12  H   UNL     1       0.196   6.021  21.371  0.00  0.00    +0.000 HD
ENDROOT
BRANCH  11  13
ATOM     13  C   UNL     1       3.734   5.755  18.568  0.00  0.00    +0.000 A 
ATOM     14  C   UNL     1       3.653   5.498  17.197  0.00  0.00    +0.000 A 
ATOM     15  C   UNL     1       4.751   4.957  16.529  0.00  0.00    +0.000 A 
ATOM     16  C   UNL     1       5.901   4.700  17.259  0.00  0.00    +0.000 A 
ATOM     17  N   UNL     1       6.008   4.908  18.587  0.00  0.00    +0.000 NA
ATOM     18  C   UNL     1       4.930   5.440  19.206  0.00  0.00    +0.000 A 
BRANCH  16  19
ATOM     19  O   UNL     1       6.992   4.237  16.552  0.00  0.00    +0.000 OA
ATOM     20  C   UNL     1       6.891   4.513  15.157  0.00  0.00    +0.000 C 
ENDBRANCH  16  19
ENDBRANCH  11  13
BRANCH   1  25
ATOM     21  N   UNL     1       1.910   3.168  19.749  0.00  0.00    +0.000 N 
ATOM     22  N   UNL     1       2.315   2.112  20.485  0.00  0.00    +0.000 NA
ATOM     23  C   UNL     1       2.664   2.642  21.656  0.00  0.00    +0.000 A 
ATOM     24  C   UNL     1       2.458   4.027  21.690  0.00  0.00    +0.000 A 
ATOM     25  C   UNL     1       1.985   4.362  20.430  0.00  0.00    +0.000 A 
BRANCH  21  27
ATOM     26  C   UNL     1       2.494   2.160  17.581  0.00  0.00    +0.000 C 
ATOM     27  C   UNL     1       1.460   2.920  18.391  0.00  0.00    +0.000 C 
ENDBRANCH  21  27
ENDBRANCH   1  25
TORSDOF 4
ENDMDL
MODEL 4
REMARK VINA RESULT:      -6.9      2.765      7.177
REMARK  Name = 
REMARK  6 active torsions:
REMARK  status: ('A' for Active; 'I' for Inactive)
REMARK    1  A    between atoms: C_1  and  C_2
REMARK    2  A    between atoms: C_2  and  N_3
REMARK    3  A    between atoms: C_7  and  C_8
REMARK    4  A    between atoms: N_18  and  C_19
REMARK    5  A    between atoms: C_22  and  O_23
REMARK    6  A    between atoms: O_23  and  C_24
REMARK                            x       y       z     vdW  Elec       q    Type
REMARK                         _______ _______ _______ _____ _____    ______ ____
ROOT
ATOM      1  C   UNL     1       2.443   5.649  19.344  0.00  0.00    +0.000 C 
ATOM      2  N   UNL     1       2.079   6.409  20.536  0.00  0.00    +0.000 N 
ATOM      3  C   UNL     1       1.547   7.681  20.349  0.00  0.00    +0.000 A 
ATOM      4  C   UNL     1       0.884   8.328  21.398  0.00  0.00    +0.000 A 
ATOM      5  C   UNL     1       0.460   9.655  21.272  0.00  0.00    +0.000 A 
ATOM      6  C   UNL     1       0.713  10.364  20.100  0.00  0.00    +0.000 A 
ATOM      7  C   UNL     1       1.397   9.745  19.059  0.00  0.00    +0.000 A 
ATOM      8  C   UNL     1       1.817   8.414  19.194  0.00  0.00    +0.000 A 
ATOM      9  C   UNL     1       2.645   7.797  18.142  0.00  0.00    +0.000 C 
ATOM     10  O   UNL     1       2.895   8.465  17.140  0.00  0.00    +0.000 OA
ATOM     11  N   UNL     1       3.161   6.520  18.404  0.00  0.00    +0.000 N 
ATOM     12  H   UNL     1       1.565   5.849  21.210  0.00  0.00    +0.000 HD
ENDROOT
BRANCH  11  13
ATOM     13  C   UNL     1       4.012   5.951  17.409  0.00  0.00    +0.000 A 
ATOM     14  C   UNL     1       5.243   6.517  17.067  0.00  0.00    +0.000 A 
ATOM     15  C   UNL     1       6.100   5.838  16.202  0.00  0.00    +0.000 A 
ATOM     16  C   UNL     1       5.698   4.604  15.716  0.00  0.00    +0.000 A 
ATOM     17  N   UNL     1       4.507   4.038  16.000  0.00  0.00    +0.000 NA
ATOM     18  C   UNL     1       3.700   4.717  16.847  0.00  0.00    +0.000 A 
BRANCH  16  19
ATOM     19  O   UNL     1       6.602   3.926  14.925  0.00  0.00    +0.000 OA
ATOM     20  C   UNL     1       6.205   3.888  13.556  0.00  0.00    +0.000 C 
ENDBRANCH  16  19
ENDBRANCH  11  13
BRANCH   1  25
ATOM     21  N   UNL     1       2.661   3.219  20.101  0.00  0.00    +0.000 N 
ATOM     22  N   UNL     1       3.581   2.294  20.446  0.00  0.00    +0.000 NA
ATOM     23  C   UNL     1       4.746   2.924  20.314  0.00  0.00    +0.000 A 
ATOM     24  C   UNL     1       4.583   4.257  19.916  0.00  0.00    +0.000 A 
ATOM     25  C   UNL     1       3.216   4.432  19.759  0.00  0.00    +0.000 A 
BRANCH  21  27
ATOM     26  C   UNL     1       0.759   2.390  18.777  0.00  0.00    +0.000 C 
ATOM     27  C   UNL     1       1.261   2.835  20.138  0.00  0.00    +0.000 C 
ENDBRANCH  21  27
ENDBRANCH   1  25
TORSDOF 4
ENDMDL
MODEL 5
REMARK VINA RESULT:      -6.5     11.211     13.569
REMARK  Name = 
REMARK  6 active torsions:
REMARK  status: ('A' for Active; 'I' for Inactive)
REMARK    1  A    between atoms: C_1  and  C_2
REMARK    2  A    between atoms: C_2  and  N_3
REMARK    3  A    between atoms: C_7  and  C_8
REMARK    4  A    between atoms: N_18  and  C_19
REMARK    5  A    between atoms: C_22  and  O_23
REMARK    6  A    between atoms: O_23  and  C_24
REMARK                            x       y       z     vdW  Elec       q    Type
REMARK                         _______ _______ _______ _____ _____    ______ ____
ROOT
ATOM      1  C   UNL     1      -4.652  12.686  20.017  0.00  0.00    +0.000 C 
ATOM      2  N   UNL     1      -4.936  12.549  18.591  0.00  0.00    +0.000 N 
ATOM      3  C   UNL     1      -4.127  11.688  17.856  0.00  0.00    +0.000 A 
ATOM      4  C   UNL     1      -4.528  11.259  16.586  0.00  0.00    +0.000 A 
ATOM      5  C   UNL     1      -3.673  10.504  15.777  0.00  0.00    +0.000 A 
ATOM      6  C   UNL     1      -2.391  10.182  16.221  0.00  0.00    +0.000 A 
ATOM      7  C   UNL     1      -1.967  10.625  17.469  0.00  0.00    +0.000 A 
ATOM      8  C   UNL     1      -2.832  11.382  18.271  0.00  0.00    +0.000 A 
ATOM      9  C   UNL     1      -2.343  11.952  19.540  0.00  0.00    +0.000 C 
ATOM     10  O   UNL     1      -1.190  11.693  19.881  0.00  0.00    +0.000 OA
ATOM     11  N   UNL     1      -3.204  12.824  20.221  0.00  0.00    +0.000 N 
ATOM     12  H   UNL     1      -5.928  12.435  18.403  0.00  0.00    +0.000 HD
ENDROOT
BRANCH  11  13
ATOM     13  C   UNL     1      -2.704  13.422  21.417  0.00  0.00    +0.000 A 
ATOM     14  C   UNL     1      -2.801  12.794  22.662  0.00  0.00    +0.000 A 
ATOM     15  C   UNL     1      -2.161  13.351  23.768  0.00  0.00    +0.000 A 
ATOM     16  C   UNL     1      -1.434  14.517  23.587  0.00  0.00    +0.000 A 
ATOM     17  N   UNL     1      -1.340  15.167  22.409  0.00  0.00    +0.000 NA
ATOM     18  C   UNL     1      -1.965  14.599  21.353  0.00  0.00    +0.000 A 
BRANCH  16  19
ATOM     19  O   UNL     1      -0.751  14.998  24.685  0.00  0.00    +0.000 OA
ATOM     20  C   UNL     1      -1.629  15.465  25.708  0.00  0.00    +0.000 C 
ENDBRANCH  16  19
ENDBRANCH  11  13
BRANCH   1  25
ATOM     21  N   UNL     1      -6.284  13.757  21.665  0.00  0.00    +0.000 N 
ATOM     22  N   UNL     1      -6.900  14.926  21.940  0.00  0.00    +0.000 NA
ATOM     23  C   UNL     1      -6.453  15.761  21.005  0.00  0.00    +0.000 A 
ATOM     24  C   UNL     1      -5.576  15.131  20.111  0.00  0.00    +0.000 A 
ATOM     25  C   UNL     1      -5.457  13.827  20.567  0.00  0.00    +0.000 A 
BRANCH  21  27
ATOM     26  C   UNL     1      -6.888  13.050  23.944  0.00  0.00    +0.000 C 
ATOM     27  C   UNL     1      -6.563  12.621  22.525  0.00  0.00    +0.000 C 
ENDBRANCH  21  27
ENDBRANCH   1  25
TORSDOF 4
ENDMDL
MODEL 6
REMARK VINA RESULT:      -6.5      2.647      5.441
REMARK  Name = 
REMARK  6 active torsions:
REMARK  status: ('A' for Active; 'I' for Inactive)
REMARK    1  A    between atoms: C_1  and  C_2
REMARK    2  A    between atoms: C_2  and  N_3
REMARK    3  A    between atoms: C_7  and  C_8
REMARK    4  A    between atoms: N_18  and  C_19
REMARK    5  A    between atoms: C_22  and  O_23
REMARK    6  A    between atoms: O_23  and  C_24
REMARK                            x       y       z     vdW  Elec       q    Type
REMARK                         _______ _______ _______ _____ _____    ______ ____
ROOT
ATOM      1  C   UNL     1       4.246   6.585  18.106  0.00  0.00    +0.000 C 
ATOM      2  N   UNL     1       3.561   7.700  17.458  0.00  0.00    +0.000 N 
ATOM      3  C   UNL     1       2.632   8.409  18.214  0.00  0.00    +0.000 A 
ATOM      4  C   UNL     1       2.185   9.663  17.783  0.00  0.00    +0.000 A 
ATOM      5  C   UNL     1       1.156  10.330  18.456  0.00  0.00    +0.000 A 
ATOM      6  C   UNL     1       0.543   9.742  19.560  0.00  0.00    +0.000 A 
ATOM      7  C   UNL     1       0.956   8.483  19.984  0.00  0.00    +0.000 A 
ATOM      8  C   UNL     1       1.988   7.823  19.303  0.00  0.00    +0.000 A 
ATOM      9  C   UNL     1       2.345   6.442  19.675  0.00  0.00    +0.000 C 
ATOM     10  O   UNL     1       1.750   5.929  20.623  0.00  0.00    +0.000 OA
ATOM     11  N   UNL     1       3.275   5.781  18.861  0.00  0.00    +0.000 N 
ATOM     12  H   UNL     1       4.198   8.294  16.935  0.00  0.00    +0.000 HD
ENDROOT
BRANCH  11  13
ATOM     13  C   UNL     1       3.572   4.424  19.189  0.00  0.00    +0.000 A 
ATOM     14  C   UNL     1       2.817   3.356  18.698  0.00  0.00    +0.000 A 
ATOM     15  C   UNL     1       3.243   2.048  18.924  0.00  0.00    +0.000 A 
ATOM     16  C   UNL     1       4.421   1.853  19.628  0.00  0.00    +0.000 A 
ATOM     17  N   UNL     1       5.161   2.856  20.141  0.00  0.00    +0.000 NA
ATOM     18  C   UNL     1       4.728   4.114  19.900  0.00  0.00    +0.000 A 
BRANCH  16  19
ATOM     19  O   UNL     1       4.851   0.550  19.766  0.00  0.00    +0.000 OA
ATOM     20  C   UNL     1       5.548   0.336  20.992  0.00  0.00    +0.000 C 
ENDBRANCH  16  19
ENDBRANCH  11  13
BRANCH   1  25
ATOM     21  N   UNL     1       6.375   5.694  17.011  0.00  0.00    +0.000 N 
ATOM     22  N   UNL     1       6.800   4.948  15.970  0.00  0.00    +0.000 NA
ATOM     23  C   UNL     1       5.680   4.573  15.355  0.00  0.00    +0.000 A 
ATOM     24  C   UNL     1       4.538   5.097  15.975  0.00  0.00    +0.000 A 
ATOM     25  C   UNL     1       5.004   5.810  17.069  0.00  0.00    +0.000 A 
BRANCH  21  27
ATOM     26  C   UNL     1       7.670   7.711  17.570  0.00  0.00    +0.000 C 
ATOM     27  C   UNL     1       7.376   6.259  17.898  0.00  0.00    +0.000 C 
ENDBRANCH  21  27
ENDBRANCH   1  25
TORSDOF 4
ENDMDL
MODEL 7
REMARK VINA RESULT:      -6.5      8.502     11.102
REMARK  Name = 
REMARK  6 active torsions:
REMARK  status: ('A' for Active; 'I' for Inactive)
REMARK    1  A    between atoms: C_1  and  C_2
REMARK    2  A    between atoms: C_2  and  N_3
REMARK    3  A    between atoms: C_7  and  C_8
REMARK    4  A    between atoms: N_18  and  C_19
REMARK    5  A    between atoms: C_22  and  O_23
REMARK    6  A    between atoms: O_23  and  C_24
REMARK                            x       y       z     vdW  Elec       q    Type
REMARK                         _______ _______ _______ _____ _____    ______ ____
ROOT
ATOM      1  C   UNL     1       0.951  12.566  19.398  0.00  0.00    +0.000 C 
ATOM      2  N   UNL     1       1.624  13.476  18.477  0.00  0.00    +0.000 N 
ATOM      3  C   UNL     1       2.519  14.393  19.019  0.00  0.00    +0.000 A 
ATOM      4  C   UNL     1       3.429  15.062  18.193  0.00  0.00    +0.000 A 
ATOM      5  C   UNL     1       4.242  16.083  18.696  0.00  0.00    +0.000 A 
ATOM      6  C   UNL     1       4.142  16.465  20.032  0.00  0.00    +0.000 A 
ATOM      7  C   UNL     1       3.223  15.829  20.860  0.00  0.00    +0.000 A 
ATOM      8  C   UNL     1       2.412  14.808  20.346  0.00  0.00    +0.000 A 
ATOM      9  C   UNL     1       1.356  14.217  21.188  0.00  0.00    +0.000 C 
ATOM     10  O   UNL     1       1.259  14.611  22.350  0.00  0.00    +0.000 OA
ATOM     11  N   UNL     1       0.481  13.312  20.573  0.00  0.00    +0.000 N 
ATOM     12  H   UNL     1       1.981  12.999  17.654  0.00  0.00    +0.000 HD
ENDROOT
BRANCH  11  13
ATOM     13  C   UNL     1      -0.577  12.789  21.376  0.00  0.00    +0.000 A 
ATOM     14  C   UNL     1      -0.419  11.650  22.169  0.00  0.00    +0.000 A 
ATOM     15  C   UNL     1      -1.434  11.274  23.049  0.00  0.00    +0.000 A 
ATOM     16  C   UNL     1      -2.573  12.061  23.111  0.00  0.00    +0.000 A 
ATOM     17  N   UNL     1      -2.774  13.150  22.342  0.00  0.00    +0.000 NA
ATOM     18  C   UNL     1      -1.770  13.495  21.505  0.00  0.00    +0.000 A 
BRANCH  16  19
ATOM     19  O   UNL     1      -3.522  11.703  24.046  0.00  0.00    +0.000 OA
ATOM     20  C   UNL     1      -4.209  12.832  24.581  0.00  0.00    +0.000 C 
ENDBRANCH  16  19
ENDBRANCH  11  13
BRANCH   1  25
ATOM     21  N   UNL     1      -0.178  10.483  18.443  0.00  0.00    +0.000 N 
ATOM     22  N   UNL     1      -1.262  10.091  17.742  0.00  0.00    +0.000 NA
ATOM     23  C   UNL     1      -1.931  11.219  17.513  0.00  0.00    +0.000 A 
ATOM     24  C   UNL     1      -1.270  12.338  18.035  0.00  0.00    +0.000 A 
ATOM     25  C   UNL     1      -0.136  11.841  18.660  0.00  0.00    +0.000 A 
BRANCH  21  27
ATOM     26  C   UNL     1       1.900   9.298  17.859  0.00  0.00    +0.000 C 
ATOM     27  C   UNL     1       0.769   9.463  18.858  0.00  0.00    +0.000 C 
ENDBRANCH  21  27
ENDBRANCH   1  25
TORSDOF 4
ENDMDL
MODEL 8
REMARK VINA RESULT:      -6.4      2.334      5.065
REMARK  Name = 
REMARK  6 active torsions:
REMARK  status: ('A' for Active; 'I' for Inactive)
REMARK    1  A    between atoms: C_1  and  C_2
REMARK    2  A    between atoms: C_2  and  N_3
REMARK    3  A    between atoms: C_7  and  C_8
REMARK    4  A    between atoms: N_18  and  C_19
REMARK    5  A    between atoms: C_22  and  O_23
REMARK    6  A    between atoms: O_23  and  C_24
REMARK                            x       y       z     vdW  Elec       q    Type
REMARK                         _______ _______ _______ _____ _____    ______ ____
ROOT
ATOM      1  C   UNL     1       5.319   4.519  16.304  0.00  0.00    +0.000 C 
ATOM      2  N   UNL     1       4.553   4.137  15.121  0.00  0.00    +0.000 N 
ATOM      3  C   UNL     1       5.265   3.836  13.965  0.00  0.00    +0.000 A 
ATOM      4  C   UNL     1       4.640   3.160  12.910  0.00  0.00    +0.000 A 
ATOM      5  C   UNL     1       5.296   2.966  11.690  0.00  0.00    +0.000 A 
ATOM      6  C   UNL     1       6.583   3.465  11.499  0.00  0.00    +0.000 A 
ATOM      7  C   UNL     1       7.207   4.164  12.527  0.00  0.00    +0.000 A 
ATOM      8  C   UNL     1       6.540   4.353  13.746  0.00  0.00    +0.000 A 
ATOM      9  C   UNL     1       7.151   5.194  14.792  0.00  0.00    +0.000 C 
ATOM     10  O   UNL     1       8.267   5.664  14.574  0.00  0.00    +0.000 OA
ATOM     11  N   UNL     1       6.371   5.471  15.923  0.00  0.00    +0.000 N 
ATOM     12  H   UNL     1       3.821   3.465  15.335  0.00  0.00    +0.000 HD
ENDROOT
BRANCH  11  13
ATOM     13  C   UNL     1       6.942   6.335  16.905  0.00  0.00    +0.000 A 
ATOM     14  C   UNL     1       7.598   5.848  18.039  0.00  0.00    +0.000 A 
ATOM     15  C   UNL     1       8.269   6.731  18.882  0.00  0.00    +0.000 A 
ATOM     16  C   UNL     1       8.269   8.078  18.556  0.00  0.00    +0.000 A 
ATOM     17  N   UNL     1       7.625   8.590  17.487  0.00  0.00    +0.000 NA
ATOM     18  C   UNL     1       6.990   7.709  16.683  0.00  0.00    +0.000 A 
BRANCH  16  19
ATOM     19  O   UNL     1       9.006   8.913  19.371  0.00  0.00    +0.000 OA
ATOM     20  C   UNL     1       9.070  10.245  18.867  0.00  0.00    +0.000 C 
ENDBRANCH  16  19
ENDBRANCH  11  13
BRANCH   1  25
ATOM     21  N   UNL     1       3.956   4.335  18.456  0.00  0.00    +0.000 N 
ATOM     22  N   UNL     1       3.099   5.031  19.232  0.00  0.00    +0.000 NA
ATOM     23  C   UNL     1       2.974   6.204  18.614  0.00  0.00    +0.000 A 
ATOM     24  C   UNL     1       3.722   6.257  17.430  0.00  0.00    +0.000 A 
ATOM     25  C   UNL     1       4.376   5.037  17.350  0.00  0.00    +0.000 A 
BRANCH  21  27
ATOM     26  C   UNL     1       3.405   1.946  18.237  0.00  0.00    +0.000 C 
ATOM     27  C   UNL     1       4.309   2.988  18.870  0.00  0.00    +0.000 C 
ENDBRANCH  21  27
ENDBRANCH   1  25
TORSDOF 4
ENDMDL
MODEL 9
REMARK VINA RESULT:      -6.3      9.695     12.314
REMARK  Name = 
REMARK  6 active torsions:
REMARK  status: ('A' for Active; 'I' for Inactive)
REMARK    1  A    between atoms: C_1  and  C_2
REMARK    2  A    between atoms: C_2  and  N_3
REMARK    3  A    between atoms: C_7  and  C_8
REMARK    4  A    between atoms: N_18  and  C_19
REMARK    5  A    between atoms: C_22  and  O_23
REMARK    6  A    between atoms: O_23  and  C_24
REMARK                            x       y       z     vdW  Elec       q    Type
REMARK                         _______ _______ _______ _____ _____    ______ ____
ROOT
ATOM      1  C   UNL     1      -3.260  12.526  20.880  0.00  0.00    +0.000 C 
ATOM      2  N   UNL     1      -4.407  13.426  20.820  0.00  0.00    +0.000 N 
ATOM      3  C   UNL     1      -5.417  13.120  19.914  0.00  0.00    +0.000 A 
ATOM      4  C   UNL     1      -6.670  13.733  20.023  0.00  0.00    +0.000 A 
ATOM      5  C   UNL     1      -7.654  13.540  19.048  0.00  0.00    +0.000 A 
ATOM      6  C   UNL     1      -7.390  12.747  17.933  0.00  0.00    +0.000 A 
ATOM      7  C   UNL     1      -6.140  12.154  17.795  0.00  0.00    +0.000 A 
ATOM      8  C   UNL     1      -5.161  12.353  18.778  0.00  0.00    +0.000 A 
ATOM      9  C   UNL     1      -3.799  11.825  18.574  0.00  0.00    +0.000 C 
ATOM     10  O   UNL     1      -3.582  11.170  17.555  0.00  0.00    +0.000 OA
ATOM     11  N   UNL     1      -2.827  12.186  19.517  0.00  0.00    +0.000 N 
ATOM     12  H   UNL     1      -4.751  13.677  21.742  0.00  0.00    +0.000 HD
ENDROOT
BRANCH  11  13
ATOM     13  C   UNL     1      -1.497  11.724  19.283  0.00  0.00    +0.000 A 
ATOM     14  C   UNL     1      -1.136  10.383  19.436  0.00  0.00    +0.000 A 
ATOM     15  C   UNL     1       0.135   9.961  19.047  0.00  0.00    +0.000 A 
ATOM     16  C   UNL     1       1.000  10.898  18.506  0.00  0.00    +0.000 A 
ATOM     17  N   UNL     1       0.698  12.205  18.369  0.00  0.00    +0.000 NA
ATOM     18  C   UNL     1      -0.543  12.584  18.747  0.00  0.00    +0.000 A 
BRANCH  16  19
ATOM     19  O   UNL     1       2.220  10.431  18.061  0.00  0.00    +0.000 OA
ATOM     20  C   UNL     1       2.214   9.022  17.842  0.00  0.00    +0.000 C 
ENDBRANCH  16  19
ENDBRANCH  11  13
BRANCH   1  25
ATOM     21  N   UNL     1      -1.506  12.527  22.737  0.00  0.00    +0.000 N 
ATOM     22  N   UNL     1      -0.600  13.325  23.340  0.00  0.00    +0.000 NA
ATOM     23  C   UNL     1      -0.699  14.484  22.692  0.00  0.00    +0.000 A 
ATOM     24  C   UNL     1      -1.683  14.447  21.695  0.00  0.00    +0.000 A 
ATOM     25  C   UNL     1      -2.188  13.156  21.720  0.00  0.00    +0.000 A 
BRANCH  21  27
ATOM     26  C   UNL     1      -0.418  10.325  22.904  0.00  0.00    +0.000 C 
ATOM     27  C   UNL     1      -1.642  11.165  23.220  0.00  0.00    +0.000 C 
ENDBRANCH  21  27
ENDBRANCH   1  25
TORSDOF 4
ENDMDL
