MODEL 1
REMARK VINA RESULT:      -6.5      0.000      0.000
REMARK  Name = 
REMARK  10 active torsions:
REMARK  status: ('A' for Active; 'I' for Inactive)
REMARK    1  A    between atoms: C_1  and  C_2
REMARK    2  A    between atoms: C_2  and  C_3
REMARK    3  A    between atoms: C_3  and  C_4
REMARK    4  A    between atoms: C_4  and  C_5
REMARK    5  A    between atoms: C_5  and  C_6
REMARK    6  A    between atoms: C_18  and  C_19
REMARK    7  A    between atoms: C_19  and  C_20
REMARK    8  A    between atoms: C_19  and  C_22
REMARK    9  A    between atoms: C_20  and  C_21
REMARK   10  A    between atoms: C_22  and  C_23
REMARK                            x       y       z     vdW  Elec       q    Type
REMARK                         _______ _______ _______ _____ _____    ______ ____
ROOT
ATOM      1  C   UNL     1       2.140   7.750  19.454  0.00  0.00    +0.000 A 
ATOM      2  C   UNL     1       2.426   8.263  18.186  0.00  0.00    +0.000 A 
ATOM      3  C   UNL     1       1.842   9.440  17.742  0.00  0.00    +0.000 A 
ATOM      4  C   UNL     1       0.951  10.147  18.571  0.00  0.00    +0.000 A 
ATOM      5  C   UNL     1       0.636   9.631  19.855  0.00  0.00    +0.000 A 
ATOM      6  C   UNL     1       1.260   8.460  20.296  0.00  0.00    +0.000 A 
ATOM      7  C   UNL     1      -0.402  10.353  20.741  0.00  0.00    +0.000 C 
ATOM      8  O   UNL     1       0.119  10.898  21.969  0.00  0.00    +0.000 OA
ATOM      9  C   UNL     1      -0.798  11.490  22.831  0.00  0.00    +0.000 C 
ATOM     10  C   UNL     1      -1.783  12.486  22.211  0.00  0.00    +0.000 C 
ATOM     11  C   UNL     1      -2.151  12.147  20.780  0.00  0.00    +0.000 C 
ATOM     12  C   UNL     1      -1.072  11.461  19.954  0.00  0.00    +0.000 C 
ATOM     13  C   UNL     1      -0.011  12.289  19.169  0.00  0.00    +0.000 C 
ATOM     14  N   UNL     1       0.409  11.355  18.110  0.00  0.00    +0.000 N 
ATOM     15  H   UNL     1       0.777  11.736  17.255  0.00  0.00    +0.000 HD
ENDROOT
BRANCH   1  16
ATOM     16  C   UNL     1       2.742   6.440  19.894  0.00  0.00    +0.000 C 
BRANCH  16  17
ATOM     17  C   UNL     1       1.710   5.525  20.557  0.00  0.00    +0.000 C 
BRANCH  17  18
ATOM     18  C   UNL     1       1.467   4.273  19.716  0.00  0.00    +0.000 C 
BRANCH  18  20
ATOM     19  C   UNL     1       1.921   2.836  21.732  0.00  0.00    +0.000 C 
ATOM     20  C   UNL     1       0.972   3.112  20.577  0.00  0.00    +0.000 C 
ENDBRANCH  18  20
ENDBRANCH  17  18
ENDBRANCH  16  17
ENDBRANCH   1  16
BRANCH  13  21
ATOM     21  C   UNL     1       1.277  12.954  19.862  0.00  0.00    +0.000 C 
BRANCH  21  22
ATOM     22  C   UNL     1       2.515  13.123  18.927  0.00  0.00    +0.000 C 
ATOM     23  C   UNL     1       2.718  14.475  18.220  0.00  0.00    +0.000 C 
ENDBRANCH  21  22
BRANCH  21  24
ATOM     24  C   UNL     1       0.947  14.372  20.386  0.00  0.00    +0.000 C 
ATOM     25  C   UNL     1       1.228  14.698  21.831  0.00  0.00    +0.000 C 
ENDBRANCH  21  24
ENDBRANCH  13  21
TORSDOF 7
ENDMDL
MODEL 2
REMARK VINA RESULT:      -6.5      4.939      8.710
REMARK  Name = 
REMARK  10 active torsions:
REMARK  status: ('A' for Active; 'I' for Inactive)
REMARK    1  A    between atoms: C_1  and  C_2
REMARK    2  A    between atoms: C_2  and  C_3
REMARK    3  A    between atoms: C_3  and  C_4
REMARK    4  A    between atoms: C_4  and  C_5
REMARK    5  A    between atoms: C_5  and  C_6
REMARK    6  A    between atoms: C_18  and  C_19
REMARK    7  A    between atoms: C_19  and  C_20
REMARK    8  A    between atoms: C_19  and  C_22
REMARK    9  A    between atoms: C_20  and  C_21
REMARK   10  A    between atoms: C_22  and  C_23
REMARK                            x       y       z     vdW  Elec       q    Type
REMARK                         _______ _______ _______ _____ _____    ______ ____
ROOT
ATOM      1  C   UNL     1       6.421   6.946  17.700  0.00  0.00    +0.000 A 
ATOM      2  C   UNL     1       5.377   7.822  17.394  0.00  0.00    +0.000 A 
ATOM      3  C   UNL     1       4.064   7.378  17.334  0.00  0.00    +0.000 A 
ATOM      4  C   UNL     1       3.758   6.029  17.592  0.00  0.00    +0.000 A 
ATOM      5  C   UNL     1       4.808   5.121  17.887  0.00  0.00    +0.000 A 
ATOM      6  C   UNL     1       6.121   5.595  17.974  0.00  0.00    +0.000 A 
ATOM      7  C   UNL     1       4.497   3.623  18.091  0.00  0.00    +0.000 C 
ATOM      8  O   UNL     1       4.766   3.119  19.414  0.00  0.00    +0.000 OA
ATOM      9  C   UNL     1       4.570   1.757  19.618  0.00  0.00    +0.000 C 
ATOM     10  C   UNL     1       3.252   1.166  19.107  0.00  0.00    +0.000 C 
ATOM     11  C   UNL     1       2.729   1.861  17.866  0.00  0.00    +0.000 C 
ATOM     12  C   UNL     1       3.049   3.345  17.742  0.00  0.00    +0.000 C 
ATOM     13  C   UNL     1       2.119   4.424  18.373  0.00  0.00    +0.000 C 
ATOM     14  N   UNL     1       2.418   5.619  17.565  0.00  0.00    +0.000 N 
ATOM     15  H   UNL     1       1.713   6.332  17.489  0.00  0.00    +0.000 HD
ENDROOT
BRANCH   1  16
ATOM     16  C   UNL     1       7.845   7.438  17.703  0.00  0.00    +0.000 C 
BRANCH  16  17
ATOM     17  C   UNL     1       7.928   8.963  17.808  0.00  0.00    +0.000 C 
BRANCH  17  18
ATOM     18  C   UNL     1       8.913   9.383  18.897  0.00  0.00    +0.000 C 
BRANCH  18  20
ATOM     19  C   UNL     1      10.230  11.259  17.857  0.00  0.00    +0.000 C 
ATOM     20  C   UNL     1       9.161  10.891  18.872  0.00  0.00    +0.000 C 
ENDBRANCH  18  20
ENDBRANCH  17  18
ENDBRANCH  16  17
ENDBRANCH   1  16
BRANCH  13  21
ATOM     21  C   UNL     1       2.135   4.795  19.935  0.00  0.00    +0.000 C 
BRANCH  21  22
ATOM     22  C   UNL     1       1.362   6.098  20.311  0.00  0.00    +0.000 C 
ATOM     23  C   UNL     1       2.174   7.377  20.585  0.00  0.00    +0.000 C 
ENDBRANCH  21  22
BRANCH  21  24
ATOM     24  C   UNL     1       1.489   3.665  20.774  0.00  0.00    +0.000 C 
ATOM     25  C   UNL     1       2.222   3.148  21.986  0.00  0.00    +0.000 C 
ENDBRANCH  21  24
ENDBRANCH  13  21
TORSDOF 7
ENDMDL
MODEL 3
REMARK VINA RESULT:      -6.4      0.756      1.143
REMARK  Name = 
REMARK  10 active torsions:
REMARK  status: ('A' for Active; 'I' for Inactive)
REMARK    1  A    between atoms: C_1  and  C_2
REMARK    2  A    between atoms: C_2  and  C_3
REMARK    3  A    between atoms: C_3  and  C_4
REMARK    4  A    between atoms: C_4  and  C_5
REMARK    5  A    between atoms: C_5  and  C_6
REMARK    6  A    between atoms: C_18  and  C_19
REMARK    7  A    between atoms: C_19  and  C_20
REMARK    8  A    between atoms: C_19  and  C_22
REMARK    9  A    between atoms: C_20  and  C_21
REMARK   10  A    between atoms: C_22  and  C_23
REMARK                            x       y       z     vdW  Elec       q    Type
REMARK                         _______ _______ _______ _____ _____    ______ ____
ROOT
ATOM      1  C   UNL     1       2.199   7.453  19.556  0.00  0.00    +0.000 A 
ATOM      2  C   UNL     1       2.551   7.937  18.293  0.00  0.00    +0.000 A 
ATOM      3  C   UNL     1       2.034   9.133  17.815  0.00  0.00    +0.000 A 
ATOM      4  C   UNL     1       1.147   9.888  18.603  0.00  0.00    +0.000 A 
ATOM      5  C   UNL     1       0.764   9.403  19.881  0.00  0.00    +0.000 A 
ATOM      6  C   UNL     1       1.321   8.212  20.357  0.00  0.00    +0.000 A 
ATOM      7  C   UNL     1      -0.272  10.180  20.721  0.00  0.00    +0.000 C 
ATOM      8  O   UNL     1       0.229  10.718  21.961  0.00  0.00    +0.000 OA
ATOM      9  C   UNL     1      -0.691  11.359  22.783  0.00  0.00    +0.000 C 
ATOM     10  C   UNL     1      -1.611  12.388  22.117  0.00  0.00    +0.000 C 
ATOM     11  C   UNL     1      -1.941  12.048  20.677  0.00  0.00    +0.000 C 
ATOM     12  C   UNL     1      -0.865  11.305  19.899  0.00  0.00    +0.000 C 
ATOM     13  C   UNL     1       0.258  12.077  19.143  0.00  0.00    +0.000 C 
ATOM     14  N   UNL     1       0.674  11.112  18.110  0.00  0.00    +0.000 N 
ATOM     15  H   UNL     1       1.088  11.466  17.265  0.00  0.00    +0.000 HD
ENDROOT
BRANCH   1  16
ATOM     16  C   UNL     1       2.727   6.124  20.031  0.00  0.00    +0.000 C 
BRANCH  16  17
ATOM     17  C   UNL     1       1.601   5.157  20.405  0.00  0.00    +0.000 C 
BRANCH  17  18
ATOM     18  C   UNL     1       1.707   3.860  19.604  0.00  0.00    +0.000 C 
BRANCH  18  20
ATOM     19  C   UNL     1       2.660   3.526  17.299  0.00  0.00    +0.000 C 
ATOM     20  C   UNL     1       1.515   4.112  18.109  0.00  0.00    +0.000 C 
ENDBRANCH  18  20
ENDBRANCH  17  18
ENDBRANCH  16  17
ENDBRANCH   1  16
BRANCH  13  21
ATOM     21  C   UNL     1       1.548  12.694  19.874  0.00  0.00    +0.000 C 
BRANCH  21  22
ATOM     22  C   UNL     1       2.718  13.094  18.921  0.00  0.00    +0.000 C 
ATOM     23  C   UNL     1       2.517  14.296  17.981  0.00  0.00    +0.000 C 
ENDBRANCH  21  22
BRANCH  21  24
ATOM     24  C   UNL     1       1.176  13.982  20.648  0.00  0.00    +0.000 C 
ATOM     25  C   UNL     1       2.186  14.579  21.595  0.00  0.00    +0.000 C 
ENDBRANCH  21  24
ENDBRANCH  13  21
TORSDOF 7
ENDMDL
MODEL 4
REMARK VINA RESULT:      -6.3      5.174      9.030
REMARK  Name = 
REMARK  10 active torsions:
REMARK  status: ('A' for Active; 'I' for Inactive)
REMARK    1  A    between atoms: C_1  and  C_2
REMARK    2  A    between atoms: C_2  and  C_3
REMARK    3  A    between atoms: C_3  and  C_4
REMARK    4  A    between atoms: C_4  and  C_5
REMARK    5  A    between atoms: C_5  and  C_6
REMARK    6  A    between atoms: C_18  and  C_19
REMARK    7  A    between atoms: C_19  and  C_20
REMARK    8  A    between atoms: C_19  and  C_22
REMARK    9  A    between atoms: C_20  and  C_21
REMARK   10  A    between atoms: C_22  and  C_23
REMARK                            x       y       z     vdW  Elec       q    Type
REMARK                         _______ _______ _______ _____ _____    ______ ____
ROOT
ATOM      1  C   UNL     1       7.148   6.855  18.018  0.00  0.00    +0.000 A 
ATOM      2  C   UNL     1       6.379   7.430  17.003  0.00  0.00    +0.000 A 
ATOM      3  C   UNL     1       5.271   6.773  16.486  0.00  0.00    +0.000 A 
ATOM      4  C   UNL     1       4.896   5.513  16.986  0.00  0.00    +0.000 A 
ATOM      5  C   UNL     1       5.677   4.906  18.004  0.00  0.00    +0.000 A 
ATOM      6  C   UNL     1       6.770   5.598  18.533  0.00  0.00    +0.000 A 
ATOM      7  C   UNL     1       5.325   3.488  18.503  0.00  0.00    +0.000 C 
ATOM      8  O   UNL     1       4.915   3.412  19.883  0.00  0.00    +0.000 OA
ATOM      9  C   UNL     1       4.662   2.143  20.392  0.00  0.00    +0.000 C 
ATOM     10  C   UNL     1       3.773   1.225  19.546  0.00  0.00    +0.000 C 
ATOM     11  C   UNL     1       3.920   1.462  18.056  0.00  0.00    +0.000 C 
ATOM     12  C   UNL     1       4.240   2.889  17.632  0.00  0.00    +0.000 C 
ATOM     13  C   UNL     1       3.106   3.928  17.382  0.00  0.00    +0.000 C 
ATOM     14  N   UNL     1       3.748   4.893  16.473  0.00  0.00    +0.000 N 
ATOM     15  H   UNL     1       3.163   5.431  15.857  0.00  0.00    +0.000 HD
ENDROOT
BRANCH   1  16
ATOM     16  C   UNL     1       8.381   7.560  18.524  0.00  0.00    +0.000 C 
BRANCH  16  17
ATOM     17  C   UNL     1       8.420   9.029  18.098  0.00  0.00    +0.000 C 
BRANCH  17  18
ATOM     18  C   UNL     1       9.139   9.882  19.142  0.00  0.00    +0.000 C 
BRANCH  18  20
ATOM     19  C   UNL     1       9.413  12.384  19.172  0.00  0.00    +0.000 C 
ATOM     20  C   UNL     1       9.827  11.086  18.499  0.00  0.00    +0.000 C 
ENDBRANCH  18  20
ENDBRANCH  17  18
ENDBRANCH  16  17
ENDBRANCH   1  16
BRANCH  13  21
ATOM     21  C   UNL     1       2.346   4.704  18.565  0.00  0.00    +0.000 C 
BRANCH  21  22
ATOM     22  C   UNL     1       1.746   6.088  18.166  0.00  0.00    +0.000 C 
ATOM     23  C   UNL     1       2.366   7.357  18.779  0.00  0.00    +0.000 C 
ENDBRANCH  21  22
BRANCH  21  24
ATOM     24  C   UNL     1       1.157   3.866  19.094  0.00  0.00    +0.000 C 
ATOM     25  C   UNL     1       1.053   3.606  20.576  0.00  0.00    +0.000 C 
ENDBRANCH  21  24
ENDBRANCH  13  21
TORSDOF 7
ENDMDL
MODEL 5
REMARK VINA RESULT:      -6.2      0.768      1.046
REMARK  Name = 
REMARK  10 active torsions:
REMARK  status: ('A' for Active; 'I' for Inactive)
REMARK    1  A    between atoms: C_1  and  C_2
REMARK    2  A    between atoms: C_2  and  C_3
REMARK    3  A    between atoms: C_3  and  C_4
REMARK    4  A    between atoms: C_4  and  C_5
REMARK    5  A    between atoms: C_5  and  C_6
REMARK    6  A    between atoms: C_18  and  C_19
REMARK    7  A    between atoms: C_19  and  C_20
REMARK    8  A    between atoms: C_19  and  C_22
REMARK    9  A    between atoms: C_20  and  C_21
REMARK   10  A    between atoms: C_22  and  C_23
REMARK                            x       y       z     vdW  Elec       q    Type
REMARK                         _______ _______ _______ _____ _____    ______ ____
ROOT
ATOM      1  C   UNL     1       1.945   7.869  19.704  0.00  0.00    +0.000 A 
ATOM      2  C   UNL     1       2.089   8.172  18.349  0.00  0.00    +0.000 A 
ATOM      3  C   UNL     1       1.430   9.254  17.783  0.00  0.00    +0.000 A 
ATOM      4  C   UNL     1       0.604  10.075  18.574  0.00  0.00    +0.000 A 
ATOM      5  C   UNL     1       0.432   9.771  19.949  0.00  0.00    +0.000 A 
ATOM      6  C   UNL     1       1.130   8.695  20.506  0.00  0.00    +0.000 A 
ATOM      7  C   UNL     1      -0.534  10.613  20.809  0.00  0.00    +0.000 C 
ATOM      8  O   UNL     1       0.089  11.357  21.874  0.00  0.00    +0.000 OA
ATOM      9  C   UNL     1      -0.756  12.069  22.719  0.00  0.00    +0.000 C 
ATOM     10  C   UNL     1      -1.827  12.938  22.051  0.00  0.00    +0.000 C 
ATOM     11  C   UNL     1      -2.323  12.367  20.738  0.00  0.00    +0.000 C 
ATOM     12  C   UNL     1      -1.311  11.569  19.927  0.00  0.00    +0.000 C 
ATOM     13  C   UNL     1      -0.357  12.273  18.916  0.00  0.00    +0.000 C 
ATOM     14  N   UNL     1      -0.016  11.184  17.983  0.00  0.00    +0.000 N 
ATOM     15  H   UNL     1       0.255  11.426  17.045  0.00  0.00    +0.000 HD
ENDROOT
BRANCH   1  16
ATOM     16  C   UNL     1       2.625   6.655  20.285  0.00  0.00    +0.000 C 
BRANCH  16  17
ATOM     17  C   UNL     1       1.632   5.536  20.606  0.00  0.00    +0.000 C 
BRANCH  17  18
ATOM     18  C   UNL     1       1.883   4.314  19.725  0.00  0.00    +0.000 C 
BRANCH  18  20
ATOM     19  C   UNL     1       0.764   2.261  18.792  0.00  0.00    +0.000 C 
ATOM     20  C   UNL     1       0.827   3.233  19.958  0.00  0.00    +0.000 C 
ENDBRANCH  18  20
ENDBRANCH  17  18
ENDBRANCH  16  17
ENDBRANCH   1  16
BRANCH  13  21
ATOM     21  C   UNL     1       0.973  13.058  19.358  0.00  0.00    +0.000 C 
BRANCH  21  22
ATOM     22  C   UNL     1       2.039  13.237  18.232  0.00  0.00    +0.000 C 
ATOM     23  C   UNL     1       3.348  13.970  18.575  0.00  0.00    +0.000 C 
ENDBRANCH  21  22
BRANCH  21  24
ATOM     24  C   UNL     1       0.630  14.486  19.845  0.00  0.00    +0.000 C 
ATOM     25  C   UNL     1      -0.336  15.318  19.039  0.00  0.00    +0.000 C 
ENDBRANCH  21  24
ENDBRANCH  13  21
TORSDOF 7
ENDMDL
MODEL 6
REMARK VINA RESULT:      -6.2      1.082      1.379
REMARK  Name = 
REMARK  10 active torsions:
REMARK  status: ('A' for Active; 'I' for Inactive)
REMARK    1  A    between atoms: C_1  and  C_2
REMARK    2  A    between atoms: C_2  and  C_3
REMARK    3  A    between atoms: C_3  and  C_4
REMARK    4  A    between atoms: C_4  and  C_5
REMARK    5  A    between atoms: C_5  and  C_6
REMARK    6  A    between atoms: C_18  and  C_19
REMARK    7  A    between atoms: C_19  and  C_20
REMARK    8  A    between atoms: C_19  and  C_22
REMARK    9  A    between atoms: C_20  and  C_21
REMARK   10  A    between atoms: C_22  and  C_23
REMARK                            x       y       z     vdW  Elec       q    Type
REMARK                         _______ _______ _______ _____ _____    ______ ____
ROOT
ATOM      1  C   UNL     1       2.117   7.782  19.326  0.00  0.00    +0.000 A 
ATOM      2  C   UNL     1       2.484   8.445  18.152  0.00  0.00    +0.000 A 
ATOM      3  C   UNL     1       1.965   9.695  17.844  0.00  0.00    +0.000 A 
ATOM      4  C   UNL     1       1.061  10.323  18.720  0.00  0.00    +0.000 A 
ATOM      5  C   UNL     1       0.664   9.656  19.908  0.00  0.00    +0.000 A 
ATOM      6  C   UNL     1       1.222   8.411  20.215  0.00  0.00    +0.000 A 
ATOM      7  C   UNL     1      -0.390  10.298  20.836  0.00  0.00    +0.000 C 
ATOM      8  O   UNL     1       0.090  10.653  22.148  0.00  0.00    +0.000 OA
ATOM      9  C   UNL     1      -0.847  11.164  23.040  0.00  0.00    +0.000 C 
ATOM     10  C   UNL     1      -1.764  12.274  22.517  0.00  0.00    +0.000 C 
ATOM     11  C   UNL     1      -2.072  12.144  21.038  0.00  0.00    +0.000 C 
ATOM     12  C   UNL     1      -0.979  11.527  20.177  0.00  0.00    +0.000 C 
ATOM     13  C   UNL     1       0.149  12.407  19.558  0.00  0.00    +0.000 C 
ATOM     14  N   UNL     1       0.587  11.603  18.402  0.00  0.00    +0.000 N 
ATOM     15  H   UNL     1       1.010  12.078  17.623  0.00  0.00    +0.000 HD
ENDROOT
BRANCH   1  16
ATOM     16  C   UNL     1       2.648   6.400  19.612  0.00  0.00    +0.000 C 
BRANCH  16  17
ATOM     17  C   UNL     1       3.602   5.912  18.519  0.00  0.00    +0.000 C 
BRANCH  17  18
ATOM     18  C   UNL     1       3.258   4.486  18.091  0.00  0.00    +0.000 C 
BRANCH  18  20
ATOM     19  C   UNL     1       1.171   3.123  18.440  0.00  0.00    +0.000 C 
ATOM     20  C   UNL     1       1.771   4.345  17.766  0.00  0.00    +0.000 C 
ENDBRANCH  18  20
ENDBRANCH  17  18
ENDBRANCH  16  17
ENDBRANCH   1  16
BRANCH  13  21
ATOM     21  C   UNL     1       1.424  12.918  20.390  0.00  0.00    +0.000 C 
BRANCH  21  22
ATOM     22  C   UNL     1       2.589  13.493  19.524  0.00  0.00    +0.000 C 
ATOM     23  C   UNL     1       3.658  14.357  20.218  0.00  0.00    +0.000 C 
ENDBRANCH  21  22
BRANCH  21  24
ATOM     24  C   UNL     1       1.024  14.051  21.365  0.00  0.00    +0.000 C 
ATOM     25  C   UNL     1       0.123  15.154  20.870  0.00  0.00    +0.000 C 
ENDBRANCH  21  24
ENDBRANCH  13  21
TORSDOF 7
ENDMDL
MODEL 7
REMARK VINA RESULT:      -5.9      7.706      9.462
REMARK  Name = 
REMARK  10 active torsions:
REMARK  status: ('A' for Active; 'I' for Inactive)
REMARK    1  A    between atoms: C_1  and  C_2
REMARK    2  A    between atoms: C_2  and  C_3
REMARK    3  A    between atoms: C_3  and  C_4
REMARK    4  A    between atoms: C_4  and  C_5
REMARK    5  A    between atoms: C_5  and  C_6
REMARK    6  A    between atoms: C_18  and  C_19
REMARK    7  A    between atoms: C_19  and  C_20
REMARK    8  A    between atoms: C_19  and  C_22
REMARK    9  A    between atoms: C_20  and  C_21
REMARK   10  A    between atoms: C_22  and  C_23
REMARK                            x       y       z     vdW  Elec       q    Type
REMARK                         _______ _______ _______ _____ _____    ______ ____
ROOT
ATOM      1  C   UNL     1       8.820  10.519  18.405  0.00  0.00    +0.000 A 
ATOM      2  C   UNL     1       9.526  10.151  19.553  0.00  0.00    +0.000 A 
ATOM      3  C   UNL     1      10.259  11.085  20.272  0.00  0.00    +0.000 A 
ATOM      4  C   UNL     1      10.297  12.429  19.858  0.00  0.00    +0.000 A 
ATOM      5  C   UNL     1       9.600  12.816  18.684  0.00  0.00    +0.000 A 
ATOM      6  C   UNL     1       8.842  11.867  17.992  0.00  0.00    +0.000 A 
ATOM      7  C   UNL     1       9.700  14.269  18.172  0.00  0.00    +0.000 C 
ATOM      8  O   UNL     1       8.462  15.007  18.187  0.00  0.00    +0.000 OA
ATOM      9  C   UNL     1       8.494  16.295  17.664  0.00  0.00    +0.000 C 
ATOM     10  C   UNL     1       9.633  17.204  18.138  0.00  0.00    +0.000 C 
ATOM     11  C   UNL     1      10.908  16.447  18.449  0.00  0.00    +0.000 C 
ATOM     12  C   UNL     1      10.737  15.029  18.975  0.00  0.00    +0.000 C 
ATOM     13  C   UNL     1      10.556  14.752  20.498  0.00  0.00    +0.000 C 
ATOM     14  N   UNL     1      11.012  13.357  20.628  0.00  0.00    +0.000 N 
ATOM     15  H   UNL     1      11.366  13.051  21.518  0.00  0.00    +0.000 HD
ENDROOT
BRANCH   1  16
ATOM     16  C   UNL     1       8.078   9.477  17.608  0.00  0.00    +0.000 C 
BRANCH  16  17
ATOM     17  C   UNL     1       8.275   8.069  18.175  0.00  0.00    +0.000 C 
BRANCH  17  18
ATOM     18  C   UNL     1       7.309   7.078  17.526  0.00  0.00    +0.000 C 
BRANCH  18  20
ATOM     19  C   UNL     1       7.589   4.577  17.506  0.00  0.00    +0.000 C 
ATOM     20  C   UNL     1       7.205   5.789  18.339  0.00  0.00    +0.000 C 
ENDBRANCH  18  20
ENDBRANCH  17  18
ENDBRANCH  16  17
ENDBRANCH   1  16
BRANCH  13  21
ATOM     21  C   UNL     1       9.163  14.953  21.271  0.00  0.00    +0.000 C 
BRANCH  21  22
ATOM     22  C   UNL     1       9.012  14.122  22.583  0.00  0.00    +0.000 C 
ATOM     23  C   UNL     1       7.938  13.021  22.632  0.00  0.00    +0.000 C 
ENDBRANCH  21  22
BRANCH  21  24
ATOM     24  C   UNL     1       8.973  16.432  21.684  0.00  0.00    +0.000 C 
ATOM     25  C   UNL     1      10.170  17.213  22.165  0.00  0.00    +0.000 C 
ENDBRANCH  21  24
ENDBRANCH  13  21
TORSDOF 7
ENDMDL
MODEL 8
REMARK VINA RESULT:      -5.9      5.971      9.210
REMARK  Name = 
REMARK  10 active torsions:
REMARK  status: ('A' for Active; 'I' for Inactive)
REMARK    1  A    between atoms: C_1  and  C_2
REMARK    2  A    between atoms: C_2  and  C_3
REMARK    3  A    between atoms: C_3  and  C_4
REMARK    4  A    between atoms: C_4  and  C_5
REMARK    5  A    between atoms: C_5  and  C_6
REMARK    6  A    between atoms: C_18  and  C_19
REMARK    7  A    between atoms: C_19  and  C_20
REMARK    8  A    between atoms: C_19  and  C_22
REMARK    9  A    between atoms: C_20  and  C_21
REMARK   10  A    between atoms: C_22  and  C_23
REMARK                            x       y       z     vdW  Elec       q    Type
REMARK                         _______ _______ _______ _____ _____    ______ ____
ROOT
ATOM      1  C   UNL     1       6.410   4.633  15.185  0.00  0.00    +0.000 A 
ATOM      2  C   UNL     1       7.487   4.469  16.059  0.00  0.00    +0.000 A 
ATOM      3  C   UNL     1       7.307   4.528  17.434  0.00  0.00    +0.000 A 
ATOM      4  C   UNL     1       6.027   4.747  17.974  0.00  0.00    +0.000 A 
ATOM      5  C   UNL     1       4.924   4.935  17.100  0.00  0.00    +0.000 A 
ATOM      6  C   UNL     1       5.121   4.840  15.719  0.00  0.00    +0.000 A 
ATOM      7  C   UNL     1       3.530   5.258  17.677  0.00  0.00    +0.000 C 
ATOM      8  O   UNL     1       2.523   4.254  17.437  0.00  0.00    +0.000 OA
ATOM      9  C   UNL     1       1.235   4.541  17.875  0.00  0.00    +0.000 C 
ATOM     10  C   UNL     1       1.095   5.070  19.306  0.00  0.00    +0.000 C 
ATOM     11  C   UNL     1       2.283   5.897  19.755  0.00  0.00    +0.000 C 
ATOM     12  C   UNL     1       3.633   5.507  19.167  0.00  0.00    +0.000 C 
ATOM     13  C   UNL     1       4.518   4.417  19.842  0.00  0.00    +0.000 C 
ATOM     14  N   UNL     1       5.870   4.761  19.367  0.00  0.00    +0.000 N 
ATOM     15  H   UNL     1       6.658   4.485  19.928  0.00  0.00    +0.000 HD
ENDROOT
BRANCH   1  16
ATOM     16  C   UNL     1       6.637   4.623  13.695  0.00  0.00    +0.000 C 
BRANCH  16  17
ATOM     17  C   UNL     1       6.172   3.315  13.050  0.00  0.00    +0.000 C 
BRANCH  17  18
ATOM     18  C   UNL     1       5.647   3.559  11.636  0.00  0.00    +0.000 C 
BRANCH  18  20
ATOM     19  C   UNL     1       3.481   3.814  10.379  0.00  0.00    +0.000 C 
ATOM     20  C   UNL     1       4.209   3.065  11.483  0.00  0.00    +0.000 C 
ENDBRANCH  18  20
ENDBRANCH  17  18
ENDBRANCH  16  17
ENDBRANCH   1  16
BRANCH  13  21
ATOM     21  C   UNL     1       4.258   2.841  19.673  0.00  0.00    +0.000 C 
BRANCH  21  22
ATOM     22  C   UNL     1       5.220   1.923  20.489  0.00  0.00    +0.000 C 
ATOM     23  C   UNL     1       5.183   0.407  20.225  0.00  0.00    +0.000 C 
ENDBRANCH  21  22
BRANCH  21  24
ATOM     24  C   UNL     1       2.828   2.470  20.135  0.00  0.00    +0.000 C 
ATOM     25  C   UNL     1       2.459   2.655  21.585  0.00  0.00    +0.000 C 
ENDBRANCH  21  24
ENDBRANCH  13  21
TORSDOF 7
ENDMDL
MODEL 9
REMARK VINA RESULT:      -5.9      1.414      2.105
REMARK  Name = 
REMARK  10 active torsions:
REMARK  status: ('A' for Active; 'I' for Inactive)
REMARK    1  A    between atoms: C_1  and  C_2
REMARK    2  A    between atoms: C_2  and  C_3
REMARK    3  A    between atoms: C_3  and  C_4
REMARK    4  A    between atoms: C_4  and  C_5
REMARK    5  A    between atoms: C_5  and  C_6
REMARK    6  A    between atoms: C_18  and  C_19
REMARK    7  A    between atoms: C_19  and  C_20
REMARK    8  A    between atoms: C_19  and  C_22
REMARK    9  A    between atoms: C_20  and  C_21
REMARK   10  A    between atoms: C_22  and  C_23
REMARK                            x       y       z     vdW  Elec       q    Type
REMARK                         _______ _______ _______ _____ _____    ______ ____
ROOT
ATOM      1  C   UNL     1       1.698   8.178  19.675  0.00  0.00    +0.000 A 
ATOM      2  C   UNL     1       1.811   8.515  18.324  0.00  0.00    +0.000 A 
ATOM      3  C   UNL     1       1.135   9.608  17.800  0.00  0.00    +0.000 A 
ATOM      4  C   UNL     1       0.325  10.405  18.629  0.00  0.00    +0.000 A 
ATOM      5  C   UNL     1       0.184  10.067  20.000  0.00  0.00    +0.000 A 
ATOM      6  C   UNL     1       0.899   8.981  20.515  0.00  0.00    +0.000 A 
ATOM      7  C   UNL     1      -0.765  10.884  20.902  0.00  0.00    +0.000 C 
ATOM      8  O   UNL     1      -0.121  11.605  21.971  0.00  0.00    +0.000 OA
ATOM      9  C   UNL     1      -0.950  12.292  22.851  0.00  0.00    +0.000 C 
ATOM     10  C   UNL     1      -2.039  13.172  22.229  0.00  0.00    +0.000 C 
ATOM     11  C   UNL     1      -2.562  12.631  20.914  0.00  0.00    +0.000 C 
ATOM     12  C   UNL     1      -1.565  11.858  20.061  0.00  0.00    +0.000 C 
ATOM     13  C   UNL     1      -0.637  12.590  19.046  0.00  0.00    +0.000 C 
ATOM     14  N   UNL     1      -0.313  11.526  18.080  0.00  0.00    +0.000 N 
ATOM     15  H   UNL     1      -0.065  11.792  17.142  0.00  0.00    +0.000 HD
ENDROOT
BRANCH   1  16
ATOM     16  C   UNL     1       2.396   6.954  20.210  0.00  0.00    +0.000 C 
BRANCH  16  17
ATOM     17  C   UNL     1       2.445   5.823  19.181  0.00  0.00    +0.000 C 
BRANCH  17  18
ATOM     18  C   UNL     1       3.888   5.473  18.821  0.00  0.00    +0.000 C 
BRANCH  18  20
ATOM     19  C   UNL     1       4.782   6.702  16.814  0.00  0.00    +0.000 C 
ATOM     20  C   UNL     1       4.092   5.441  17.306  0.00  0.00    +0.000 C 
ENDBRANCH  18  20
ENDBRANCH  17  18
ENDBRANCH  16  17
ENDBRANCH   1  16
BRANCH  13  21
ATOM     21  C   UNL     1       0.699  13.370  19.478  0.00  0.00    +0.000 C 
BRANCH  21  22
ATOM     22  C   UNL     1       1.677  13.700  18.307  0.00  0.00    +0.000 C 
ATOM     23  C   UNL     1       2.993  12.907  18.209  0.00  0.00    +0.000 C 
ENDBRANCH  21  22
BRANCH  21  24
ATOM     24  C   UNL     1       0.354  14.728  20.134  0.00  0.00    +0.000 C 
ATOM     25  C   UNL     1      -0.522  15.699  19.382  0.00  0.00    +0.000 C 
ENDBRANCH  21  24
ENDBRANCH  13  21
TORSDOF 7
ENDMDL
