MODEL 1
REMARK VINA RESULT:      -6.7      0.000      0.000
REMARK  Name = 
REMARK  9 active torsions:
REMARK  status: ('A' for Active; 'I' for Inactive)
REMARK    1  A    between atoms: C_1  and  O_2
REMARK    2  A    between atoms: O_2  and  C_3
REMARK    3  A    between atoms: C_4  and  C_5
REMARK    4  A    between atoms: C_8  and  C_9
REMARK    5  A    between atoms: C_9  and  N_10
REMARK    6  A    between atoms: C_12  and  C_13
REMARK    7  A    between atoms: C_14  and  C_15
REMARK    8  A    between atoms: C_15  and  O_16
REMARK    9  A    between atoms: C_25  and  C_26
REMARK                            x       y       z     vdW  Elec       q    Type
REMARK                         _______ _______ _______ _____ _____    ______ ____
ROOT
ATOM      1  N   UNL     1       0.575  10.063  19.290  0.00  0.00    +0.000 N 
ATOM      2  C   UNL     1       0.095   9.792  18.027  0.00  0.00    +0.000 A 
ATOM      3  C   UNL     1      -1.154  10.371  17.917  0.00  0.00    +0.000 A 
ATOM      4  C   UNL     1      -1.423  11.056  19.133  0.00  0.00    +0.000 A 
ATOM      5  C   UNL     1      -2.435  11.807  19.711  0.00  0.00    +0.000 A 
ATOM      6 CL   UNL     1      -3.902  12.037  18.886  0.00  0.00    +0.000 Cl
ATOM      7  N   UNL     1      -2.325  12.340  20.936  0.00  0.00    +0.000 NA
ATOM      8  C   UNL     1      -1.178  12.140  21.590  0.00  0.00    +0.000 A 
ATOM      9  N   UNL     1      -1.082  12.707  22.847  0.00  0.00    +0.000 N 
ATOM     10  N   UNL     1      -0.134  11.414  21.171  0.00  0.00    +0.000 NA
ATOM     11  C   UNL     1      -0.307  10.892  19.944  0.00  0.00    +0.000 A 
ATOM     12  H   UNL     1      -2.009  12.857  23.219  0.00  0.00    +0.000 HD
ATOM     13  H   UNL     1      -0.434  12.180  23.414  0.00  0.00    +0.000 HD
ENDROOT
BRANCH   3  14
ATOM     14  C   UNL     1      -1.997  10.262  16.764  0.00  0.00    +0.000 C 
ATOM     15  C   UNL     1      -2.688  10.192  15.789  0.00  0.00    +0.000 C 
BRANCH  15  16
ATOM     16  C   UNL     1      -3.533  10.107  14.596  0.00  0.00    +0.000 C 
BRANCH  16  17
ATOM     17  O   UNL     1      -2.732   9.987  13.426  0.00  0.00    +0.000 OA
ATOM     18  H   UNL     1      -1.896   9.571  13.698  0.00  0.00    +0.000 HD
ENDBRANCH  16  17
ENDBRANCH  15  16
ENDBRANCH   3  14
BRANCH   1  19
ATOM     19  C   UNL     1       1.800   9.512  19.876  0.00  0.00    +0.000 C 
BRANCH  19  25
ATOM     20  C   UNL     1       2.545   5.840  18.948  0.00  0.00    +0.000 A 
ATOM     21  C   UNL     1       2.017   5.211  20.083  0.00  0.00    +0.000 A 
ATOM     22  C   UNL     1       2.013   3.761  20.466  0.00  0.00    +0.000 C 
ATOM     23  C   UNL     1       1.337   6.034  20.977  0.00  0.00    +0.000 A 
ATOM     24  N   UNL     1       1.231   7.369  20.884  0.00  0.00    +0.000 NA
ATOM     25  C   UNL     1       1.832   7.994  19.848  0.00  0.00    +0.000 A 
ATOM     26  C   UNL     1       2.473   7.263  18.832  0.00  0.00    +0.000 A 
ATOM     27  C   UNL     1       3.087   7.944  17.632  0.00  0.00    +0.000 C 
BRANCH  20  29
ATOM     28  C   UNL     1       4.456   4.702  17.995  0.00  0.00    +0.000 C 
ATOM     29  O   UNL     1       3.157   5.250  17.868  0.00  0.00    +0.000 OA
ENDBRANCH  20  29
ENDBRANCH  19  25
ENDBRANCH   1  19
TORSDOF 6
ENDMDL
MODEL 2
REMARK VINA RESULT:      -6.7      3.841      7.766
REMARK  Name = 
REMARK  9 active torsions:
REMARK  status: ('A' for Active; 'I' for Inactive)
REMARK    1  A    between atoms: C_1  and  O_2
REMARK    2  A    between atoms: O_2  and  C_3
REMARK    3  A    between atoms: C_4  and  C_5
REMARK    4  A    between atoms: C_8  and  C_9
REMARK    5  A    between atoms: C_9  and  N_10
REMARK    6  A    between atoms: C_12  and  C_13
REMARK    7  A    between atoms: C_14  and  C_15
REMARK    8  A    between atoms: C_15  and  O_16
REMARK    9  A    between atoms: C_25  and  C_26
REMARK                            x       y       z     vdW  Elec       q    Type
REMARK                         _______ _______ _______ _____ _____    ______ ____
ROOT
ATOM      1  N   UNL     1       2.432   6.739  19.879  0.00  0.00    +0.000 N 
ATOM      2  C   UNL     1       3.175   7.045  18.759  0.00  0.00    +0.000 A 
ATOM      3  C   UNL     1       3.550   5.856  18.164  0.00  0.00    +0.000 A 
ATOM      4  C   UNL     1       2.980   4.795  18.918  0.00  0.00    +0.000 A 
ATOM      5  C   UNL     1       2.949   3.409  18.920  0.00  0.00    +0.000 A 
ATOM      6 CL   UNL     1       3.857   2.536  17.781  0.00  0.00    +0.000 Cl
ATOM      7  N   UNL     1       2.250   2.706  19.823  0.00  0.00    +0.000 NA
ATOM      8  C   UNL     1       1.553   3.396  20.728  0.00  0.00    +0.000 A 
ATOM      9  N   UNL     1       0.832   2.652  21.643  0.00  0.00    +0.000 N 
ATOM     10  N   UNL     1       1.516   4.727  20.866  0.00  0.00    +0.000 NA
ATOM     11  C   UNL     1       2.246   5.378  19.944  0.00  0.00    +0.000 A 
ATOM     12  H   UNL     1       1.237   1.729  21.719  0.00  0.00    +0.000 HD
ATOM     13  H   UNL     1       0.713   3.178  22.497  0.00  0.00    +0.000 HD
ENDROOT
BRANCH   3  14
ATOM     14  C   UNL     1       4.381   5.762  17.000  0.00  0.00    +0.000 C 
ATOM     15  C   UNL     1       5.088   5.663  16.040  0.00  0.00    +0.000 C 
BRANCH  15  16
ATOM     16  C   UNL     1       5.954   5.540  14.866  0.00  0.00    +0.000 C 
BRANCH  16  17
ATOM     17  O   UNL     1       7.323   5.575  15.250  0.00  0.00    +0.000 OA
ATOM     18  H   UNL     1       7.700   6.390  14.875  0.00  0.00    +0.000 HD
ENDBRANCH  16  17
ENDBRANCH  15  16
ENDBRANCH   3  14
BRANCH   1  19
ATOM     19  C   UNL     1       1.961   7.699  20.881  0.00  0.00    +0.000 C 
BRANCH  19  25
ATOM     20  C   UNL     1      -0.505  10.635  20.430  0.00  0.00    +0.000 A 
ATOM     21  C   UNL     1      -0.288  10.902  19.071  0.00  0.00    +0.000 A 
ATOM     22  C   UNL     1      -0.858  11.982  18.200  0.00  0.00    +0.000 C 
ATOM     23  C   UNL     1       0.535  10.005  18.396  0.00  0.00    +0.000 A 
ATOM     24  N   UNL     1       1.197   8.980  18.954  0.00  0.00    +0.000 NA
ATOM     25  C   UNL     1       1.077   8.782  20.286  0.00  0.00    +0.000 A 
ATOM     26  C   UNL     1       0.205   9.567  21.061  0.00  0.00    +0.000 A 
ATOM     27  C   UNL     1       0.009   9.311  22.536  0.00  0.00    +0.000 C 
BRANCH  20  29
ATOM     28  C   UNL     1      -1.047  12.598  21.736  0.00  0.00    +0.000 C 
ATOM     29  O   UNL     1      -1.352  11.290  21.291  0.00  0.00    +0.000 OA
ENDBRANCH  20  29
ENDBRANCH  19  25
ENDBRANCH   1  19
TORSDOF 6
ENDMDL
MODEL 3
REMARK VINA RESULT:      -6.6      1.609      2.521
REMARK  Name = 
REMARK  9 active torsions:
REMARK  status: ('A' for Active; 'I' for Inactive)
REMARK    1  A    between atoms: C_1  and  O_2
REMARK    2  A    between atoms: O_2  and  C_3
REMARK    3  A    between atoms: C_4  and  C_5
REMARK    4  A    between atoms: C_8  and  C_9
REMARK    5  A    between atoms: C_9  and  N_10
REMARK    6  A    between atoms: C_12  and  C_13
REMARK    7  A    between atoms: C_14  and  C_15
REMARK    8  A    between atoms: C_15  and  O_16
REMARK    9  A    between atoms: C_25  and  C_26
REMARK                            x       y       z     vdW  Elec       q    Type
REMARK                         _______ _______ _______ _____ _____    ______ ____
ROOT
ATOM      1  N   UNL     1      -0.702  11.000  18.976  0.00  0.00    +0.000 N 
ATOM      2  C   UNL     1      -0.807  10.584  17.666  0.00  0.00    +0.000 A 
ATOM      3  C   UNL     1      -2.099  10.836  17.245  0.00  0.00    +0.000 A 
ATOM      4  C   UNL     1      -2.787  11.468  18.316  0.00  0.00    +0.000 A 
ATOM      5  C   UNL     1      -4.050  11.964  18.602  0.00  0.00    +0.000 A 
ATOM      6 CL   UNL     1      -5.304  11.805  17.467  0.00  0.00    +0.000 Cl
ATOM      7  N   UNL     1      -4.347  12.542  19.775  0.00  0.00    +0.000 NA
ATOM      8  C   UNL     1      -3.364  12.647  20.671  0.00  0.00    +0.000 A 
ATOM      9  N   UNL     1      -3.690  13.255  21.869  0.00  0.00    +0.000 N 
ATOM     10  N   UNL     1      -2.113  12.187  20.546  0.00  0.00    +0.000 NA
ATOM     11  C   UNL     1      -1.877  11.604  19.357  0.00  0.00    +0.000 A 
ATOM     12  H   UNL     1      -4.686  13.184  22.022  0.00  0.00    +0.000 HD
ATOM     13  H   UNL     1      -3.082  12.918  22.603  0.00  0.00    +0.000 HD
ENDROOT
BRANCH   3  14
ATOM     14  C   UNL     1      -2.609  10.492  15.952  0.00  0.00    +0.000 C 
ATOM     15  C   UNL     1      -3.010  10.195  14.864  0.00  0.00    +0.000 C 
BRANCH  15  16
ATOM     16  C   UNL     1      -3.500   9.830  13.533  0.00  0.00    +0.000 C 
BRANCH  16  17
ATOM     17  O   UNL     1      -4.914   9.689  13.544  0.00  0.00    +0.000 OA
ATOM     18  H   UNL     1      -5.227   9.912  12.650  0.00  0.00    +0.000 HD
ENDBRANCH  16  17
ENDBRANCH  15  16
ENDBRANCH   3  14
BRANCH   1  19
ATOM     19  C   UNL     1       0.452  10.782  19.852  0.00  0.00    +0.000 C 
BRANCH  19  25
ATOM     20  C   UNL     1       2.020   7.255  19.819  0.00  0.00    +0.000 A 
ATOM     21  C   UNL     1       2.546   7.256  18.520  0.00  0.00    +0.000 A 
ATOM     22  C   UNL     1       3.247   6.167  17.765  0.00  0.00    +0.000 C 
ATOM     23  C   UNL     1       2.465   8.463  17.829  0.00  0.00    +0.000 A 
ATOM     24  N   UNL     1       1.853   9.574  18.268  0.00  0.00    +0.000 NA
ATOM     25  C   UNL     1       1.249   9.544  19.476  0.00  0.00    +0.000 A 
ATOM     26  C   UNL     1       1.338   8.413  20.306  0.00  0.00    +0.000 A 
ATOM     27  C   UNL     1       0.729   8.393  21.687  0.00  0.00    +0.000 C 
BRANCH  20  29
ATOM     28  C   UNL     1       1.406   5.015  20.499  0.00  0.00    +0.000 C 
ATOM     29  O   UNL     1       2.070   6.241  20.745  0.00  0.00    +0.000 OA
ENDBRANCH  20  29
ENDBRANCH  19  25
ENDBRANCH   1  19
TORSDOF 6
ENDMDL
MODEL 4
REMARK VINA RESULT:      -6.5      5.218      8.279
REMARK  Name = 
REMARK  9 active torsions:
REMARK  status: ('A' for Active; 'I' for Inactive)
REMARK    1  A    between atoms: C_1  and  O_2
REMARK    2  A    between atoms: O_2  and  C_3
REMARK    3  A    between atoms: C_4  and  C_5
REMARK    4  A    between atoms: C_8  and  C_9
REMARK    5  A    between atoms: C_9  and  N_10
REMARK    6  A    between atoms: C_12  and  C_13
REMARK    7  A    between atoms: C_14  and  C_15
REMARK    8  A    between atoms: C_15  and  O_16
REMARK    9  A    between atoms: C_25  and  C_26
REMARK                            x       y       z     vdW  Elec       q    Type
REMARK                         _______ _______ _______ _____ _____    ______ ____
ROOT
ATOM      1  N   UNL     1       6.027   5.290  17.638  0.00  0.00    +0.000 N 
ATOM      2  C   UNL     1       5.389   6.479  17.360  0.00  0.00    +0.000 A 
ATOM      3  C   UNL     1       4.164   6.460  17.999  0.00  0.00    +0.000 A 
ATOM      4  C   UNL     1       4.074   5.243  18.727  0.00  0.00    +0.000 A 
ATOM      5  C   UNL     1       3.174   4.573  19.541  0.00  0.00    +0.000 A 
ATOM      6 CL   UNL     1       1.633   5.228  19.825  0.00  0.00    +0.000 Cl
ATOM      7  N   UNL     1       3.453   3.386  20.099  0.00  0.00    +0.000 NA
ATOM      8  C   UNL     1       4.659   2.866  19.857  0.00  0.00    +0.000 A 
ATOM      9  N   UNL     1       4.929   1.647  20.450  0.00  0.00    +0.000 N 
ATOM     10  N   UNL     1       5.610   3.381  19.069  0.00  0.00    +0.000 NA
ATOM     11  C   UNL     1       5.269   4.563  18.526  0.00  0.00    +0.000 A 
ATOM     12  H   UNL     1       4.061   1.173  20.656  0.00  0.00    +0.000 HD
ATOM     13  H   UNL     1       5.615   1.144  19.904  0.00  0.00    +0.000 HD
ENDROOT
BRANCH   3  14
ATOM     14  C   UNL     1       3.187   7.503  17.904  0.00  0.00    +0.000 C 
ATOM     15  C   UNL     1       2.363   8.370  17.849  0.00  0.00    +0.000 C 
BRANCH  15  16
ATOM     16  C   UNL     1       1.354   9.429  17.784  0.00  0.00    +0.000 C 
BRANCH  16  17
ATOM     17  O   UNL     1       1.960  10.676  17.466  0.00  0.00    +0.000 OA
ATOM     18  H   UNL     1       2.818  10.697  17.925  0.00  0.00    +0.000 HD
ENDBRANCH  16  17
ENDBRANCH  15  16
ENDBRANCH   3  14
BRANCH   1  19
ATOM     19  C   UNL     1       7.286   4.835  17.041  0.00  0.00    +0.000 C 
BRANCH  19  25
ATOM     20  C   UNL     1       6.211   4.061  13.415  0.00  0.00    +0.000 A 
ATOM     21  C   UNL     1       7.082   4.925  12.735  0.00  0.00    +0.000 A 
ATOM     22  C   UNL     1       7.190   5.223  11.269  0.00  0.00    +0.000 C 
ATOM     23  C   UNL     1       8.036   5.570  13.517  0.00  0.00    +0.000 A 
ATOM     24  N   UNL     1       8.127   5.502  14.854  0.00  0.00    +0.000 NA
ATOM     25  C   UNL     1       7.221   4.756  15.525  0.00  0.00    +0.000 A 
ATOM     26  C   UNL     1       6.264   3.987  14.841  0.00  0.00    +0.000 A 
ATOM     27  C   UNL     1       5.293   3.094  15.576  0.00  0.00    +0.000 C 
BRANCH  20  29
ATOM     28  C   UNL     1       5.584   2.399  11.773  0.00  0.00    +0.000 C 
ATOM     29  O   UNL     1       5.262   3.228  12.874  0.00  0.00    +0.000 OA
ENDBRANCH  20  29
ENDBRANCH  19  25
ENDBRANCH   1  19
TORSDOF 6
ENDMDL
MODEL 5
REMARK VINA RESULT:      -6.4      1.438      1.870
REMARK  Name = 
REMARK  9 active torsions:
REMARK  status: ('A' for Active; 'I' for Inactive)
REMARK    1  A    between atoms: C_1  and  O_2
REMARK    2  A    between atoms: O_2  and  C_3
REMARK    3  A    between atoms: C_4  and  C_5
REMARK    4  A    between atoms: C_8  and  C_9
REMARK    5  A    between atoms: C_9  and  N_10
REMARK    6  A    between atoms: C_12  and  C_13
REMARK    7  A    between atoms: C_14  and  C_15
REMARK    8  A    between atoms: C_15  and  O_16
REMARK    9  A    between atoms: C_25  and  C_26
REMARK                            x       y       z     vdW  Elec       q    Type
REMARK                         _______ _______ _______ _____ _____    ______ ____
ROOT
ATOM      1  N   UNL     1      -0.804  11.036  18.926  0.00  0.00    +0.000 N 
ATOM      2  C   UNL     1      -0.870  10.602  17.619  0.00  0.00    +0.000 A 
ATOM      3  C   UNL     1      -2.162  10.801  17.172  0.00  0.00    +0.000 A 
ATOM      4  C   UNL     1      -2.893  11.419  18.223  0.00  0.00    +0.000 A 
ATOM      5  C   UNL     1      -4.178  11.870  18.481  0.00  0.00    +0.000 A 
ATOM      6 CL   UNL     1      -5.404  11.652  17.326  0.00  0.00    +0.000 Cl
ATOM      7  N   UNL     1      -4.518  12.450  19.641  0.00  0.00    +0.000 NA
ATOM      8  C   UNL     1      -3.556  12.602  20.554  0.00  0.00    +0.000 A 
ATOM      9  N   UNL     1      -3.926  13.210  21.739  0.00  0.00    +0.000 N 
ATOM     10  N   UNL     1      -2.287  12.187  20.456  0.00  0.00    +0.000 NA
ATOM     11  C   UNL     1      -2.008  11.601  19.278  0.00  0.00    +0.000 A 
ATOM     12  H   UNL     1      -4.921  13.103  21.875  0.00  0.00    +0.000 HD
ATOM     13  H   UNL     1      -3.320  12.904  22.486  0.00  0.00    +0.000 HD
ENDROOT
BRANCH   3  14
ATOM     14  C   UNL     1      -2.635  10.424  15.874  0.00  0.00    +0.000 C 
ATOM     15  C   UNL     1      -3.017  10.129  14.779  0.00  0.00    +0.000 C 
BRANCH  15  16
ATOM     16  C   UNL     1      -3.484   9.771  13.438  0.00  0.00    +0.000 C 
BRANCH  16  17
ATOM     17  O   UNL     1      -2.381   9.573  12.563  0.00  0.00    +0.000 OA
ATOM     18  H   UNL     1      -1.942   8.752  12.843  0.00  0.00    +0.000 HD
ENDBRANCH  16  17
ENDBRANCH  15  16
ENDBRANCH   3  14
BRANCH   1  19
ATOM     19  C   UNL     1       0.341  10.871  19.825  0.00  0.00    +0.000 C 
BRANCH  19  25
ATOM     20  C   UNL     1       2.167   7.515  19.276  0.00  0.00    +0.000 A 
ATOM     21  C   UNL     1       1.734   6.835  20.423  0.00  0.00    +0.000 A 
ATOM     22  C   UNL     1       2.102   5.472  20.930  0.00  0.00    +0.000 C 
ATOM     23  C   UNL     1       0.773   7.484  21.192  0.00  0.00    +0.000 A 
ATOM     24  N   UNL     1       0.306   8.724  20.975  0.00  0.00    +0.000 NA
ATOM     25  C   UNL     1       0.800   9.427  19.932  0.00  0.00    +0.000 A 
ATOM     26  C   UNL     1       1.710   8.846  19.031  0.00  0.00    +0.000 A 
ATOM     27  C   UNL     1       2.215   9.596  17.821  0.00  0.00    +0.000 C 
BRANCH  20  29
ATOM     28  C   UNL     1       3.011   5.689  17.931  0.00  0.00    +0.000 C 
ATOM     29  O   UNL     1       3.015   7.056  18.297  0.00  0.00    +0.000 OA
ENDBRANCH  20  29
ENDBRANCH  19  25
ENDBRANCH   1  19
TORSDOF 6
ENDMDL
MODEL 6
REMARK VINA RESULT:      -6.4      3.002      4.421
REMARK  Name = 
REMARK  9 active torsions:
REMARK  status: ('A' for Active; 'I' for Inactive)
REMARK    1  A    between atoms: C_1  and  O_2
REMARK    2  A    between atoms: O_2  and  C_3
REMARK    3  A    between atoms: C_4  and  C_5
REMARK    4  A    between atoms: C_8  and  C_9
REMARK    5  A    between atoms: C_9  and  N_10
REMARK    6  A    between atoms: C_12  and  C_13
REMARK    7  A    between atoms: C_14  and  C_15
REMARK    8  A    between atoms: C_15  and  O_16
REMARK    9  A    between atoms: C_25  and  C_26
REMARK                            x       y       z     vdW  Elec       q    Type
REMARK                         _______ _______ _______ _____ _____    ______ ____
ROOT
ATOM      1  N   UNL     1      -0.180  10.999  20.249  0.00  0.00    +0.000 N 
ATOM      2  C   UNL     1      -0.604  11.254  21.535  0.00  0.00    +0.000 A 
ATOM      3  C   UNL     1      -1.890  11.752  21.464  0.00  0.00    +0.000 A 
ATOM      4  C   UNL     1      -2.278  11.758  20.097  0.00  0.00    +0.000 A 
ATOM      5  C   UNL     1      -3.366  12.120  19.318  0.00  0.00    +0.000 A 
ATOM      6 CL   UNL     1      -4.720  12.852  20.035  0.00  0.00    +0.000 Cl
ATOM      7  N   UNL     1      -3.385  11.953  17.988  0.00  0.00    +0.000 NA
ATOM      8  C   UNL     1      -2.311  11.395  17.425  0.00  0.00    +0.000 A 
ATOM      9  N   UNL     1      -2.357  11.223  16.055  0.00  0.00    +0.000 N 
ATOM     10  N   UNL     1      -1.183  11.028  18.045  0.00  0.00    +0.000 NA
ATOM     11  C   UNL     1      -1.214  11.233  19.374  0.00  0.00    +0.000 A 
ATOM     12  H   UNL     1      -3.018  11.875  15.656  0.00  0.00    +0.000 HD
ATOM     13  H   UNL     1      -1.420  11.222  15.676  0.00  0.00    +0.000 HD
ENDROOT
BRANCH   3  14
ATOM     14  C   UNL     1      -2.652  12.186  22.597  0.00  0.00    +0.000 C 
ATOM     15  C   UNL     1      -3.282  12.574  23.538  0.00  0.00    +0.000 C 
BRANCH  15  16
ATOM     16  C   UNL     1      -4.053  13.051  24.688  0.00  0.00    +0.000 C 
BRANCH  16  17
ATOM     17  O   UNL     1      -4.892  12.018  25.189  0.00  0.00    +0.000 OA
ATOM     18  H   UNL     1      -5.634  12.452  25.643  0.00  0.00    +0.000 HD
ENDBRANCH  16  17
ENDBRANCH  15  16
ENDBRANCH   3  14
BRANCH   1  19
ATOM     19  C   UNL     1       1.176  10.600  19.859  0.00  0.00    +0.000 C 
BRANCH  19  25
ATOM     20  C   UNL     1       2.227   6.974  19.055  0.00  0.00    +0.000 A 
ATOM     21  C   UNL     1       1.927   6.376  20.287  0.00  0.00    +0.000 A 
ATOM     22  C   UNL     1       2.145   4.967  20.751  0.00  0.00    +0.000 C 
ATOM     23  C   UNL     1       1.275   7.184  21.215  0.00  0.00    +0.000 A 
ATOM     24  N   UNL     1       1.000   8.488  21.059  0.00  0.00    +0.000 NA
ATOM     25  C   UNL     1       1.385   9.097  19.915  0.00  0.00    +0.000 A 
ATOM     26  C   UNL     1       1.972   8.367  18.866  0.00  0.00    +0.000 A 
ATOM     27  C   UNL     1       2.340   9.022  17.556  0.00  0.00    +0.000 C 
BRANCH  20  29
ATOM     28  C   UNL     1       4.104   5.932  17.940  0.00  0.00    +0.000 C 
ATOM     29  O   UNL     1       2.760   6.377  17.939  0.00  0.00    +0.000 OA
ENDBRANCH  20  29
ENDBRANCH  19  25
ENDBRANCH   1  19
TORSDOF 6
ENDMDL
MODEL 7
REMARK VINA RESULT:      -6.3      3.808      7.989
REMARK  Name = 
REMARK  9 active torsions:
REMARK  status: ('A' for Active; 'I' for Inactive)
REMARK    1  A    between atoms: C_1  and  O_2
REMARK    2  A    between atoms: O_2  and  C_3
REMARK    3  A    between atoms: C_4  and  C_5
REMARK    4  A    between atoms: C_8  and  C_9
REMARK    5  A    between atoms: C_9  and  N_10
REMARK    6  A    between atoms: C_12  and  C_13
REMARK    7  A    between atoms: C_14  and  C_15
REMARK    8  A    between atoms: C_15  and  O_16
REMARK    9  A    between atoms: C_25  and  C_26
REMARK                            x       y       z     vdW  Elec       q    Type
REMARK                         _______ _______ _______ _____ _____    ______ ____
ROOT
ATOM      1  N   UNL     1       2.572   7.927  18.595  0.00  0.00    +0.000 N 
ATOM      2  C   UNL     1       1.993   7.201  19.614  0.00  0.00    +0.000 A 
ATOM      3  C   UNL     1       2.371   5.881  19.459  0.00  0.00    +0.000 A 
ATOM      4  C   UNL     1       3.242   5.809  18.339  0.00  0.00    +0.000 A 
ATOM      5  C   UNL     1       3.954   4.857  17.624  0.00  0.00    +0.000 A 
ATOM      6 CL   UNL     1       3.821   3.213  18.029  0.00  0.00    +0.000 Cl
ATOM      7  N   UNL     1       4.730   5.175  16.578  0.00  0.00    +0.000 NA
ATOM      8  C   UNL     1       4.816   6.466  16.250  0.00  0.00    +0.000 A 
ATOM      9  N   UNL     1       5.630   6.772  15.175  0.00  0.00    +0.000 N 
ATOM     10  N   UNL     1       4.165   7.484  16.826  0.00  0.00    +0.000 NA
ATOM     11  C   UNL     1       3.390   7.104  17.858  0.00  0.00    +0.000 A 
ATOM     12  H   UNL     1       5.728   5.958  14.585  0.00  0.00    +0.000 HD
ATOM     13  H   UNL     1       5.315   7.627  14.738  0.00  0.00    +0.000 HD
ENDROOT
BRANCH   3  14
ATOM     14  C   UNL     1       1.924   4.809  20.297  0.00  0.00    +0.000 C 
ATOM     15  C   UNL     1       1.571   3.898  20.989  0.00  0.00    +0.000 C 
BRANCH  15  16
ATOM     16  C   UNL     1       1.141   2.782  21.834  0.00  0.00    +0.000 C 
BRANCH  16  17
ATOM     17  O   UNL     1       2.262   2.015  22.255  0.00  0.00    +0.000 OA
ATOM     18  H   UNL     1       3.055   2.469  21.922  0.00  0.00    +0.000 HD
ENDBRANCH  16  17
ENDBRANCH  15  16
ENDBRANCH   3  14
BRANCH   1  19
ATOM     19  C   UNL     1       2.314   9.339  18.299  0.00  0.00    +0.000 C 
BRANCH  19  25
ATOM     20  C   UNL     1      -1.054  10.824  19.462  0.00  0.00    +0.000 A 
ATOM     21  C   UNL     1      -1.836  10.509  18.342  0.00  0.00    +0.000 A 
ATOM     22  C   UNL     1      -3.266  10.846  18.041  0.00  0.00    +0.000 C 
ATOM     23  C   UNL     1      -1.226   9.714  17.375  0.00  0.00    +0.000 A 
ATOM     24  N   UNL     1       0.054   9.311  17.389  0.00  0.00    +0.000 NA
ATOM     25  C   UNL     1       0.844   9.703  18.413  0.00  0.00    +0.000 A 
ATOM     26  C   UNL     1       0.320  10.433  19.495  0.00  0.00    +0.000 A 
ATOM     27  C   UNL     1       1.175  10.816  20.680  0.00  0.00    +0.000 C 
BRANCH  20  29
ATOM     28  C   UNL     1      -1.827  12.852  20.531  0.00  0.00    +0.000 C 
ATOM     29  O   UNL     1      -1.444  11.491  20.598  0.00  0.00    +0.000 OA
ENDBRANCH  20  29
ENDBRANCH  19  25
ENDBRANCH   1  19
TORSDOF 6
ENDMDL
MODEL 8
REMARK VINA RESULT:      -6.3      3.279      4.258
REMARK  Name = 
REMARK  9 active torsions:
REMARK  status: ('A' for Active; 'I' for Inactive)
REMARK    1  A    between atoms: C_1  and  O_2
REMARK    2  A    between atoms: O_2  and  C_3
REMARK    3  A    between atoms: C_4  and  C_5
REMARK    4  A    between atoms: C_8  and  C_9
REMARK    5  A    between atoms: C_9  and  N_10
REMARK    6  A    between atoms: C_12  and  C_13
REMARK    7  A    between atoms: C_14  and  C_15
REMARK    8  A    between atoms: C_15  and  O_16
REMARK    9  A    between atoms: C_25  and  C_26
REMARK                            x       y       z     vdW  Elec       q    Type
REMARK                         _______ _______ _______ _____ _____    ______ ____
ROOT
ATOM      1  N   UNL     1       1.440   9.421  18.765  0.00  0.00    +0.000 N 
ATOM      2  C   UNL     1       2.020  10.485  18.110  0.00  0.00    +0.000 A 
ATOM      3  C   UNL     1       1.801  11.619  18.869  0.00  0.00    +0.000 A 
ATOM      4  C   UNL     1       1.107  11.225  20.045  0.00  0.00    +0.000 A 
ATOM      5  C   UNL     1       0.571  11.800  21.187  0.00  0.00    +0.000 A 
ATOM      6 CL   UNL     1       0.610  13.485  21.391  0.00  0.00    +0.000 Cl
ATOM      7  N   UNL     1      -0.027  11.075  22.144  0.00  0.00    +0.000 NA
ATOM      8  C   UNL     1      -0.074   9.752  21.970  0.00  0.00    +0.000 A 
ATOM      9  N   UNL     1      -0.686   9.024  22.973  0.00  0.00    +0.000 N 
ATOM     10  N   UNL     1       0.371   9.068  20.909  0.00  0.00    +0.000 NA
ATOM     11  C   UNL     1       0.946   9.847  19.976  0.00  0.00    +0.000 A 
ATOM     12  H   UNL     1      -1.321   9.623  23.483  0.00  0.00    +0.000 HD
ATOM     13  H   UNL     1      -1.059   8.165  22.596  0.00  0.00    +0.000 HD
ENDROOT
BRANCH   3  14
ATOM     14  C   UNL     1       2.210  12.938  18.488  0.00  0.00    +0.000 C 
ATOM     15  C   UNL     1       2.575  14.037  18.183  0.00  0.00    +0.000 C 
BRANCH  15  16
ATOM     16  C   UNL     1       3.023  15.380  17.810  0.00  0.00    +0.000 C 
BRANCH  16  17
ATOM     17  O   UNL     1       4.253  15.316  17.099  0.00  0.00    +0.000 OA
ATOM     18  H   UNL     1       4.795  14.636  17.535  0.00  0.00    +0.000 HD
ENDBRANCH  16  17
ENDBRANCH  15  16
ENDBRANCH   3  14
BRANCH   1  19
ATOM     19  C   UNL     1       1.310   8.060  18.238  0.00  0.00    +0.000 C 
BRANCH  19  25
ATOM     20  C   UNL     1       4.082   5.496  19.038  0.00  0.00    +0.000 A 
ATOM     21  C   UNL     1       4.987   5.819  18.018  0.00  0.00    +0.000 A 
ATOM     22  C   UNL     1       6.292   5.178  17.650  0.00  0.00    +0.000 C 
ATOM     23  C   UNL     1       4.672   6.940  17.254  0.00  0.00    +0.000 A 
ATOM     24  N   UNL     1       3.547   7.665  17.358  0.00  0.00    +0.000 NA
ATOM     25  C   UNL     1       2.620   7.291  18.268  0.00  0.00    +0.000 A 
ATOM     26  C   UNL     1       2.862   6.230  19.158  0.00  0.00    +0.000 A 
ATOM     27  C   UNL     1       1.865   5.849  20.226  0.00  0.00    +0.000 C 
BRANCH  20  29
ATOM     28  C   UNL     1       4.149   3.151  19.632  0.00  0.00    +0.000 C 
ATOM     29  O   UNL     1       4.209   4.518  19.995  0.00  0.00    +0.000 OA
ENDBRANCH  20  29
ENDBRANCH  19  25
ENDBRANCH   1  19
TORSDOF 6
ENDMDL
MODEL 9
REMARK VINA RESULT:      -6.3      4.681      6.242
REMARK  Name = 
REMARK  9 active torsions:
REMARK  status: ('A' for Active; 'I' for Inactive)
REMARK    1  A    between atoms: C_1  and  O_2
REMARK    2  A    between atoms: O_2  and  C_3
REMARK    3  A    between atoms: C_4  and  C_5
REMARK    4  A    between atoms: C_8  and  C_9
REMARK    5  A    between atoms: C_9  and  N_10
REMARK    6  A    between atoms: C_12  and  C_13
REMARK    7  A    between atoms: C_14  and  C_15
REMARK    8  A    between atoms: C_15  and  O_16
REMARK    9  A    between atoms: C_25  and  C_26
REMARK                            x       y       z     vdW  Elec       q    Type
REMARK                         _______ _______ _______ _____ _____    ______ ____
ROOT
ATOM      1  N   UNL     1      -1.387  12.175  19.201  0.00  0.00    +0.000 N 
ATOM      2  C   UNL     1      -1.343  11.723  17.900  0.00  0.00    +0.000 A 
ATOM      3  C   UNL     1      -2.639  11.462  17.498  0.00  0.00    +0.000 A 
ATOM      4  C   UNL     1      -3.503  11.811  18.572  0.00  0.00    +0.000 A 
ATOM      5  C   UNL     1      -4.856  11.801  18.874  0.00  0.00    +0.000 A 
ATOM      6 CL   UNL     1      -5.970  11.159  17.765  0.00  0.00    +0.000 Cl
ATOM      7  N   UNL     1      -5.335  12.249  20.043  0.00  0.00    +0.000 NA
ATOM      8  C   UNL     1      -4.454  12.735  20.920  0.00  0.00    +0.000 A 
ATOM      9  N   UNL     1      -4.971  13.201  22.114  0.00  0.00    +0.000 N 
ATOM     10  N   UNL     1      -3.124  12.777  20.778  0.00  0.00    +0.000 NA
ATOM     11  C   UNL     1      -2.699  12.301  19.594  0.00  0.00    +0.000 A 
ATOM     12  H   UNL     1      -5.865  12.763  22.286  0.00  0.00    +0.000 HD
ATOM     13  H   UNL     1      -4.273  13.133  22.841  0.00  0.00    +0.000 HD
ENDROOT
BRANCH   3  14
ATOM     14  C   UNL     1      -2.996  10.924  16.220  0.00  0.00    +0.000 C 
ATOM     15  C   UNL     1      -3.277  10.491  15.140  0.00  0.00    +0.000 C 
BRANCH  15  16
ATOM     16  C   UNL     1      -3.619   9.963  13.818  0.00  0.00    +0.000 C 
BRANCH  16  17
ATOM     17  O   UNL     1      -2.446   9.781  13.035  0.00  0.00    +0.000 OA
ATOM     18  H   UNL     1      -1.780   9.372  13.615  0.00  0.00    +0.000 HD
ENDBRANCH  16  17
ENDBRANCH  15  16
ENDBRANCH   3  14
BRANCH   1  19
ATOM     19  C   UNL     1      -0.226  12.426  20.059  0.00  0.00    +0.000 C 
BRANCH  19  25
ATOM     20  C   UNL     1       1.831  15.461  18.854  0.00  0.00    +0.000 A 
ATOM     21  C   UNL     1       2.948  14.785  18.341  0.00  0.00    +0.000 A 
ATOM     22  C   UNL     1       4.218  15.329  17.759  0.00  0.00    +0.000 C 
ATOM     23  C   UNL     1       2.858  13.396  18.306  0.00  0.00    +0.000 A 
ATOM     24  N   UNL     1       1.845  12.666  18.799  0.00  0.00    +0.000 NA
ATOM     25  C   UNL     1       0.815  13.309  19.393  0.00  0.00    +0.000 A 
ATOM     26  C   UNL     1       0.749  14.713  19.412  0.00  0.00    +0.000 A 
ATOM     27  C   UNL     1      -0.430  15.443  20.009  0.00  0.00    +0.000 C 
BRANCH  20  29
ATOM     28  C   UNL     1       1.450  17.553  17.701  0.00  0.00    +0.000 C 
ATOM     29  O   UNL     1       1.618  16.818  18.898  0.00  0.00    +0.000 OA
ENDBRANCH  20  29
ENDBRANCH  19  25
ENDBRANCH   1  19
TORSDOF 6
ENDMDL
