MODEL 1
REMARK VINA RESULT:      -5.4      0.000      0.000
REMARK  Name = 
REMARK  5 active torsions:
REMARK  status: ('A' for Active; 'I' for Inactive)
REMARK    1  A    between atoms: C_1  and  N_2
REMARK    2  A    between atoms: N_2  and  C_3
REMARK    3  A    between atoms: N_2  and  C_4
REMARK    4  A    between atoms: C_4  and  C_5
REMARK    5  A    between atoms: C_9  and  O_10
REMARK                            x       y       z     vdW  Elec       q    Type
REMARK                         _______ _______ _______ _____ _____    ______ ____
ROOT
ATOM      1  C   UNL     1       4.431   4.470  18.490  0.00  0.00    +0.000 A 
ATOM      2  C   UNL     1       3.283   4.764  17.856  0.00  0.00    +0.000 A 
ATOM      3  C   UNL     1       2.202   3.764  17.836  0.00  0.00    +0.000 A 
ATOM      4  O   UNL     1       1.132   3.957  17.268  0.00  0.00    +0.000 OA
ATOM      5  C   UNL     1       2.448   2.493  18.561  0.00  0.00    +0.000 A 
ATOM      6  C   UNL     1       3.642   2.323  19.135  0.00  0.00    +0.000 A 
ATOM      7  O   UNL     1       4.659   3.246  19.111  0.00  0.00    +0.000 OA
ENDROOT
BRANCH   5   8
ATOM      8  O   UNL     1       1.447   1.547  18.622  0.00  0.00    +0.000 OA
ATOM      9  H   UNL     1       1.290   1.289  17.689  0.00  0.00    +0.000 HD
ENDBRANCH   5   8
BRANCH   1  10
ATOM     10  C   UNL     1       5.562   5.461  18.643  0.00  0.00    +0.000 C 
BRANCH  10  12
ATOM     11  C   UNL     1       7.382   4.571  17.297  0.00  0.00    +0.000 C 
ATOM     12  N   UNL     1       6.896   4.833  18.656  0.00  0.00    +0.000 NA
ATOM     13  C   UNL     1       7.850   5.700  19.353  0.00  0.00    +0.000 C 
ENDBRANCH  10  12
ENDBRANCH   1  10
TORSDOF 3
ENDMDL
MODEL 2
REMARK VINA RESULT:      -5.3      0.864      1.178
REMARK  Name = 
REMARK  5 active torsions:
REMARK  status: ('A' for Active; 'I' for Inactive)
REMARK    1  A    between atoms: C_1  and  N_2
REMARK    2  A    between atoms: N_2  and  C_3
REMARK    3  A    between atoms: N_2  and  C_4
REMARK    4  A    between atoms: C_4  and  C_5
REMARK    5  A    between atoms: C_9  and  O_10
REMARK                            x       y       z     vdW  Elec       q    Type
REMARK                         _______ _______ _______ _____ _____    ______ ____
ROOT
ATOM      1  C   UNL     1       4.892   4.248  18.786  0.00  0.00    +0.000 A 
ATOM      2  C   UNL     1       3.894   4.422  17.904  0.00  0.00    +0.000 A 
ATOM      3  C   UNL     1       2.807   3.430  17.849  0.00  0.00    +0.000 A 
ATOM      4  O   UNL     1       1.870   3.515  17.062  0.00  0.00    +0.000 OA
ATOM      5  C   UNL     1       2.875   2.307  18.816  0.00  0.00    +0.000 A 
ATOM      6  C   UNL     1       3.932   2.244  19.628  0.00  0.00    +0.000 A 
ATOM      7  O   UNL     1       4.963   3.153  19.641  0.00  0.00    +0.000 OA
ENDROOT
BRANCH   5   8
ATOM      8  O   UNL     1       1.853   1.381  18.846  0.00  0.00    +0.000 OA
ATOM      9  H   UNL     1       2.082   0.732  18.148  0.00  0.00    +0.000 HD
ENDBRANCH   5   8
BRANCH   1  10
ATOM     10  C   UNL     1       6.002   5.256  18.980  0.00  0.00    +0.000 C 
BRANCH  10  12
ATOM     11  C   UNL     1       7.459   6.869  17.888  0.00  0.00    +0.000 C 
ATOM     12  N   UNL     1       6.669   5.644  17.724  0.00  0.00    +0.000 NA
ATOM     13  C   UNL     1       7.544   4.560  17.266  0.00  0.00    +0.000 C 
ENDBRANCH  10  12
ENDBRANCH   1  10
TORSDOF 3
ENDMDL
MODEL 3
REMARK VINA RESULT:      -5.2      2.810      4.624
REMARK  Name = 
REMARK  5 active torsions:
REMARK  status: ('A' for Active; 'I' for Inactive)
REMARK    1  A    between atoms: C_1  and  N_2
REMARK    2  A    between atoms: N_2  and  C_3
REMARK    3  A    between atoms: N_2  and  C_4
REMARK    4  A    between atoms: C_4  and  C_5
REMARK    5  A    between atoms: C_9  and  O_10
REMARK                            x       y       z     vdW  Elec       q    Type
REMARK                         _______ _______ _______ _____ _____    ______ ____
ROOT
ATOM      1  C   UNL     1       5.135   4.896  18.260  0.00  0.00    +0.000 A 
ATOM      2  C   UNL     1       4.678   5.702  17.287  0.00  0.00    +0.000 A 
ATOM      3  C   UNL     1       5.547   5.994  16.134  0.00  0.00    +0.000 A 
ATOM      4  O   UNL     1       5.204   6.729  15.215  0.00  0.00    +0.000 OA
ATOM      5  C   UNL     1       6.877   5.335  16.113  0.00  0.00    +0.000 A 
ATOM      6  C   UNL     1       7.213   4.571  17.154  0.00  0.00    +0.000 A 
ATOM      7  O   UNL     1       6.409   4.340  18.245  0.00  0.00    +0.000 OA
ENDROOT
BRANCH   5   8
ATOM      8  O   UNL     1       7.707   5.530  15.029  0.00  0.00    +0.000 OA
ATOM      9  H   UNL     1       7.148   5.982  14.363  0.00  0.00    +0.000 HD
ENDBRANCH   5   8
BRANCH   1  10
ATOM     10  C   UNL     1       4.287   4.466  19.435  0.00  0.00    +0.000 C 
BRANCH  10  12
ATOM     11  C   UNL     1       3.283   2.634  20.681  0.00  0.00    +0.000 C 
ATOM     12  N   UNL     1       4.143   3.003  19.552  0.00  0.00    +0.000 NA
ATOM     13  C   UNL     1       3.580   2.455  18.314  0.00  0.00    +0.000 C 
ENDBRANCH  10  12
ENDBRANCH   1  10
TORSDOF 3
ENDMDL
MODEL 4
REMARK VINA RESULT:      -5.2      2.997      5.199
REMARK  Name = 
REMARK  5 active torsions:
REMARK  status: ('A' for Active; 'I' for Inactive)
REMARK    1  A    between atoms: C_1  and  N_2
REMARK    2  A    between atoms: N_2  and  C_3
REMARK    3  A    between atoms: N_2  and  C_4
REMARK    4  A    between atoms: C_4  and  C_5
REMARK    5  A    between atoms: C_9  and  O_10
REMARK                            x       y       z     vdW  Elec       q    Type
REMARK                         _______ _______ _______ _____ _____    ______ ____
ROOT
ATOM      1  C   UNL     1       5.162   4.361  17.450  0.00  0.00    +0.000 A 
ATOM      2  C   UNL     1       5.939   5.441  17.639  0.00  0.00    +0.000 A 
ATOM      3  C   UNL     1       6.888   5.832  16.582  0.00  0.00    +0.000 A 
ATOM      4  O   UNL     1       7.637   6.797  16.688  0.00  0.00    +0.000 OA
ATOM      5  C   UNL     1       6.893   5.010  15.347  0.00  0.00    +0.000 A 
ATOM      6  C   UNL     1       6.081   3.951  15.297  0.00  0.00    +0.000 A 
ATOM      7  O   UNL     1       5.230   3.572  16.308  0.00  0.00    +0.000 OA
ENDROOT
BRANCH   5   8
ATOM      8  O   UNL     1       7.722   5.366  14.304  0.00  0.00    +0.000 OA
ATOM      9  H   UNL     1       8.374   5.981  14.701  0.00  0.00    +0.000 HD
ENDBRANCH   5   8
BRANCH   1  10
ATOM     10  C   UNL     1       4.097   3.934  18.434  0.00  0.00    +0.000 C 
BRANCH  10  12
ATOM     11  C   UNL     1       2.563   2.049  18.545  0.00  0.00    +0.000 C 
ATOM     12  N   UNL     1       2.952   3.252  17.802  0.00  0.00    +0.000 NA
ATOM     13  C   UNL     1       1.808   4.165  17.723  0.00  0.00    +0.000 C 
ENDBRANCH  10  12
ENDBRANCH   1  10
TORSDOF 3
ENDMDL
MODEL 5
REMARK VINA RESULT:      -5.1      2.823      4.721
REMARK  Name = 
REMARK  5 active torsions:
REMARK  status: ('A' for Active; 'I' for Inactive)
REMARK    1  A    between atoms: C_1  and  N_2
REMARK    2  A    between atoms: N_2  and  C_3
REMARK    3  A    between atoms: N_2  and  C_4
REMARK    4  A    between atoms: C_4  and  C_5
REMARK    5  A    between atoms: C_9  and  O_10
REMARK                            x       y       z     vdW  Elec       q    Type
REMARK                         _______ _______ _______ _____ _____    ______ ____
ROOT
ATOM      1  C   UNL     1       4.770   4.743  18.247  0.00  0.00    +0.000 A 
ATOM      2  C   UNL     1       4.385   5.562  17.254  0.00  0.00    +0.000 A 
ATOM      3  C   UNL     1       5.374   5.977  16.245  0.00  0.00    +0.000 A 
ATOM      4  O   UNL     1       5.099   6.732  15.319  0.00  0.00    +0.000 OA
ATOM      5  C   UNL     1       6.743   5.422  16.380  0.00  0.00    +0.000 A 
ATOM      6  C   UNL     1       6.997   4.631  17.425  0.00  0.00    +0.000 A 
ATOM      7  O   UNL     1       6.075   4.285  18.385  0.00  0.00    +0.000 OA
ENDROOT
BRANCH   5   8
ATOM      8  O   UNL     1       7.693   5.734  15.430  0.00  0.00    +0.000 OA
ATOM      9  H   UNL     1       7.503   5.133  14.680  0.00  0.00    +0.000 HD
ENDBRANCH   5   8
BRANCH   1  10
ATOM     10  C   UNL     1       3.810   4.190  19.275  0.00  0.00    +0.000 C 
BRANCH  10  12
ATOM     11  C   UNL     1       2.533   2.410  18.218  0.00  0.00    +0.000 C 
ATOM     12  N   UNL     1       2.507   3.792  18.709  0.00  0.00    +0.000 NA
ATOM     13  C   UNL     1       1.459   3.926  19.725  0.00  0.00    +0.000 C 
ENDBRANCH  10  12
ENDBRANCH   1  10
TORSDOF 3
ENDMDL
MODEL 6
REMARK VINA RESULT:      -5.1      2.850      5.019
REMARK  Name = 
REMARK  5 active torsions:
REMARK  status: ('A' for Active; 'I' for Inactive)
REMARK    1  A    between atoms: C_1  and  N_2
REMARK    2  A    between atoms: N_2  and  C_3
REMARK    3  A    between atoms: N_2  and  C_4
REMARK    4  A    between atoms: C_4  and  C_5
REMARK    5  A    between atoms: C_9  and  O_10
REMARK                            x       y       z     vdW  Elec       q    Type
REMARK                         _______ _______ _______ _____ _____    ______ ____
ROOT
ATOM      1  C   UNL     1       5.021   5.322  18.315  0.00  0.00    +0.000 A 
ATOM      2  C   UNL     1       6.229   4.749  18.450  0.00  0.00    +0.000 A 
ATOM      3  C   UNL     1       7.138   4.716  17.292  0.00  0.00    +0.000 A 
ATOM      4  O   UNL     1       8.250   4.200  17.335  0.00  0.00    +0.000 OA
ATOM      5  C   UNL     1       6.659   5.362  16.044  0.00  0.00    +0.000 A 
ATOM      6  C   UNL     1       5.429   5.879  16.041  0.00  0.00    +0.000 A 
ATOM      7  O   UNL     1       4.573   5.866  17.117  0.00  0.00    +0.000 OA
ENDROOT
BRANCH   5   8
ATOM      8  O   UNL     1       7.493   5.408  14.947  0.00  0.00    +0.000 OA
ATOM      9  H   UNL     1       8.329   4.997  15.250  0.00  0.00    +0.000 HD
ENDBRANCH   5   8
BRANCH   1  10
ATOM     10  C   UNL     1       4.057   5.485  19.467  0.00  0.00    +0.000 C 
BRANCH  10  12
ATOM     11  C   UNL     1       3.103   3.248  19.506  0.00  0.00    +0.000 C 
ATOM     12  N   UNL     1       2.831   4.677  19.327  0.00  0.00    +0.000 NA
ATOM     13  C   UNL     1       1.833   5.108  20.311  0.00  0.00    +0.000 C 
ENDBRANCH  10  12
ENDBRANCH   1  10
TORSDOF 3
ENDMDL
MODEL 7
REMARK VINA RESULT:      -5.1      2.922      4.867
REMARK  Name = 
REMARK  5 active torsions:
REMARK  status: ('A' for Active; 'I' for Inactive)
REMARK    1  A    between atoms: C_1  and  N_2
REMARK    2  A    between atoms: N_2  and  C_3
REMARK    3  A    between atoms: N_2  and  C_4
REMARK    4  A    between atoms: C_4  and  C_5
REMARK    5  A    between atoms: C_9  and  O_10
REMARK                            x       y       z     vdW  Elec       q    Type
REMARK                         _______ _______ _______ _____ _____    ______ ____
ROOT
ATOM      1  C   UNL     1       5.359   4.592  18.590  0.00  0.00    +0.000 A 
ATOM      2  C   UNL     1       4.900   5.138  17.452  0.00  0.00    +0.000 A 
ATOM      3  C   UNL     1       5.722   6.144  16.759  0.00  0.00    +0.000 A 
ATOM      4  O   UNL     1       5.364   6.695  15.723  0.00  0.00    +0.000 OA
ATOM      5  C   UNL     1       7.041   6.464  17.361  0.00  0.00    +0.000 A 
ATOM      6  C   UNL     1       7.367   5.860  18.506  0.00  0.00    +0.000 A 
ATOM      7  O   UNL     1       6.572   4.953  19.166  0.00  0.00    +0.000 OA
ENDROOT
BRANCH   5   8
ATOM      8  O   UNL     1       7.874   7.357  16.722  0.00  0.00    +0.000 OA
ATOM      9  H   UNL     1       8.754   6.926  16.726  0.00  0.00    +0.000 HD
ENDBRANCH   5   8
BRANCH   1  10
ATOM     10  C   UNL     1       4.632   3.488  19.323  0.00  0.00    +0.000 C 
BRANCH  10  12
ATOM     11  C   UNL     1       3.447   1.622  18.309  0.00  0.00    +0.000 C 
ATOM     12  N   UNL     1       3.397   3.048  18.648  0.00  0.00    +0.000 NA
ATOM     13  C   UNL     1       2.238   3.301  19.510  0.00  0.00    +0.000 C 
ENDBRANCH  10  12
ENDBRANCH   1  10
TORSDOF 3
ENDMDL
MODEL 8
REMARK VINA RESULT:      -5.0      1.677      2.186
REMARK  Name = 
REMARK  5 active torsions:
REMARK  status: ('A' for Active; 'I' for Inactive)
REMARK    1  A    between atoms: C_1  and  N_2
REMARK    2  A    between atoms: N_2  and  C_3
REMARK    3  A    between atoms: N_2  and  C_4
REMARK    4  A    between atoms: C_4  and  C_5
REMARK    5  A    between atoms: C_9  and  O_10
REMARK                            x       y       z     vdW  Elec       q    Type
REMARK                         _______ _______ _______ _____ _____    ______ ____
ROOT
ATOM      1  C   UNL     1       3.570   3.373  17.945  0.00  0.00    +0.000 A 
ATOM      2  C   UNL     1       2.377   2.853  17.610  0.00  0.00    +0.000 A 
ATOM      3  C   UNL     1       1.370   2.638  18.662  0.00  0.00    +0.000 A 
ATOM      4  O   UNL     1       0.266   2.156  18.435  0.00  0.00    +0.000 OA
ATOM      5  C   UNL     1       1.739   3.053  20.039  0.00  0.00    +0.000 A 
ATOM      6  C   UNL     1       2.965   3.541  20.237  0.00  0.00    +0.000 A 
ATOM      7  O   UNL     1       3.912   3.697  19.253  0.00  0.00    +0.000 OA
ENDROOT
BRANCH   5   8
ATOM      8  O   UNL     1       0.811   2.926  21.052  0.00  0.00    +0.000 OA
ATOM      9  H   UNL     1       0.726   1.960  21.193  0.00  0.00    +0.000 HD
ENDBRANCH   5   8
BRANCH   1  10
ATOM     10  C   UNL     1       4.632   3.714  16.926  0.00  0.00    +0.000 C 
BRANCH  10  12
ATOM     11  C   UNL     1       6.874   4.639  17.114  0.00  0.00    +0.000 C 
ATOM     12  N   UNL     1       5.441   4.893  17.291  0.00  0.00    +0.000 NA
ATOM     13  C   UNL     1       5.047   6.043  16.471  0.00  0.00    +0.000 C 
ENDBRANCH  10  12
ENDBRANCH   1  10
TORSDOF 3
ENDMDL
MODEL 9
REMARK VINA RESULT:      -5.0      2.658      4.814
REMARK  Name = 
REMARK  5 active torsions:
REMARK  status: ('A' for Active; 'I' for Inactive)
REMARK    1  A    between atoms: C_1  and  N_2
REMARK    2  A    between atoms: N_2  and  C_3
REMARK    3  A    between atoms: N_2  and  C_4
REMARK    4  A    between atoms: C_4  and  C_5
REMARK    5  A    between atoms: C_9  and  O_10
REMARK                            x       y       z     vdW  Elec       q    Type
REMARK                         _______ _______ _______ _____ _____    ______ ____
ROOT
ATOM      1  C   UNL     1       3.588   4.510  18.045  0.00  0.00    +0.000 A 
ATOM      2  C   UNL     1       4.124   4.120  16.877  0.00  0.00    +0.000 A 
ATOM      3  C   UNL     1       5.590   4.077  16.743  0.00  0.00    +0.000 A 
ATOM      4  O   UNL     1       6.151   3.743  15.704  0.00  0.00    +0.000 OA
ATOM      5  C   UNL     1       6.385   4.440  17.942  0.00  0.00    +0.000 A 
ATOM      6  C   UNL     1       5.724   4.826  19.036  0.00  0.00    +0.000 A 
ATOM      7  O   UNL     1       4.356   4.904  19.135  0.00  0.00    +0.000 OA
ENDROOT
BRANCH   5   8
ATOM      8  O   UNL     1       7.761   4.361  17.887  0.00  0.00    +0.000 OA
ATOM      9  H   UNL     1       7.948   3.442  17.601  0.00  0.00    +0.000 HD
ENDBRANCH   5   8
BRANCH   1  10
ATOM     10  C   UNL     1       2.100   4.501  18.309  0.00  0.00    +0.000 C 
BRANCH  10  12
ATOM     11  C   UNL     1       0.980   4.185  20.446  0.00  0.00    +0.000 C 
ATOM     12  N   UNL     1       1.692   3.531  19.342  0.00  0.00    +0.000 NA
ATOM     13  C   UNL     1       0.829   2.504  18.750  0.00  0.00    +0.000 C 
ENDBRANCH  10  12
ENDBRANCH   1  10
TORSDOF 3
ENDMDL
