MODEL 1
REMARK VINA RESULT:      -8.3      0.000      0.000
REMARK  Name = 
REMARK  6 active torsions:
REMARK  status: ('A' for Active; 'I' for Inactive)
REMARK    1  A    between atoms: C_1  and  O_2
REMARK    2  A    between atoms: O_2  and  C_3
REMARK    3  A    between atoms: C_6  and  C_7
REMARK    4  A    between atoms: N_9  and  C_10
REMARK    5  A    between atoms: C_23  and  C_24
REMARK    6  A    between atoms: C_28  and  N_29
REMARK                            x       y       z     vdW  Elec       q    Type
REMARK                         _______ _______ _______ _____ _____    ______ ____
ROOT
ATOM      1  C   UNL     1       0.310  10.047  19.647  0.00  0.00    +0.000 A 
ATOM      2  C   UNL     1       0.557  11.252  20.300  0.00  0.00    +0.000 A 
ATOM      3  C   UNL     1      -0.487  12.184  20.458  0.00  0.00    +0.000 A 
ATOM      4  C   UNL     1      -1.744  11.998  19.858  0.00  0.00    +0.000 A 
ATOM      5  N   UNL     1      -2.825  12.791  20.040  0.00  0.00    +0.000 NA
ATOM      6  C   UNL     1      -3.875  12.643  19.193  0.00  0.00    +0.000 A 
ATOM      7  N   UNL     1      -5.207  12.723  19.626  0.00  0.00    +0.000 N 
ATOM      8  C   UNL     1      -5.460  12.259  20.980  0.00  0.00    +0.000 C 
ATOM      9  C   UNL     1      -6.943  11.994  21.228  0.00  0.00    +0.000 C 
ATOM     10  C   UNL     1      -7.781  13.165  20.744  0.00  0.00    +0.000 C 
ATOM     11  C   UNL     1      -7.601  13.338  19.247  0.00  0.00    +0.000 C 
ATOM     12  C   UNL     1      -6.144  13.491  18.825  0.00  0.00    +0.000 C 
ATOM     13  C   UNL     1      -3.739  11.925  18.032  0.00  0.00    +0.000 A 
ATOM     14  C   UNL     1      -2.979  10.799  18.195  0.00  0.00    +0.000 A 
ATOM     15  C   UNL     1      -3.474   9.542  17.554  0.00  0.00    +0.000 C 
ATOM     16  C   UNL     1      -1.886  10.857  19.051  0.00  0.00    +0.000 A 
ATOM     17  C   UNL     1      -0.935   9.840  19.076  0.00  0.00    +0.000 A 
ENDROOT
BRANCH   1  20
ATOM     18  C   UNL     1       1.984   8.779  18.319  0.00  0.00    +0.000 C 
ATOM     19  O   UNL     1       2.024   9.472  17.311  0.00  0.00    +0.000 OA
ATOM     20  N   UNL     1       1.225   9.003  19.440  0.00  0.00    +0.000 N 
ATOM     21  H   UNL     1       1.307   8.349  20.205  0.00  0.00    +0.000 HD
BRANCH  18  25
ATOM     22  C   UNL     1       4.349   5.183  18.696  0.00  0.00    +0.000 A 
ATOM     23  C   UNL     1       3.322   5.503  19.587  0.00  0.00    +0.000 A 
ATOM     24  C   UNL     1       2.581   6.673  19.434  0.00  0.00    +0.000 A 
ATOM     25  C   UNL     1       2.843   7.558  18.387  0.00  0.00    +0.000 A 
ATOM     26  C   UNL     1       3.869   7.264  17.476  0.00  0.00    +0.000 A 
ATOM     27  C   UNL     1       4.597   6.068  17.638  0.00  0.00    +0.000 A 
BRANCH  27  28
ATOM     28  N   UNL     1       5.617   5.758  16.653  0.00  0.00    +0.000 N 
ATOM     29  O   UNL     1       6.764   6.203  16.844  0.00  0.00    +0.000 OA
ATOM     30  O   UNL     1       5.239   5.166  15.635  0.00  0.00    +0.000 OA
ENDBRANCH  27  28
BRANCH  22  32
ATOM     31  C   UNL     1       4.490   2.968  19.531  0.00  0.00    +0.000 C 
ATOM     32  O   UNL     1       5.083   4.034  18.789  0.00  0.00    +0.000 OA
ENDBRANCH  22  32
ENDBRANCH  18  25
ENDBRANCH   1  20
TORSDOF 4
ENDMDL
MODEL 2
REMARK VINA RESULT:      -8.2      1.883      2.410
REMARK  Name = 
REMARK  6 active torsions:
REMARK  status: ('A' for Active; 'I' for Inactive)
REMARK    1  A    between atoms: C_1  and  O_2
REMARK    2  A    between atoms: O_2  and  C_3
REMARK    3  A    between atoms: C_6  and  C_7
REMARK    4  A    between atoms: N_9  and  C_10
REMARK    5  A    between atoms: C_23  and  C_24
REMARK    6  A    between atoms: C_28  and  N_29
REMARK                            x       y       z     vdW  Elec       q    Type
REMARK                         _______ _______ _______ _____ _____    ______ ____
ROOT
ATOM      1  C   UNL     1       0.437   8.813  21.685  0.00  0.00    +0.000 A 
ATOM      2  C   UNL     1       0.354   9.289  22.991  0.00  0.00    +0.000 A 
ATOM      3  C   UNL     1      -0.453  10.407  23.275  0.00  0.00    +0.000 A 
ATOM      4  C   UNL     1      -1.076  11.148  22.258  0.00  0.00    +0.000 A 
ATOM      5  N   UNL     1      -1.943  12.169  22.449  0.00  0.00    +0.000 NA
ATOM      6  C   UNL     1      -2.250  12.955  21.386  0.00  0.00    +0.000 A 
ATOM      7  N   UNL     1      -3.544  13.448  21.163  0.00  0.00    +0.000 N 
ATOM      8  C   UNL     1      -4.632  12.592  21.608  0.00  0.00    +0.000 C 
ATOM      9  C   UNL     1      -5.965  12.986  20.981  0.00  0.00    +0.000 C 
ATOM     10  C   UNL     1      -6.189  14.483  21.101  0.00  0.00    +0.000 C 
ATOM     11  C   UNL     1      -5.102  15.224  20.344  0.00  0.00    +0.000 C 
ATOM     12  C   UNL     1      -3.692  14.840  20.778  0.00  0.00    +0.000 C 
ATOM     13  C   UNL     1      -1.502  12.897  20.237  0.00  0.00    +0.000 A 
ATOM     14  C   UNL     1      -1.136  11.619  19.911  0.00  0.00    +0.000 A 
ATOM     15  C   UNL     1      -1.260  11.217  18.477  0.00  0.00    +0.000 C 
ATOM     16  C   UNL     1      -0.811  10.742  20.939  0.00  0.00    +0.000 A 
ATOM     17  C   UNL     1      -0.199   9.519  20.677  0.00  0.00    +0.000 A 
ENDROOT
BRANCH   1  20
ATOM     18  C   UNL     1       1.855   7.573  20.066  0.00  0.00    +0.000 C 
ATOM     19  O   UNL     1       1.992   8.430  19.203  0.00  0.00    +0.000 OA
ATOM     20  N   UNL     1       1.162   7.695  21.244  0.00  0.00    +0.000 N 
ATOM     21  H   UNL     1       1.147   6.903  21.869  0.00  0.00    +0.000 HD
BRANCH  18  25
ATOM     22  C   UNL     1       3.546   3.625  19.590  0.00  0.00    +0.000 A 
ATOM     23  C   UNL     1       2.342   3.850  20.262  0.00  0.00    +0.000 A 
ATOM     24  C   UNL     1       1.828   5.138  20.397  0.00  0.00    +0.000 A 
ATOM     25  C   UNL     1       2.500   6.240  19.864  0.00  0.00    +0.000 A 
ATOM     26  C   UNL     1       3.711   6.046  19.183  0.00  0.00    +0.000 A 
ATOM     27  C   UNL     1       4.208   4.734  19.043  0.00  0.00    +0.000 A 
BRANCH  27  28
ATOM     28  N   UNL     1       5.434   4.550  18.289  0.00  0.00    +0.000 N 
ATOM     29  O   UNL     1       6.511   4.582  18.913  0.00  0.00    +0.000 OA
ATOM     30  O   UNL     1       5.321   4.489  17.059  0.00  0.00    +0.000 OA
ENDBRANCH  27  28
BRANCH  22  32
ATOM     31  C   UNL     1       3.435   1.563  18.424  0.00  0.00    +0.000 C 
ATOM     32  O   UNL     1       4.074   2.378  19.407  0.00  0.00    +0.000 OA
ENDBRANCH  22  32
ENDBRANCH  18  25
ENDBRANCH   1  20
TORSDOF 4
ENDMDL
MODEL 3
REMARK VINA RESULT:      -8.1      2.396      3.264
REMARK  Name = 
REMARK  6 active torsions:
REMARK  status: ('A' for Active; 'I' for Inactive)
REMARK    1  A    between atoms: C_1  and  O_2
REMARK    2  A    between atoms: O_2  and  C_3
REMARK    3  A    between atoms: C_6  and  C_7
REMARK    4  A    between atoms: N_9  and  C_10
REMARK    5  A    between atoms: C_23  and  C_24
REMARK    6  A    between atoms: C_28  and  N_29
REMARK                            x       y       z     vdW  Elec       q    Type
REMARK                         _______ _______ _______ _____ _____    ______ ____
ROOT
ATOM      1  C   UNL     1       0.271   8.894  21.608  0.00  0.00    +0.000 A 
ATOM      2  C   UNL     1       0.232   9.372  22.916  0.00  0.00    +0.000 A 
ATOM      3  C   UNL     1      -0.547  10.504  23.220  0.00  0.00    +0.000 A 
ATOM      4  C   UNL     1      -1.186  11.255  22.219  0.00  0.00    +0.000 A 
ATOM      5  N   UNL     1      -2.029  12.291  22.434  0.00  0.00    +0.000 NA
ATOM      6  C   UNL     1      -2.351  13.082  21.378  0.00  0.00    +0.000 A 
ATOM      7  N   UNL     1      -3.642  13.597  21.191  0.00  0.00    +0.000 N 
ATOM      8  C   UNL     1      -4.732  12.760  21.666  0.00  0.00    +0.000 C 
ATOM      9  C   UNL     1      -6.075  13.176  21.074  0.00  0.00    +0.000 C 
ATOM     10  C   UNL     1      -6.270  14.677  21.199  0.00  0.00    +0.000 C 
ATOM     11  C   UNL     1      -5.191  15.399  20.413  0.00  0.00    +0.000 C 
ATOM     12  C   UNL     1      -3.777  14.991  20.808  0.00  0.00    +0.000 C 
ATOM     13  C   UNL     1      -1.636  13.010  20.210  0.00  0.00    +0.000 A 
ATOM     14  C   UNL     1      -1.301  11.726  19.875  0.00  0.00    +0.000 A 
ATOM     15  C   UNL     1      -1.471  11.326  18.445  0.00  0.00    +0.000 C 
ATOM     16  C   UNL     1      -0.964  10.844  20.895  0.00  0.00    +0.000 A 
ATOM     17  C   UNL     1      -0.380   9.611  20.617  0.00  0.00    +0.000 A 
ENDROOT
BRANCH   1  20
ATOM     18  C   UNL     1       1.794   7.691  20.057  0.00  0.00    +0.000 C 
ATOM     19  O   UNL     1       2.103   8.609  19.309  0.00  0.00    +0.000 OA
ATOM     20  N   UNL     1       0.964   7.764  21.148  0.00  0.00    +0.000 N 
ATOM     21  H   UNL     1       0.811   6.922  21.684  0.00  0.00    +0.000 HD
BRANCH  18  25
ATOM     22  C   UNL     1       3.569   3.854  19.164  0.00  0.00    +0.000 A 
ATOM     23  C   UNL     1       3.925   5.022  18.486  0.00  0.00    +0.000 A 
ATOM     24  C   UNL     1       3.330   6.242  18.801  0.00  0.00    +0.000 A 
ATOM     25  C   UNL     1       2.361   6.332  19.802  0.00  0.00    +0.000 A 
ATOM     26  C   UNL     1       1.982   5.176  20.501  0.00  0.00    +0.000 A 
ATOM     27  C   UNL     1       2.607   3.954  20.179  0.00  0.00    +0.000 A 
BRANCH  27  28
ATOM     28  N   UNL     1       2.238   2.781  20.950  0.00  0.00    +0.000 N 
ATOM     29  O   UNL     1       1.228   2.145  20.596  0.00  0.00    +0.000 OA
ATOM     30  O   UNL     1       2.896   2.566  21.976  0.00  0.00    +0.000 OA
ENDBRANCH  27  28
BRANCH  22  32
ATOM     31  C   UNL     1       3.538   1.860  17.881  0.00  0.00    +0.000 C 
ATOM     32  O   UNL     1       4.145   2.641  18.910  0.00  0.00    +0.000 OA
ENDBRANCH  22  32
ENDBRANCH  18  25
ENDBRANCH   1  20
TORSDOF 4
ENDMDL
MODEL 4
REMARK VINA RESULT:      -8.1      1.555      2.251
REMARK  Name = 
REMARK  6 active torsions:
REMARK  status: ('A' for Active; 'I' for Inactive)
REMARK    1  A    between atoms: C_1  and  O_2
REMARK    2  A    between atoms: O_2  and  C_3
REMARK    3  A    between atoms: C_6  and  C_7
REMARK    4  A    between atoms: N_9  and  C_10
REMARK    5  A    between atoms: C_23  and  C_24
REMARK    6  A    between atoms: C_28  and  N_29
REMARK                            x       y       z     vdW  Elec       q    Type
REMARK                         _______ _______ _______ _____ _____    ______ ____
ROOT
ATOM      1  C   UNL     1       0.608   9.624  18.408  0.00  0.00    +0.000 A 
ATOM      2  C   UNL     1       0.776  10.738  19.226  0.00  0.00    +0.000 A 
ATOM      3  C   UNL     1      -0.311  11.604  19.454  0.00  0.00    +0.000 A 
ATOM      4  C   UNL     1      -1.531  11.458  18.772  0.00  0.00    +0.000 A 
ATOM      5  N   UNL     1      -2.650  12.181  19.004  0.00  0.00    +0.000 NA
ATOM      6  C   UNL     1      -3.655  12.112  18.094  0.00  0.00    +0.000 A 
ATOM      7  N   UNL     1      -5.007  12.087  18.467  0.00  0.00    +0.000 N 
ATOM      8  C   UNL     1      -5.301  11.438  19.734  0.00  0.00    +0.000 C 
ATOM      9  C   UNL     1      -6.781  11.091  19.870  0.00  0.00    +0.000 C 
ATOM     10  C   UNL     1      -7.644  12.287  19.505  0.00  0.00    +0.000 C 
ATOM     11  C   UNL     1      -7.405  12.665  18.054  0.00  0.00    +0.000 C 
ATOM     12  C   UNL     1      -5.938  12.923  17.729  0.00  0.00    +0.000 C 
ATOM     13  C   UNL     1      -3.438  11.562  16.857  0.00  0.00    +0.000 A 
ATOM     14  C   UNL     1      -2.641  10.450  16.906  0.00  0.00    +0.000 A 
ATOM     15  C   UNL     1      -3.055   9.275  16.081  0.00  0.00    +0.000 C 
ATOM     16  C   UNL     1      -1.590  10.431  17.816  0.00  0.00    +0.000 A 
ATOM     17  C   UNL     1      -0.601   9.453  17.753  0.00  0.00    +0.000 A 
ENDROOT
BRANCH   1  20
ATOM     18  C   UNL     1       2.145   7.759  18.984  0.00  0.00    +0.000 C 
ATOM     19  O   UNL     1       1.891   7.635  20.175  0.00  0.00    +0.000 OA
ATOM     20  N   UNL     1       1.573   8.649  18.110  0.00  0.00    +0.000 N 
ATOM     21  H   UNL     1       1.874   8.626  17.146  0.00  0.00    +0.000 HD
BRANCH  18  25
ATOM     22  C   UNL     1       5.179   5.342  17.081  0.00  0.00    +0.000 A 
ATOM     23  C   UNL     1       4.956   6.676  16.734  0.00  0.00    +0.000 A 
ATOM     24  C   UNL     1       3.967   7.425  17.370  0.00  0.00    +0.000 A 
ATOM     25  C   UNL     1       3.172   6.863  18.370  0.00  0.00    +0.000 A 
ATOM     26  C   UNL     1       3.372   5.525  18.741  0.00  0.00    +0.000 A 
ATOM     27  C   UNL     1       4.388   4.788  18.098  0.00  0.00    +0.000 A 
BRANCH  27  28
ATOM     28  N   UNL     1       4.614   3.423  18.534  0.00  0.00    +0.000 N 
ATOM     29  O   UNL     1       3.980   2.517  17.962  0.00  0.00    +0.000 OA
ATOM     30  O   UNL     1       5.340   3.273  19.524  0.00  0.00    +0.000 OA
ENDBRANCH  27  28
BRANCH  22  32
ATOM     31  C   UNL     1       5.947   4.212  15.143  0.00  0.00    +0.000 C 
ATOM     32  O   UNL     1       6.156   4.578  16.507  0.00  0.00    +0.000 OA
ENDBRANCH  22  32
ENDBRANCH  18  25
ENDBRANCH   1  20
TORSDOF 4
ENDMDL
MODEL 5
REMARK VINA RESULT:      -8.1      2.529      3.590
REMARK  Name = 
REMARK  6 active torsions:
REMARK  status: ('A' for Active; 'I' for Inactive)
REMARK    1  A    between atoms: C_1  and  O_2
REMARK    2  A    between atoms: O_2  and  C_3
REMARK    3  A    between atoms: C_6  and  C_7
REMARK    4  A    between atoms: N_9  and  C_10
REMARK    5  A    between atoms: C_23  and  C_24
REMARK    6  A    between atoms: C_28  and  N_29
REMARK                            x       y       z     vdW  Elec       q    Type
REMARK                         _______ _______ _______ _____ _____    ______ ____
ROOT
ATOM      1  C   UNL     1       1.575   8.243  20.270  0.00  0.00    +0.000 A 
ATOM      2  C   UNL     1       1.076   7.968  21.541  0.00  0.00    +0.000 A 
ATOM      3  C   UNL     1       0.261   8.916  22.189  0.00  0.00    +0.000 A 
ATOM      4  C   UNL     1       0.043  10.196  21.652  0.00  0.00    +0.000 A 
ATOM      5  N   UNL     1      -0.800  11.125  22.158  0.00  0.00    +0.000 NA
ATOM      6  C   UNL     1      -0.703  12.397  21.693  0.00  0.00    +0.000 A 
ATOM      7  N   UNL     1      -1.829  13.202  21.465  0.00  0.00    +0.000 N 
ATOM      8  C   UNL     1      -3.033  12.502  21.048  0.00  0.00    +0.000 C 
ATOM      9  C   UNL     1      -4.063  13.447  20.437  0.00  0.00    +0.000 C 
ATOM     10  C   UNL     1      -4.260  14.665  21.322  0.00  0.00    +0.000 C 
ATOM     11  C   UNL     1      -2.956  15.434  21.431  0.00  0.00    +0.000 C 
ATOM     12  C   UNL     1      -1.788  14.582  21.915  0.00  0.00    +0.000 C 
ATOM     13  C   UNL     1       0.384  12.787  20.954  0.00  0.00    +0.000 A 
ATOM     14  C   UNL     1       0.792  11.827  20.068  0.00  0.00    +0.000 A 
ATOM     15  C   UNL     1       1.143  12.275  18.686  0.00  0.00    +0.000 C 
ATOM     16  C   UNL     1       0.720  10.495  20.459  0.00  0.00    +0.000 A 
ATOM     17  C   UNL     1       1.340   9.492  19.718  0.00  0.00    +0.000 A 
ENDROOT
BRANCH   1  20
ATOM     18  C   UNL     1       2.600   6.059  19.677  0.00  0.00    +0.000 C 
ATOM     19  O   UNL     1       2.133   5.358  20.566  0.00  0.00    +0.000 OA
ATOM     20  N   UNL     1       2.365   7.396  19.477  0.00  0.00    +0.000 N 
ATOM     21  H   UNL     1       2.810   7.843  18.689  0.00  0.00    +0.000 HD
BRANCH  18  25
ATOM     22  C   UNL     1       5.074   4.155  16.691  0.00  0.00    +0.000 A 
ATOM     23  C   UNL     1       3.697   3.935  16.776  0.00  0.00    +0.000 A 
ATOM     24  C   UNL     1       2.931   4.567  17.754  0.00  0.00    +0.000 A 
ATOM     25  C   UNL     1       3.517   5.436  18.676  0.00  0.00    +0.000 A 
ATOM     26  C   UNL     1       4.898   5.677  18.615  0.00  0.00    +0.000 A 
ATOM     27  C   UNL     1       5.654   5.041  17.609  0.00  0.00    +0.000 A 
BRANCH  27  28
ATOM     28  N   UNL     1       7.071   5.346  17.532  0.00  0.00    +0.000 N 
ATOM     29  O   UNL     1       7.428   6.259  16.765  0.00  0.00    +0.000 OA
ATOM     30  O   UNL     1       7.832   4.595  18.154  0.00  0.00    +0.000 OA
ENDBRANCH  27  28
BRANCH  22  32
ATOM     31  C   UNL     1       5.771   4.147  14.424  0.00  0.00    +0.000 C 
ATOM     32  O   UNL     1       5.861   3.581  15.732  0.00  0.00    +0.000 OA
ENDBRANCH  22  32
ENDBRANCH  18  25
ENDBRANCH   1  20
TORSDOF 4
ENDMDL
MODEL 6
REMARK VINA RESULT:      -8.0      1.657      2.277
REMARK  Name = 
REMARK  6 active torsions:
REMARK  status: ('A' for Active; 'I' for Inactive)
REMARK    1  A    between atoms: C_1  and  O_2
REMARK    2  A    between atoms: O_2  and  C_3
REMARK    3  A    between atoms: C_6  and  C_7
REMARK    4  A    between atoms: N_9  and  C_10
REMARK    5  A    between atoms: C_23  and  C_24
REMARK    6  A    between atoms: C_28  and  N_29
REMARK                            x       y       z     vdW  Elec       q    Type
REMARK                         _______ _______ _______ _____ _____    ______ ____
ROOT
ATOM      1  C   UNL     1       0.873   9.998  18.475  0.00  0.00    +0.000 A 
ATOM      2  C   UNL     1       1.359  11.254  18.833  0.00  0.00    +0.000 A 
ATOM      3  C   UNL     1       0.460  12.256  19.245  0.00  0.00    +0.000 A 
ATOM      4  C   UNL     1      -0.932  12.076  19.178  0.00  0.00    +0.000 A 
ATOM      5  N   UNL     1      -1.858  12.945  19.644  0.00  0.00    +0.000 NA
ATOM      6  C   UNL     1      -3.150  12.763  19.269  0.00  0.00    +0.000 A 
ATOM      7  N   UNL     1      -4.224  12.968  20.148  0.00  0.00    +0.000 N 
ATOM      8  C   UNL     1      -3.960  12.676  21.548  0.00  0.00    +0.000 C 
ATOM      9  C   UNL     1      -5.246  12.527  22.355  0.00  0.00    +0.000 C 
ATOM     10  C   UNL     1      -6.191  13.681  22.070  0.00  0.00    +0.000 C 
ATOM     11  C   UNL     1      -6.580  13.672  20.603  0.00  0.00    +0.000 C 
ATOM     12  C   UNL     1      -5.384  13.692  19.658  0.00  0.00    +0.000 C 
ATOM     13  C   UNL     1      -3.464  11.911  18.241  0.00  0.00    +0.000 A 
ATOM     14  C   UNL     1      -2.711  10.768  18.254  0.00  0.00    +0.000 A 
ATOM     15  C   UNL     1      -3.423   9.477  18.006  0.00  0.00    +0.000 C 
ATOM     16  C   UNL     1      -1.377  10.861  18.633  0.00  0.00    +0.000 A 
ATOM     17  C   UNL     1      -0.497   9.800  18.435  0.00  0.00    +0.000 A 
ENDROOT
BRANCH   1  20
ATOM     18  C   UNL     1       2.154   7.911  18.893  0.00  0.00    +0.000 C 
ATOM     19  O   UNL     1       2.019   7.818  20.106  0.00  0.00    +0.000 OA
ATOM     20  N   UNL     1       1.634   8.886  18.081  0.00  0.00    +0.000 N 
ATOM     21  H   UNL     1       1.817   8.825  17.089  0.00  0.00    +0.000 HD
BRANCH  18  25
ATOM     22  C   UNL     1       4.591   5.066  16.740  0.00  0.00    +0.000 A 
ATOM     23  C   UNL     1       4.820   6.443  16.686  0.00  0.00    +0.000 A 
ATOM     24  C   UNL     1       4.011   7.331  17.393  0.00  0.00    +0.000 A 
ATOM     25  C   UNL     1       2.952   6.870  18.176  0.00  0.00    +0.000 A 
ATOM     26  C   UNL     1       2.697   5.492  18.251  0.00  0.00    +0.000 A 
ATOM     27  C   UNL     1       3.535   4.608  17.541  0.00  0.00    +0.000 A 
BRANCH  27  28
ATOM     28  N   UNL     1       3.287   3.185  17.675  0.00  0.00    +0.000 N 
ATOM     29  O   UNL     1       2.337   2.697  17.035  0.00  0.00    +0.000 OA
ATOM     30  O   UNL     1       3.973   2.582  18.509  0.00  0.00    +0.000 OA
ENDBRANCH  27  28
BRANCH  22  32
ATOM     31  C   UNL     1       6.783   4.379  16.152  0.00  0.00    +0.000 C 
ATOM     32  O   UNL     1       5.374   4.156  16.088  0.00  0.00    +0.000 OA
ENDBRANCH  22  32
ENDBRANCH  18  25
ENDBRANCH   1  20
TORSDOF 4
ENDMDL
MODEL 7
REMARK VINA RESULT:      -8.0      2.278      3.263
REMARK  Name = 
REMARK  6 active torsions:
REMARK  status: ('A' for Active; 'I' for Inactive)
REMARK    1  A    between atoms: C_1  and  O_2
REMARK    2  A    between atoms: O_2  and  C_3
REMARK    3  A    between atoms: C_6  and  C_7
REMARK    4  A    between atoms: N_9  and  C_10
REMARK    5  A    between atoms: C_23  and  C_24
REMARK    6  A    between atoms: C_28  and  N_29
REMARK                            x       y       z     vdW  Elec       q    Type
REMARK                         _______ _______ _______ _____ _____    ______ ____
ROOT
ATOM      1  C   UNL     1       1.047   8.853  20.873  0.00  0.00    +0.000 A 
ATOM      2  C   UNL     1       0.840   8.743  22.246  0.00  0.00    +0.000 A 
ATOM      3  C   UNL     1       0.036   9.692  22.906  0.00  0.00    +0.000 A 
ATOM      4  C   UNL     1      -0.459  10.830  22.249  0.00  0.00    +0.000 A 
ATOM      5  N   UNL     1      -1.315  11.732  22.781  0.00  0.00    +0.000 NA
ATOM      6  C   UNL     1      -1.489  12.910  22.128  0.00  0.00    +0.000 A 
ATOM      7  N   UNL     1      -2.740  13.536  22.027  0.00  0.00    +0.000 N 
ATOM      8  C   UNL     1      -3.889  12.647  21.974  0.00  0.00    +0.000 C 
ATOM      9  C   UNL     1      -5.140  13.355  21.462  0.00  0.00    +0.000 C 
ATOM     10  C   UNL     1      -5.338  14.677  22.185  0.00  0.00    +0.000 C 
ATOM     11  C   UNL     1      -4.159  15.592  21.907  0.00  0.00    +0.000 C 
ATOM     12  C   UNL     1      -2.812  14.968  22.255  0.00  0.00    +0.000 C 
ATOM     13  C   UNL     1      -0.627  13.288  21.130  0.00  0.00    +0.000 A 
ATOM     14  C   UNL     1      -0.260  12.242  20.326  0.00  0.00    +0.000 A 
ATOM     15  C   UNL     1      -0.243  12.487  18.852  0.00  0.00    +0.000 C 
ATOM     16  C   UNL     1      -0.068  10.996  20.910  0.00  0.00    +0.000 A 
ATOM     17  C   UNL     1       0.538   9.957  20.208  0.00  0.00    +0.000 A 
ENDROOT
BRANCH   1  20
ATOM     18  C   UNL     1       2.058   8.119  18.725  0.00  0.00    +0.000 C 
ATOM     19  O   UNL     1       1.731   9.054  18.006  0.00  0.00    +0.000 OA
ATOM     20  N   UNL     1       1.786   7.977  20.063  0.00  0.00    +0.000 N 
ATOM     21  H   UNL     1       2.135   7.154  20.532  0.00  0.00    +0.000 HD
BRANCH  18  25
ATOM     22  C   UNL     1       4.477   5.024  16.927  0.00  0.00    +0.000 A 
ATOM     23  C   UNL     1       4.777   6.382  16.797  0.00  0.00    +0.000 A 
ATOM     24  C   UNL     1       3.972   7.352  17.390  0.00  0.00    +0.000 A 
ATOM     25  C   UNL     1       2.845   6.996  18.132  0.00  0.00    +0.000 A 
ATOM     26  C   UNL     1       2.517   5.640  18.280  0.00  0.00    +0.000 A 
ATOM     27  C   UNL     1       3.352   4.672  17.685  0.00  0.00    +0.000 A 
BRANCH  27  28
ATOM     28  N   UNL     1       3.025   3.274  17.897  0.00  0.00    +0.000 N 
ATOM     29  O   UNL     1       2.176   2.755  17.149  0.00  0.00    +0.000 OA
ATOM     30  O   UNL     1       3.536   2.731  18.884  0.00  0.00    +0.000 OA
ENDBRANCH  27  28
BRANCH  22  32
ATOM     31  C   UNL     1       6.623   4.365  16.163  0.00  0.00    +0.000 C 
ATOM     32  O   UNL     1       5.252   4.036  16.387  0.00  0.00    +0.000 OA
ENDBRANCH  22  32
ENDBRANCH  18  25
ENDBRANCH   1  20
TORSDOF 4
ENDMDL
MODEL 8
REMARK VINA RESULT:      -8.0      2.835      4.156
REMARK  Name = 
REMARK  6 active torsions:
REMARK  status: ('A' for Active; 'I' for Inactive)
REMARK    1  A    between atoms: C_1  and  O_2
REMARK    2  A    between atoms: O_2  and  C_3
REMARK    3  A    between atoms: C_6  and  C_7
REMARK    4  A    between atoms: N_9  and  C_10
REMARK    5  A    between atoms: C_23  and  C_24
REMARK    6  A    between atoms: C_28  and  N_29
REMARK                            x       y       z     vdW  Elec       q    Type
REMARK                         _______ _______ _______ _____ _____    ______ ____
ROOT
ATOM      1  C   UNL     1       0.417   9.761  19.340  0.00  0.00    +0.000 A 
ATOM      2  C   UNL     1      -0.301  10.622  18.513  0.00  0.00    +0.000 A 
ATOM      3  C   UNL     1      -1.051  11.668  19.082  0.00  0.00    +0.000 A 
ATOM      4  C   UNL     1      -1.213  11.794  20.472  0.00  0.00    +0.000 A 
ATOM      5  N   UNL     1      -1.831  12.821  21.100  0.00  0.00    +0.000 NA
ATOM      6  C   UNL     1      -2.143  12.671  22.412  0.00  0.00    +0.000 A 
ATOM      7  N   UNL     1      -2.023  13.719  23.338  0.00  0.00    +0.000 N 
ATOM      8  C   UNL     1      -0.954  14.669  23.081  0.00  0.00    +0.000 C 
ATOM      9  C   UNL     1      -0.630  15.513  24.311  0.00  0.00    +0.000 C 
ATOM     10  C   UNL     1      -1.902  16.073  24.923  0.00  0.00    +0.000 C 
ATOM     11  C   UNL     1      -2.791  14.933  25.385  0.00  0.00    +0.000 C 
ATOM     12  C   UNL     1      -3.105  13.925  24.284  0.00  0.00    +0.000 C 
ATOM     13  C   UNL     1      -2.093  11.435  23.004  0.00  0.00    +0.000 A 
ATOM     14  C   UNL     1      -1.020  10.694  22.589  0.00  0.00    +0.000 A 
ATOM     15  C   UNL     1      -0.256   9.950  23.637  0.00  0.00    +0.000 C 
ATOM     16  C   UNL     1      -0.625  10.792  21.260  0.00  0.00    +0.000 A 
ATOM     17  C   UNL     1       0.289   9.894  20.713  0.00  0.00    +0.000 A 
ENDROOT
BRANCH   1  20
ATOM     18  C   UNL     1       2.245   8.741  18.002  0.00  0.00    +0.000 C 
ATOM     19  O   UNL     1       2.630   9.725  17.383  0.00  0.00    +0.000 OA
ATOM     20  N   UNL     1       1.238   8.698  18.933  0.00  0.00    +0.000 N 
ATOM     21  H   UNL     1       1.041   7.812  19.376  0.00  0.00    +0.000 HD
BRANCH  18  25
ATOM     22  C   UNL     1       4.372   5.064  17.216  0.00  0.00    +0.000 A 
ATOM     23  C   UNL     1       4.891   6.317  16.883  0.00  0.00    +0.000 A 
ATOM     24  C   UNL     1       4.176   7.482  17.152  0.00  0.00    +0.000 A 
ATOM     25  C   UNL     1       2.920   7.430  17.760  0.00  0.00    +0.000 A 
ATOM     26  C   UNL     1       2.372   6.186  18.105  0.00  0.00    +0.000 A 
ATOM     27  C   UNL     1       3.117   5.019  17.840  0.00  0.00    +0.000 A 
BRANCH  27  28
ATOM     28  N   UNL     1       2.555   3.747  18.255  0.00  0.00    +0.000 N 
ATOM     29  O   UNL     1       1.792   3.163  17.464  0.00  0.00    +0.000 OA
ATOM     30  O   UNL     1       2.789   3.393  19.417  0.00  0.00    +0.000 OA
ENDBRANCH  27  28
BRANCH  22  32
ATOM     31  C   UNL     1       5.850   3.845  15.818  0.00  0.00    +0.000 C 
ATOM     32  O   UNL     1       5.049   3.896  16.999  0.00  0.00    +0.000 OA
ENDBRANCH  22  32
ENDBRANCH  18  25
ENDBRANCH   1  20
TORSDOF 4
ENDMDL
MODEL 9
REMARK VINA RESULT:      -8.0      2.579      3.378
REMARK  Name = 
REMARK  6 active torsions:
REMARK  status: ('A' for Active; 'I' for Inactive)
REMARK    1  A    between atoms: C_1  and  O_2
REMARK    2  A    between atoms: O_2  and  C_3
REMARK    3  A    between atoms: C_6  and  C_7
REMARK    4  A    between atoms: N_9  and  C_10
REMARK    5  A    between atoms: C_23  and  C_24
REMARK    6  A    between atoms: C_28  and  N_29
REMARK                            x       y       z     vdW  Elec       q    Type
REMARK                         _______ _______ _______ _____ _____    ______ ____
ROOT
ATOM      1  C   UNL     1       1.181   8.785  20.774  0.00  0.00    +0.000 A 
ATOM      2  C   UNL     1       1.018   8.547  22.137  0.00  0.00    +0.000 A 
ATOM      3  C   UNL     1       0.273   9.452  22.917  0.00  0.00    +0.000 A 
ATOM      4  C   UNL     1      -0.200  10.667  22.394  0.00  0.00    +0.000 A 
ATOM      5  N   UNL     1      -1.002  11.541  23.043  0.00  0.00    +0.000 NA
ATOM      6  C   UNL     1      -1.153  12.783  22.515  0.00  0.00    +0.000 A 
ATOM      7  N   UNL     1      -2.383  13.459  22.523  0.00  0.00    +0.000 N 
ATOM      8  C   UNL     1      -3.566  12.619  22.428  0.00  0.00    +0.000 C 
ATOM      9  C   UNL     1      -4.805  13.418  22.035  0.00  0.00    +0.000 C 
ATOM     10  C   UNL     1      -4.928  14.667  22.891  0.00  0.00    +0.000 C 
ATOM     11  C   UNL     1      -3.725  15.564  22.659  0.00  0.00    +0.000 C 
ATOM     12  C   UNL     1      -2.392  14.863  22.893  0.00  0.00    +0.000 C 
ATOM     13  C   UNL     1      -0.312  13.227  21.527  0.00  0.00    +0.000 A 
ATOM     14  C   UNL     1      -0.014  12.254  20.612  0.00  0.00    +0.000 A 
ATOM     15  C   UNL     1      -0.038  12.643  19.169  0.00  0.00    +0.000 C 
ATOM     16  C   UNL     1       0.151  10.950  21.064  0.00  0.00    +0.000 A 
ATOM     17  C   UNL     1       0.692   9.966  20.240  0.00  0.00    +0.000 A 
ENDROOT
BRANCH   1  20
ATOM     18  C   UNL     1       2.043   6.611  19.936  0.00  0.00    +0.000 C 
ATOM     19  O   UNL     1       1.621   5.864  20.809  0.00  0.00    +0.000 OA
ATOM     20  N   UNL     1       1.858   7.968  19.855  0.00  0.00    +0.000 N 
ATOM     21  H   UNL     1       2.255   8.454  19.064  0.00  0.00    +0.000 HD
BRANCH  18  25
ATOM     22  C   UNL     1       4.237   4.730  16.724  0.00  0.00    +0.000 A 
ATOM     23  C   UNL     1       3.291   4.045  17.489  0.00  0.00    +0.000 A 
ATOM     24  C   UNL     1       2.603   4.684  18.518  0.00  0.00    +0.000 A 
ATOM     25  C   UNL     1       2.840   6.028  18.814  0.00  0.00    +0.000 A 
ATOM     26  C   UNL     1       3.785   6.743  18.064  0.00  0.00    +0.000 A 
ATOM     27  C   UNL     1       4.459   6.083  17.016  0.00  0.00    +0.000 A 
BRANCH  27  28
ATOM     28  N   UNL     1       5.393   6.857  16.219  0.00  0.00    +0.000 N 
ATOM     29  O   UNL     1       5.103   7.069  15.027  0.00  0.00    +0.000 OA
ATOM     30  O   UNL     1       6.466   7.152  16.757  0.00  0.00    +0.000 OA
ENDBRANCH  27  28
BRANCH  22  32
ATOM     31  C   UNL     1       6.247   3.725  15.968  0.00  0.00    +0.000 C 
ATOM     32  O   UNL     1       4.915   4.154  15.687  0.00  0.00    +0.000 OA
ENDBRANCH  22  32
ENDBRANCH  18  25
ENDBRANCH   1  20
TORSDOF 4
ENDMDL
