MODEL 1
REMARK VINA RESULT:      -8.2      0.000      0.000
REMARK  Name = 
REMARK  7 active torsions:
REMARK  status: ('A' for Active; 'I' for Inactive)
REMARK    1  A    between atoms: C_1  and  C_2
REMARK    2  A    between atoms: C_2  and  O_3
REMARK    3  A    between atoms: O_3  and  C_4
REMARK    4  A    between atoms: C_4  and  C_6
REMARK    5  A    between atoms: C_7  and  C_8
REMARK    6  A    between atoms: C_14  and  N_15
REMARK    7  A    between atoms: C_17  and  C_18
REMARK                            x       y       z     vdW  Elec       q    Type
REMARK                         _______ _______ _______ _____ _____    ______ ____
ROOT
ATOM      1  C   UNL     1       4.477   5.780  18.176  0.00  0.00    +0.000 C 
ATOM      2  C   UNL     1       4.534   6.592  17.100  0.00  0.00    +0.000 C 
ATOM      3  C   UNL     1       5.444   6.452  15.910  0.00  0.00    +0.000 C 
ATOM      4  O   UNL     1       3.668   7.675  16.942  0.00  0.00    +0.000 OA
ATOM      5  C   UNL     1       2.795   8.027  17.949  0.00  0.00    +0.000 A 
ATOM      6  N   UNL     1       2.042   9.111  17.671  0.00  0.00    +0.000 NA
ATOM      7  C   UNL     1       1.125   9.500  18.590  0.00  0.00    +0.000 A 
ATOM      8  C   UNL     1       0.970   8.861  19.826  0.00  0.00    +0.000 A 
ATOM      9  C   UNL     1       1.747   7.719  20.088  0.00  0.00    +0.000 A 
ATOM     10  C   UNL     1       2.675   7.290  19.118  0.00  0.00    +0.000 A 
ATOM     11  C   UNL     1       3.402   5.964  19.228  0.00  0.00    +0.000 C 
ATOM     12  C   UNL     1      -0.092   9.310  20.804  0.00  0.00    +0.000 C 
ATOM     13  C   UNL     1      -0.634  10.709  20.538  0.00  0.00    +0.000 C 
ATOM     14  C   UNL     1      -0.959  10.875  19.063  0.00  0.00    +0.000 C 
ATOM     15  C   UNL     1       0.305  10.713  18.224  0.00  0.00    +0.000 C 
ENDROOT
BRANCH  11  16
ATOM     16  C   UNL     1       2.383   4.822  19.125  0.00  0.00    +0.000 A 
ATOM     17  C   UNL     1       1.715   4.587  17.907  0.00  0.00    +0.000 A 
ATOM     18  C   UNL     1       0.759   3.585  17.808  0.00  0.00    +0.000 A 
ATOM     19  C   UNL     1       0.498   2.828  18.934  0.00  0.00    +0.000 A 
ATOM     20  N   UNL     1       1.110   3.012  20.120  0.00  0.00    +0.000 NA
ATOM     21  C   UNL     1       2.035   3.996  20.189  0.00  0.00    +0.000 A 
ATOM     22 CL   UNL     1       2.681   4.160  21.775  0.00  0.00    +0.000 Cl
ENDBRANCH  11  16
BRANCH   9  23
ATOM     23  N   UNL     1       1.718   7.145  21.369  0.00  0.00    +0.000 N 
ATOM     24  H   UNL     1       1.066   6.374  21.481  0.00  0.00    +0.000 HD
ATOM     25  H   UNL     1       2.598   6.941  21.827  0.00  0.00    +0.000 HD
ENDBRANCH   9  23
BRANCH   1  26
ATOM     26  C   UNL     1       5.366   4.595  18.356  0.00  0.00    +0.000 C 
ATOM     27  O   UNL     1       5.188   3.497  17.860  0.00  0.00    +0.000 OA
BRANCH  26  28
ATOM     28  O   UNL     1       6.381   4.915  19.201  0.00  0.00    +0.000 OA
BRANCH  28  30
ATOM     29  C   UNL     1       7.979   6.638  18.677  0.00  0.00    +0.000 C 
ATOM     30  C   UNL     1       7.655   5.161  18.588  0.00  0.00    +0.000 C 
ENDBRANCH  28  30
ENDBRANCH  26  28
ENDBRANCH   1  26
TORSDOF 5
ENDMDL
MODEL 2
REMARK VINA RESULT:      -8.0      1.149      1.463
REMARK  Name = 
REMARK  7 active torsions:
REMARK  status: ('A' for Active; 'I' for Inactive)
REMARK    1  A    between atoms: C_1  and  C_2
REMARK    2  A    between atoms: C_2  and  O_3
REMARK    3  A    between atoms: O_3  and  C_4
REMARK    4  A    between atoms: C_4  and  C_6
REMARK    5  A    between atoms: C_7  and  C_8
REMARK    6  A    between atoms: C_14  and  N_15
REMARK    7  A    between atoms: C_17  and  C_18
REMARK                            x       y       z     vdW  Elec       q    Type
REMARK                         _______ _______ _______ _____ _____    ______ ____
ROOT
ATOM      1  C   UNL     1       4.477   5.805  18.686  0.00  0.00    +0.000 C 
ATOM      2  C   UNL     1       4.405   6.313  17.438  0.00  0.00    +0.000 C 
ATOM      3  C   UNL     1       5.253   5.930  16.256  0.00  0.00    +0.000 C 
ATOM      4  O   UNL     1       3.444   7.259  17.078  0.00  0.00    +0.000 OA
ATOM      5  C   UNL     1       2.605   7.802  18.027  0.00  0.00    +0.000 A 
ATOM      6  N   UNL     1       1.749   8.726  17.542  0.00  0.00    +0.000 NA
ATOM      7  C   UNL     1       0.857   9.278  18.401  0.00  0.00    +0.000 A 
ATOM      8  C   UNL     1       0.828   8.972  19.766  0.00  0.00    +0.000 A 
ATOM      9  C   UNL     1       1.711   7.989  20.248  0.00  0.00    +0.000 A 
ATOM     10  C   UNL     1       2.613   7.386  19.350  0.00  0.00    +0.000 A 
ATOM     11  C   UNL     1       3.453   6.184  19.736  0.00  0.00    +0.000 C 
ATOM     12  C   UNL     1      -0.209   9.588  20.677  0.00  0.00    +0.000 C 
ATOM     13  C   UNL     1      -0.881  10.832  20.108  0.00  0.00    +0.000 C 
ATOM     14  C   UNL     1      -1.303  10.589  18.668  0.00  0.00    +0.000 C 
ATOM     15  C   UNL     1      -0.080  10.299  17.802  0.00  0.00    +0.000 C 
ENDROOT
BRANCH  11  16
ATOM     16  C   UNL     1       2.528   4.991  20.004  0.00  0.00    +0.000 A 
ATOM     17  C   UNL     1       2.492   4.406  21.286  0.00  0.00    +0.000 A 
ATOM     18  C   UNL     1       1.691   3.298  21.534  0.00  0.00    +0.000 A 
ATOM     19  C   UNL     1       0.934   2.802  20.491  0.00  0.00    +0.000 A 
ATOM     20  N   UNL     1       0.932   3.325  19.249  0.00  0.00    +0.000 NA
ATOM     21  C   UNL     1       1.722   4.402  19.034  0.00  0.00    +0.000 A 
ATOM     22 CL   UNL     1       1.672   4.917  17.394  0.00  0.00    +0.000 Cl
ENDBRANCH  11  16
BRANCH   9  23
ATOM     23  N   UNL     1       1.803   7.766  21.631  0.00  0.00    +0.000 N 
ATOM     24  H   UNL     1       0.954   7.423  22.070  0.00  0.00    +0.000 HD
ATOM     25  H   UNL     1       2.615   7.277  21.988  0.00  0.00    +0.000 HD
ENDBRANCH   9  23
BRANCH   1  26
ATOM     26  C   UNL     1       5.471   4.768  19.091  0.00  0.00    +0.000 C 
ATOM     27  O   UNL     1       5.339   3.567  18.939  0.00  0.00    +0.000 OA
BRANCH  26  28
ATOM     28  O   UNL     1       6.525   5.366  19.703  0.00  0.00    +0.000 OA
BRANCH  28  30
ATOM     29  C   UNL     1       8.001   6.879  18.548  0.00  0.00    +0.000 C 
ATOM     30  C   UNL     1       7.737   5.439  18.938  0.00  0.00    +0.000 C 
ENDBRANCH  28  30
ENDBRANCH  26  28
ENDBRANCH   1  26
TORSDOF 5
ENDMDL
MODEL 3
REMARK VINA RESULT:      -7.7      0.857      1.654
REMARK  Name = 
REMARK  7 active torsions:
REMARK  status: ('A' for Active; 'I' for Inactive)
REMARK    1  A    between atoms: C_1  and  C_2
REMARK    2  A    between atoms: C_2  and  O_3
REMARK    3  A    between atoms: O_3  and  C_4
REMARK    4  A    between atoms: C_4  and  C_6
REMARK    5  A    between atoms: C_7  and  C_8
REMARK    6  A    between atoms: C_14  and  N_15
REMARK    7  A    between atoms: C_17  and  C_18
REMARK                            x       y       z     vdW  Elec       q    Type
REMARK                         _______ _______ _______ _____ _____    ______ ____
ROOT
ATOM      1  C   UNL     1       4.514   5.710  18.453  0.00  0.00    +0.000 C 
ATOM      2  C   UNL     1       4.659   6.471  17.348  0.00  0.00    +0.000 C 
ATOM      3  C   UNL     1       5.642   6.263  16.229  0.00  0.00    +0.000 C 
ATOM      4  O   UNL     1       3.825   7.560  17.085  0.00  0.00    +0.000 OA
ATOM      5  C   UNL     1       2.895   7.971  18.014  0.00  0.00    +0.000 A 
ATOM      6  N   UNL     1       2.182   9.054  17.639  0.00  0.00    +0.000 NA
ATOM      7  C   UNL     1       1.214   9.499  18.477  0.00  0.00    +0.000 A 
ATOM      8  C   UNL     1       0.966   8.919  19.726  0.00  0.00    +0.000 A 
ATOM      9  C   UNL     1       1.702   7.777  20.090  0.00  0.00    +0.000 A 
ATOM     10  C   UNL     1       2.683   7.291  19.204  0.00  0.00    +0.000 A 
ATOM     11  C   UNL     1       3.376   5.959  19.421  0.00  0.00    +0.000 C 
ATOM     12  C   UNL     1      -0.150   9.429  20.609  0.00  0.00    +0.000 C 
ATOM     13  C   UNL     1      -0.647  10.823  20.247  0.00  0.00    +0.000 C 
ATOM     14  C   UNL     1      -0.871  10.927  18.747  0.00  0.00    +0.000 C 
ATOM     15  C   UNL     1       0.443  10.707  18.002  0.00  0.00    +0.000 C 
ENDROOT
BRANCH  11  16
ATOM     16  C   UNL     1       2.345   4.831  19.300  0.00  0.00    +0.000 A 
ATOM     17  C   UNL     1       1.702   4.597  18.068  0.00  0.00    +0.000 A 
ATOM     18  C   UNL     1       0.736   3.606  17.953  0.00  0.00    +0.000 A 
ATOM     19  C   UNL     1       0.438   2.861  19.077  0.00  0.00    +0.000 A 
ATOM     20  N   UNL     1       1.024   3.043  20.276  0.00  0.00    +0.000 NA
ATOM     21  C   UNL     1       1.960   4.016  20.361  0.00  0.00    +0.000 A 
ATOM     22 CL   UNL     1       2.571   4.181  21.961  0.00  0.00    +0.000 Cl
ENDBRANCH  11  16
BRANCH   9  23
ATOM     23  N   UNL     1       1.577   7.263  21.390  0.00  0.00    +0.000 N 
ATOM     24  H   UNL     1       1.027   7.830  22.027  0.00  0.00    +0.000 HD
ATOM     25  H   UNL     1       1.357   6.281  21.501  0.00  0.00    +0.000 HD
ENDBRANCH   9  23
BRANCH   1  26
ATOM     26  C   UNL     1       5.367   4.521  18.744  0.00  0.00    +0.000 C 
ATOM     27  O   UNL     1       6.413   4.538  19.368  0.00  0.00    +0.000 OA
BRANCH  26  28
ATOM     28  O   UNL     1       4.824   3.421  18.161  0.00  0.00    +0.000 OA
BRANCH  28  30
ATOM     29  C   UNL     1       3.658   1.323  18.350  0.00  0.00    +0.000 C 
ATOM     30  C   UNL     1       4.604   2.296  19.024  0.00  0.00    +0.000 C 
ENDBRANCH  28  30
ENDBRANCH  26  28
ENDBRANCH   1  26
TORSDOF 5
ENDMDL
MODEL 4
REMARK VINA RESULT:      -7.6      1.369      2.149
REMARK  Name = 
REMARK  7 active torsions:
REMARK  status: ('A' for Active; 'I' for Inactive)
REMARK    1  A    between atoms: C_1  and  C_2
REMARK    2  A    between atoms: C_2  and  O_3
REMARK    3  A    between atoms: O_3  and  C_4
REMARK    4  A    between atoms: C_4  and  C_6
REMARK    5  A    between atoms: C_7  and  C_8
REMARK    6  A    between atoms: C_14  and  N_15
REMARK    7  A    between atoms: C_17  and  C_18
REMARK                            x       y       z     vdW  Elec       q    Type
REMARK                         _______ _______ _______ _____ _____    ______ ____
ROOT
ATOM      1  C   UNL     1       4.357   5.830  18.659  0.00  0.00    +0.000 C 
ATOM      2  C   UNL     1       4.296   6.364  17.422  0.00  0.00    +0.000 C 
ATOM      3  C   UNL     1       5.132   5.983  16.230  0.00  0.00    +0.000 C 
ATOM      4  O   UNL     1       3.358   7.341  17.082  0.00  0.00    +0.000 OA
ATOM      5  C   UNL     1       2.534   7.885  18.043  0.00  0.00    +0.000 A 
ATOM      6  N   UNL     1       1.701   8.840  17.578  0.00  0.00    +0.000 NA
ATOM      7  C   UNL     1       0.825   9.397  18.449  0.00  0.00    +0.000 A 
ATOM      8  C   UNL     1       0.790   9.065  19.808  0.00  0.00    +0.000 A 
ATOM      9  C   UNL     1       1.649   8.052  20.269  0.00  0.00    +0.000 A 
ATOM     10  C   UNL     1       2.535   7.444  19.358  0.00  0.00    +0.000 A 
ATOM     11  C   UNL     1       3.344   6.214  19.719  0.00  0.00    +0.000 C 
ATOM     12  C   UNL     1      -0.230   9.689  20.732  0.00  0.00    +0.000 C 
ATOM     13  C   UNL     1      -0.871  10.960  20.189  0.00  0.00    +0.000 C 
ATOM     14  C   UNL     1      -1.302  10.756  18.746  0.00  0.00    +0.000 C 
ATOM     15  C   UNL     1      -0.088  10.452  17.872  0.00  0.00    +0.000 C 
ENDROOT
BRANCH  11  16
ATOM     16  C   UNL     1       2.391   5.039  19.965  0.00  0.00    +0.000 A 
ATOM     17  C   UNL     1       2.329   4.443  21.240  0.00  0.00    +0.000 A 
ATOM     18  C   UNL     1       1.502   3.350  21.469  0.00  0.00    +0.000 A 
ATOM     19  C   UNL     1       0.744   2.882  20.414  0.00  0.00    +0.000 A 
ATOM     20  N   UNL     1       0.766   3.417  19.178  0.00  0.00    +0.000 NA
ATOM     21  C   UNL     1       1.581   4.478  18.982  0.00  0.00    +0.000 A 
ATOM     22 CL   UNL     1       1.559   5.012  17.347  0.00  0.00    +0.000 Cl
ENDBRANCH  11  16
BRANCH   9  23
ATOM     23  N   UNL     1       1.738   7.799  21.647  0.00  0.00    +0.000 N 
ATOM     24  H   UNL     1       0.944   7.309  22.048  0.00  0.00    +0.000 HD
ATOM     25  H   UNL     1       2.608   7.436  22.016  0.00  0.00    +0.000 HD
ENDBRANCH   9  23
BRANCH   1  26
ATOM     26  C   UNL     1       5.326   4.761  19.042  0.00  0.00    +0.000 C 
ATOM     27  O   UNL     1       6.304   4.916  19.751  0.00  0.00    +0.000 OA
BRANCH  26  28
ATOM     28  O   UNL     1       4.977   3.597  18.436  0.00  0.00    +0.000 OA
BRANCH  28  30
ATOM     29  C   UNL     1       3.729   1.541  18.557  0.00  0.00    +0.000 C 
ATOM     30  C   UNL     1       4.607   2.520  19.309  0.00  0.00    +0.000 C 
ENDBRANCH  28  30
ENDBRANCH  26  28
ENDBRANCH   1  26
TORSDOF 5
ENDMDL
MODEL 5
REMARK VINA RESULT:      -7.2      0.803      1.311
REMARK  Name = 
REMARK  7 active torsions:
REMARK  status: ('A' for Active; 'I' for Inactive)
REMARK    1  A    between atoms: C_1  and  C_2
REMARK    2  A    between atoms: C_2  and  O_3
REMARK    3  A    between atoms: O_3  and  C_4
REMARK    4  A    between atoms: C_4  and  C_6
REMARK    5  A    between atoms: C_7  and  C_8
REMARK    6  A    between atoms: C_14  and  N_15
REMARK    7  A    between atoms: C_17  and  C_18
REMARK                            x       y       z     vdW  Elec       q    Type
REMARK                         _______ _______ _______ _____ _____    ______ ____
ROOT
ATOM      1  C   UNL     1       4.436   6.026  18.033  0.00  0.00    +0.000 C 
ATOM      2  C   UNL     1       4.433   6.881  16.990  0.00  0.00    +0.000 C 
ATOM      3  C   UNL     1       5.311   6.822  15.769  0.00  0.00    +0.000 C 
ATOM      4  O   UNL     1       3.525   7.938  16.900  0.00  0.00    +0.000 OA
ATOM      5  C   UNL     1       2.671   8.217  17.945  0.00  0.00    +0.000 A 
ATOM      6  N   UNL     1       1.872   9.284  17.734  0.00  0.00    +0.000 NA
ATOM      7  C   UNL     1       0.970   9.603  18.693  0.00  0.00    +0.000 A 
ATOM      8  C   UNL     1       0.875   8.910  19.906  0.00  0.00    +0.000 A 
ATOM      9  C   UNL     1       1.699   7.787  20.099  0.00  0.00    +0.000 A 
ATOM     10  C   UNL     1       2.612   7.431  19.087  0.00  0.00    +0.000 A 
ATOM     11  C   UNL     1       3.387   6.129  19.121  0.00  0.00    +0.000 C 
ATOM     12  C   UNL     1      -0.172   9.281  20.931  0.00  0.00    +0.000 C 
ATOM     13  C   UNL     1      -0.771  10.669  20.738  0.00  0.00    +0.000 C 
ATOM     14  C   UNL     1      -1.146  10.882  19.281  0.00  0.00    +0.000 C 
ATOM     15  C   UNL     1       0.098  10.799  18.400  0.00  0.00    +0.000 C 
ENDROOT
BRANCH  11  16
ATOM     16  C   UNL     1       2.407   4.956  19.001  0.00  0.00    +0.000 A 
ATOM     17  C   UNL     1       1.747   4.717  17.780  0.00  0.00    +0.000 A 
ATOM     18  C   UNL     1       0.824   3.685  17.666  0.00  0.00    +0.000 A 
ATOM     19  C   UNL     1       0.588   2.904  18.780  0.00  0.00    +0.000 A 
ATOM     20  N   UNL     1       1.194   3.090  19.969  0.00  0.00    +0.000 NA
ATOM     21  C   UNL     1       2.086   4.103  20.053  0.00  0.00    +0.000 A 
ATOM     22 CL   UNL     1       2.727   4.265  21.641  0.00  0.00    +0.000 Cl
ENDBRANCH  11  16
BRANCH   9  23
ATOM     23  N   UNL     1       1.728   7.162  21.356  0.00  0.00    +0.000 N 
ATOM     24  H   UNL     1       2.125   6.227  21.363  0.00  0.00    +0.000 HD
ATOM     25  H   UNL     1       2.051   7.697  22.153  0.00  0.00    +0.000 HD
ENDBRANCH   9  23
BRANCH   1  26
ATOM     26  C   UNL     1       5.372   4.868  18.139  0.00  0.00    +0.000 C 
ATOM     27  O   UNL     1       6.196   4.705  19.021  0.00  0.00    +0.000 OA
BRANCH  26  28
ATOM     28  O   UNL     1       5.199   4.047  17.071  0.00  0.00    +0.000 OA
BRANCH  28  30
ATOM     29  C   UNL     1       5.980   3.713  14.818  0.00  0.00    +0.000 C 
ATOM     30  C   UNL     1       6.368   3.789  16.280  0.00  0.00    +0.000 C 
ENDBRANCH  28  30
ENDBRANCH  26  28
ENDBRANCH   1  26
TORSDOF 5
ENDMDL
MODEL 6
REMARK VINA RESULT:      -7.0      3.827      8.106
REMARK  Name = 
REMARK  7 active torsions:
REMARK  status: ('A' for Active; 'I' for Inactive)
REMARK    1  A    between atoms: C_1  and  C_2
REMARK    2  A    between atoms: C_2  and  O_3
REMARK    3  A    between atoms: O_3  and  C_4
REMARK    4  A    between atoms: C_4  and  C_6
REMARK    5  A    between atoms: C_7  and  C_8
REMARK    6  A    between atoms: C_14  and  N_15
REMARK    7  A    between atoms: C_17  and  C_18
REMARK                            x       y       z     vdW  Elec       q    Type
REMARK                         _______ _______ _______ _____ _____    ______ ____
ROOT
ATOM      1  C   UNL     1      -0.456  11.304  21.209  0.00  0.00    +0.000 C 
ATOM      2  C   UNL     1      -0.473  10.335  22.147  0.00  0.00    +0.000 C 
ATOM      3  C   UNL     1      -1.155  10.387  23.487  0.00  0.00    +0.000 C 
ATOM      4  O   UNL     1       0.126   9.091  21.939  0.00  0.00    +0.000 OA
ATOM      5  C   UNL     1       0.867   8.852  20.802  0.00  0.00    +0.000 A 
ATOM      6  N   UNL     1       1.412   7.619  20.749  0.00  0.00    +0.000 NA
ATOM      7  C   UNL     1       2.121   7.285  19.643  0.00  0.00    +0.000 A 
ATOM      8  C   UNL     1       2.353   8.178  18.592  0.00  0.00    +0.000 A 
ATOM      9  C   UNL     1       1.757   9.451  18.653  0.00  0.00    +0.000 A 
ATOM     10  C   UNL     1       0.989   9.787  19.785  0.00  0.00    +0.000 A 
ATOM     11  C   UNL     1       0.148  11.048  19.843  0.00  0.00    +0.000 C 
ATOM     12  C   UNL     1       3.120   7.747  17.362  0.00  0.00    +0.000 C 
ATOM     13  C   UNL     1       3.952   6.485  17.556  0.00  0.00    +0.000 C 
ATOM     14  C   UNL     1       3.127   5.413  18.250  0.00  0.00    +0.000 C 
ATOM     15  C   UNL     1       2.701   5.891  19.635  0.00  0.00    +0.000 C 
ENDROOT
BRANCH  11  16
ATOM     16  C   UNL     1      -0.969  10.957  18.797  0.00  0.00    +0.000 A 
ATOM     17  C   UNL     1      -1.716   9.769  18.672  0.00  0.00    +0.000 A 
ATOM     18  C   UNL     1      -2.703   9.655  17.701  0.00  0.00    +0.000 A 
ATOM     19  C   UNL     1      -2.929  10.742  16.879  0.00  0.00    +0.000 A 
ATOM     20  N   UNL     1      -2.244  11.900  16.960  0.00  0.00    +0.000 NA
ATOM     21  C   UNL     1      -1.288  11.983  17.912  0.00  0.00    +0.000 A 
ATOM     22 CL   UNL     1      -0.452  13.485  17.853  0.00  0.00    +0.000 Cl
ENDBRANCH  11  16
BRANCH   9  23
ATOM     23  N   UNL     1       2.088  10.414  17.687  0.00  0.00    +0.000 N 
ATOM     24  H   UNL     1       3.032  10.348  17.318  0.00  0.00    +0.000 HD
ATOM     25  H   UNL     1       1.424  10.602  16.946  0.00  0.00    +0.000 HD
ENDBRANCH   9  23
BRANCH   1  26
ATOM     26  C   UNL     1      -1.116  12.630  21.389  0.00  0.00    +0.000 C 
ATOM     27  O   UNL     1      -0.538  13.694  21.523  0.00  0.00    +0.000 OA
BRANCH  26  28
ATOM     28  O   UNL     1      -2.463  12.463  21.434  0.00  0.00    +0.000 OA
BRANCH  28  30
ATOM     29  C   UNL     1      -4.354  12.599  19.949  0.00  0.00    +0.000 C 
ATOM     30  C   UNL     1      -3.236  13.364  20.628  0.00  0.00    +0.000 C 
ENDBRANCH  28  30
ENDBRANCH  26  28
ENDBRANCH   1  26
TORSDOF 5
ENDMDL
MODEL 7
REMARK VINA RESULT:      -6.7      3.826      7.768
REMARK  Name = 
REMARK  7 active torsions:
REMARK  status: ('A' for Active; 'I' for Inactive)
REMARK    1  A    between atoms: C_1  and  C_2
REMARK    2  A    between atoms: C_2  and  O_3
REMARK    3  A    between atoms: O_3  and  C_4
REMARK    4  A    between atoms: C_4  and  C_6
REMARK    5  A    between atoms: C_7  and  C_8
REMARK    6  A    between atoms: C_14  and  N_15
REMARK    7  A    between atoms: C_17  and  C_18
REMARK                            x       y       z     vdW  Elec       q    Type
REMARK                         _______ _______ _______ _____ _____    ______ ____
ROOT
ATOM      1  C   UNL     1      -0.417  11.247  21.218  0.00  0.00    +0.000 C 
ATOM      2  C   UNL     1      -0.423  10.266  22.144  0.00  0.00    +0.000 C 
ATOM      3  C   UNL     1      -1.096  10.296  23.489  0.00  0.00    +0.000 C 
ATOM      4  O   UNL     1       0.180   9.027  21.914  0.00  0.00    +0.000 OA
ATOM      5  C   UNL     1       0.914   8.807  20.769  0.00  0.00    +0.000 A 
ATOM      6  N   UNL     1       1.465   7.577  20.696  0.00  0.00    +0.000 NA
ATOM      7  C   UNL     1       2.167   7.262  19.581  0.00  0.00    +0.000 A 
ATOM      8  C   UNL     1       2.388   8.170  18.539  0.00  0.00    +0.000 A 
ATOM      9  C   UNL     1       1.786   9.438  18.622  0.00  0.00    +0.000 A 
ATOM     10  C   UNL     1       1.024   9.756  19.764  0.00  0.00    +0.000 A 
ATOM     11  C   UNL     1       0.178  11.012  19.845  0.00  0.00    +0.000 C 
ATOM     12  C   UNL     1       3.148   7.759  17.299  0.00  0.00    +0.000 C 
ATOM     13  C   UNL     1       3.987   6.499  17.470  0.00  0.00    +0.000 C 
ATOM     14  C   UNL     1       3.173   5.414  18.155  0.00  0.00    +0.000 C 
ATOM     15  C   UNL     1       2.754   5.871  19.549  0.00  0.00    +0.000 C 
ENDROOT
BRANCH  11  16
ATOM     16  C   UNL     1      -0.946  10.929  18.806  0.00  0.00    +0.000 A 
ATOM     17  C   UNL     1      -1.696   9.744  18.678  0.00  0.00    +0.000 A 
ATOM     18  C   UNL     1      -2.690   9.638  17.713  0.00  0.00    +0.000 A 
ATOM     19  C   UNL     1      -2.919  10.730  16.899  0.00  0.00    +0.000 A 
ATOM     20  N   UNL     1      -2.231  11.886  16.982  0.00  0.00    +0.000 NA
ATOM     21  C   UNL     1      -1.268  11.961  17.928  0.00  0.00    +0.000 A 
ATOM     22 CL   UNL     1      -0.429  13.462  17.873  0.00  0.00    +0.000 Cl
ENDBRANCH  11  16
BRANCH   9  23
ATOM     23  N   UNL     1       2.106  10.416  17.667  0.00  0.00    +0.000 N 
ATOM     24  H   UNL     1       2.360  10.058  16.751  0.00  0.00    +0.000 HD
ATOM     25  H   UNL     1       1.501  11.224  17.582  0.00  0.00    +0.000 HD
ENDBRANCH   9  23
BRANCH   1  26
ATOM     26  C   UNL     1      -1.083  12.567  21.421  0.00  0.00    +0.000 C 
ATOM     27  O   UNL     1      -2.211  12.852  21.060  0.00  0.00    +0.000 OA
BRANCH  26  28
ATOM     28  O   UNL     1      -0.218  13.421  22.026  0.00  0.00    +0.000 OA
BRANCH  28  30
ATOM     29  C   UNL     1       1.766  14.294  20.977  0.00  0.00    +0.000 C 
ATOM     30  C   UNL     1       0.282  14.492  21.212  0.00  0.00    +0.000 C 
ENDBRANCH  28  30
ENDBRANCH  26  28
ENDBRANCH   1  26
TORSDOF 5
ENDMDL
MODEL 8
REMARK VINA RESULT:      -6.2      5.096      7.811
REMARK  Name = 
REMARK  7 active torsions:
REMARK  status: ('A' for Active; 'I' for Inactive)
REMARK    1  A    between atoms: C_1  and  C_2
REMARK    2  A    between atoms: C_2  and  O_3
REMARK    3  A    between atoms: O_3  and  C_4
REMARK    4  A    between atoms: C_4  and  C_6
REMARK    5  A    between atoms: C_7  and  C_8
REMARK    6  A    between atoms: C_14  and  N_15
REMARK    7  A    between atoms: C_17  and  C_18
REMARK                            x       y       z     vdW  Elec       q    Type
REMARK                         _______ _______ _______ _____ _____    ______ ____
ROOT
ATOM      1  C   UNL     1      -1.876  11.306  18.493  0.00  0.00    +0.000 C 
ATOM      2  C   UNL     1      -2.637  12.244  19.093  0.00  0.00    +0.000 C 
ATOM      3  C   UNL     1      -4.136  12.244  19.224  0.00  0.00    +0.000 C 
ATOM      4  O   UNL     1      -2.080  13.347  19.743  0.00  0.00    +0.000 OA
ATOM      5  C   UNL     1      -0.723  13.580  19.688  0.00  0.00    +0.000 A 
ATOM      6  N   UNL     1      -0.329  14.698  20.334  0.00  0.00    +0.000 NA
ATOM      7  C   UNL     1       0.997  14.979  20.366  0.00  0.00    +0.000 A 
ATOM      8  C   UNL     1       1.955  14.194  19.717  0.00  0.00    +0.000 A 
ATOM      9  C   UNL     1       1.529  13.020  19.069  0.00  0.00    +0.000 A 
ATOM     10  C   UNL     1       0.156  12.706  19.066  0.00  0.00    +0.000 A 
ATOM     11  C   UNL     1      -0.364  11.369  18.574  0.00  0.00    +0.000 C 
ATOM     12  C   UNL     1       3.426  14.528  19.812  0.00  0.00    +0.000 C 
ATOM     13  C   UNL     1       3.714  15.955  20.265  0.00  0.00    +0.000 C 
ATOM     14  C   UNL     1       2.861  16.305  21.473  0.00  0.00    +0.000 C 
ATOM     15  C   UNL     1       1.380  16.236  21.109  0.00  0.00    +0.000 C 
ENDROOT
BRANCH  11  16
ATOM     16  C   UNL     1       0.146  10.259  19.500  0.00  0.00    +0.000 A 
ATOM     17  C   UNL     1      -0.245  10.240  20.853  0.00  0.00    +0.000 A 
ATOM     18  C   UNL     1       0.242   9.266  21.715  0.00  0.00    +0.000 A 
ATOM     19  C   UNL     1       1.107   8.321  21.200  0.00  0.00    +0.000 A 
ATOM     20  N   UNL     1       1.511   8.295  19.915  0.00  0.00    +0.000 NA
ATOM     21  C   UNL     1       1.024   9.256  19.097  0.00  0.00    +0.000 A 
ATOM     22 CL   UNL     1       1.675   9.140  17.510  0.00  0.00    +0.000 Cl
ENDBRANCH  11  16
BRANCH   9  23
ATOM     23  N   UNL     1       2.443  12.292  18.290  0.00  0.00    +0.000 N 
ATOM     24  H   UNL     1       2.027  11.620  17.653  0.00  0.00    +0.000 HD
ATOM     25  H   UNL     1       3.201  12.793  17.842  0.00  0.00    +0.000 HD
ENDBRANCH   9  23
BRANCH   1  26
ATOM     26  C   UNL     1      -2.442  10.100  17.821  0.00  0.00    +0.000 C 
ATOM     27  O   UNL     1      -3.138   9.256  18.356  0.00  0.00    +0.000 OA
BRANCH  26  28
ATOM     28  O   UNL     1      -2.019  10.060  16.532  0.00  0.00    +0.000 OA
BRANCH  28  30
ATOM     29  C   UNL     1      -3.107  10.006  14.384  0.00  0.00    +0.000 C 
ATOM     30  C   UNL     1      -2.771  10.848  15.598  0.00  0.00    +0.000 C 
ENDBRANCH  28  30
ENDBRANCH  26  28
ENDBRANCH   1  26
TORSDOF 5
ENDMDL
MODEL 9
REMARK VINA RESULT:      -6.2      2.354      4.353
REMARK  Name = 
REMARK  7 active torsions:
REMARK  status: ('A' for Active; 'I' for Inactive)
REMARK    1  A    between atoms: C_1  and  C_2
REMARK    2  A    between atoms: C_2  and  O_3
REMARK    3  A    between atoms: O_3  and  C_4
REMARK    4  A    between atoms: C_4  and  C_6
REMARK    5  A    between atoms: C_7  and  C_8
REMARK    6  A    between atoms: C_14  and  N_15
REMARK    7  A    between atoms: C_17  and  C_18
REMARK                            x       y       z     vdW  Elec       q    Type
REMARK                         _______ _______ _______ _____ _____    ______ ____
ROOT
ATOM      1  C   UNL     1       3.317   3.951  18.232  0.00  0.00    +0.000 C 
ATOM      2  C   UNL     1       2.748   3.564  19.393  0.00  0.00    +0.000 C 
ATOM      3  C   UNL     1       2.681   2.165  19.944  0.00  0.00    +0.000 C 
ATOM      4  O   UNL     1       2.182   4.479  20.282  0.00  0.00    +0.000 OA
ATOM      5  C   UNL     1       2.075   5.810  19.943  0.00  0.00    +0.000 A 
ATOM      6  N   UNL     1       1.478   6.572  20.884  0.00  0.00    +0.000 NA
ATOM      7  C   UNL     1       1.372   7.903  20.650  0.00  0.00    +0.000 A 
ATOM      8  C   UNL     1       1.802   8.501  19.461  0.00  0.00    +0.000 A 
ATOM      9  C   UNL     1       2.443   7.696  18.502  0.00  0.00    +0.000 A 
ATOM     10  C   UNL     1       2.587   6.319  18.759  0.00  0.00    +0.000 A 
ATOM     11  C   UNL     1       3.439   5.420  17.883  0.00  0.00    +0.000 C 
ATOM     12  C   UNL     1       1.695   9.996  19.262  0.00  0.00    +0.000 C 
ATOM     13  C   UNL     1       0.726  10.685  20.215  0.00  0.00    +0.000 C 
ATOM     14  C   UNL     1       0.961  10.208  21.639  0.00  0.00    +0.000 C 
ATOM     15  C   UNL     1       0.704   8.706  21.740  0.00  0.00    +0.000 C 
ENDROOT
BRANCH  11  16
ATOM     16  C   UNL     1       4.905   5.853  17.992  0.00  0.00    +0.000 A 
ATOM     17  C   UNL     1       5.635   5.566  19.162  0.00  0.00    +0.000 A 
ATOM     18  C   UNL     1       6.952   5.988  19.295  0.00  0.00    +0.000 A 
ATOM     19  C   UNL     1       7.515   6.684  18.243  0.00  0.00    +0.000 A 
ATOM     20  N   UNL     1       6.861   6.983  17.104  0.00  0.00    +0.000 NA
ATOM     21  C   UNL     1       5.580   6.562  17.002  0.00  0.00    +0.000 A 
ATOM     22 CL   UNL     1       4.851   7.071  15.530  0.00  0.00    +0.000 Cl
ENDBRANCH  11  16
BRANCH   9  23
ATOM     23  N   UNL     1       2.754   8.237  17.245  0.00  0.00    +0.000 N 
ATOM     24  H   UNL     1       3.716   8.112  16.948  0.00  0.00    +0.000 HD
ATOM     25  H   UNL     1       2.115   8.071  16.477  0.00  0.00    +0.000 HD
ENDBRANCH   9  23
BRANCH   1  26
ATOM     26  C   UNL     1       3.961   3.000  17.279  0.00  0.00    +0.000 C 
ATOM     27  O   UNL     1       4.132   1.811  17.477  0.00  0.00    +0.000 OA
BRANCH  26  28
ATOM     28  O   UNL     1       4.373   3.675  16.176  0.00  0.00    +0.000 OA
BRANCH  28  30
ATOM     29  C   UNL     1       5.893   3.992  14.335  0.00  0.00    +0.000 C 
ATOM     30  C   UNL     1       5.682   3.344  15.689  0.00  0.00    +0.000 C 
ENDBRANCH  28  30
ENDBRANCH  26  28
ENDBRANCH   1  26
TORSDOF 5
ENDMDL
