MODEL 1
REMARK VINA RESULT:      -8.8      0.000      0.000
REMARK  Name = 
REMARK  5 active torsions:
REMARK  status: ('A' for Active; 'I' for Inactive)
REMARK    1  A    between atoms: C_1  and  C_2
REMARK    2  A    between atoms: N_3  and  C_4
REMARK    3  A    between atoms: C_4  and  C_5
REMARK    4  A    between atoms: N_17  and  C_18
REMARK    5  A    between atoms: C_18  and  C_19
REMARK                            x       y       z     vdW  Elec       q    Type
REMARK                         _______ _______ _______ _____ _____    ______ ____
ROOT
ATOM      1  C   UNL     1       1.151   8.425  21.560  0.00  0.00    +0.000 C 
ATOM      2  C   UNL     1       1.519   8.549  20.116  0.00  0.00    +0.000 A 
ATOM      3  N   UNL     1       2.017   7.594  19.298  0.00  0.00    +0.000 N 
ATOM      4  C   UNL     1       2.212   8.113  18.029  0.00  0.00    +0.000 A 
ATOM      5  C   UNL     1       1.898   9.437  18.089  0.00  0.00    +0.000 A 
ATOM      6  N   UNL     1       1.444   9.679  19.376  0.00  0.00    +0.000 N 
ENDROOT
BRANCH   3   7
ATOM      7  C   UNL     1       2.293   6.198  19.680  0.00  0.00    +0.000 C 
BRANCH   7   8
ATOM      8  C   UNL     1       3.192   5.495  18.679  0.00  0.00    +0.000 A 
ATOM      9  C   UNL     1       2.693   4.393  17.986  0.00  0.00    +0.000 A 
ATOM     10  C   UNL     1       3.482   3.802  17.005  0.00  0.00    +0.000 A 
ATOM     11  C   UNL     1       4.746   4.325  16.721  0.00  0.00    +0.000 A 
ATOM     12  C   UNL     1       5.560   3.764  15.721  0.00  0.00    +0.000 A 
ATOM     13  C   UNL     1       6.809   4.312  15.444  0.00  0.00    +0.000 A 
ATOM     14  C   UNL     1       7.247   5.417  16.166  0.00  0.00    +0.000 A 
ATOM     15  C   UNL     1       6.434   5.967  17.163  0.00  0.00    +0.000 A 
ATOM     16  C   UNL     1       5.181   5.446  17.460  0.00  0.00    +0.000 A 
ATOM     17  N   UNL     1       4.420   6.021  18.419  0.00  0.00    +0.000 NA
ENDBRANCH   7   8
ENDBRANCH   3   7
BRANCH   6  18
ATOM     18  C   UNL     1       0.914  10.968  19.845  0.00  0.00    +0.000 C 
BRANCH  18  19
ATOM     19  C   UNL     1      -0.500  11.199  19.364  0.00  0.00    +0.000 A 
ATOM     20  C   UNL     1      -1.382  11.917  20.186  0.00  0.00    +0.000 A 
ATOM     21  C   UNL     1      -2.705  12.145  19.791  0.00  0.00    +0.000 A 
ATOM     22  C   UNL     1      -3.178  11.671  18.558  0.00  0.00    +0.000 A 
ATOM     23  C   UNL     1      -4.502  11.882  18.142  0.00  0.00    +0.000 A 
ATOM     24  C   UNL     1      -4.945  11.409  16.906  0.00  0.00    +0.000 A 
ATOM     25  C   UNL     1      -4.072  10.720  16.069  0.00  0.00    +0.000 A 
ATOM     26  C   UNL     1      -2.757  10.496  16.471  0.00  0.00    +0.000 A 
ATOM     27  C   UNL     1      -2.299  10.962  17.713  0.00  0.00    +0.000 A 
ATOM     28  C   UNL     1      -0.978  10.734  18.128  0.00  0.00    +0.000 A 
ENDBRANCH  18  19
ENDBRANCH   6  18
TORSDOF 4
ENDMDL
MODEL 2
REMARK VINA RESULT:      -8.7      0.778      1.567
REMARK  Name = 
REMARK  5 active torsions:
REMARK  status: ('A' for Active; 'I' for Inactive)
REMARK    1  A    between atoms: C_1  and  C_2
REMARK    2  A    between atoms: N_3  and  C_4
REMARK    3  A    between atoms: C_4  and  C_5
REMARK    4  A    between atoms: N_17  and  C_18
REMARK    5  A    between atoms: C_18  and  C_19
REMARK                            x       y       z     vdW  Elec       q    Type
REMARK                         _______ _______ _______ _____ _____    ______ ____
ROOT
ATOM      1  C   UNL     1       0.503   8.805  21.535  0.00  0.00    +0.000 C 
ATOM      2  C   UNL     1       1.109   8.898  20.172  0.00  0.00    +0.000 A 
ATOM      3  N   UNL     1       1.839   7.966  19.518  0.00  0.00    +0.000 N 
ATOM      4  C   UNL     1       2.203   8.442  18.269  0.00  0.00    +0.000 A 
ATOM      5  C   UNL     1       1.751   9.723  18.185  0.00  0.00    +0.000 A 
ATOM      6  N   UNL     1       1.052   9.976  19.355  0.00  0.00    +0.000 N 
ENDROOT
BRANCH   3   7
ATOM      7  C   UNL     1       2.184   6.631  20.036  0.00  0.00    +0.000 C 
BRANCH   7   8
ATOM      8  C   UNL     1       2.988   5.817  19.038  0.00  0.00    +0.000 A 
ATOM      9  C   UNL     1       2.325   4.893  18.233  0.00  0.00    +0.000 A 
ATOM     10  C   UNL     1       3.044   4.211  17.258  0.00  0.00    +0.000 A 
ATOM     11  C   UNL     1       4.407   4.470  17.091  0.00  0.00    +0.000 A 
ATOM     12  C   UNL     1       5.159   3.813  16.101  0.00  0.00    +0.000 A 
ATOM     13  C   UNL     1       6.512   4.100  15.943  0.00  0.00    +0.000 A 
ATOM     14  C   UNL     1       7.115   5.038  16.773  0.00  0.00    +0.000 A 
ATOM     15  C   UNL     1       6.362   5.684  17.760  0.00  0.00    +0.000 A 
ATOM     16  C   UNL     1       5.009   5.424  17.940  0.00  0.00    +0.000 A 
ATOM     17  N   UNL     1       4.315   6.086  18.893  0.00  0.00    +0.000 NA
ENDBRANCH   7   8
ENDBRANCH   3   7
BRANCH   6  18
ATOM     18  C   UNL     1       0.318  11.218  19.637  0.00  0.00    +0.000 C 
BRANCH  18  19
ATOM     19  C   UNL     1      -1.078  11.187  19.059  0.00  0.00    +0.000 A 
ATOM     20  C   UNL     1      -1.318  10.400  17.922  0.00  0.00    +0.000 A 
ATOM     21  C   UNL     1      -2.590  10.350  17.341  0.00  0.00    +0.000 A 
ATOM     22  C   UNL     1      -3.658  11.076  17.887  0.00  0.00    +0.000 A 
ATOM     23  C   UNL     1      -4.942  11.046  17.319  0.00  0.00    +0.000 A 
ATOM     24  C   UNL     1      -5.991  11.769  17.890  0.00  0.00    +0.000 A 
ATOM     25  C   UNL     1      -5.772  12.531  19.033  0.00  0.00    +0.000 A 
ATOM     26  C   UNL     1      -4.502  12.576  19.605  0.00  0.00    +0.000 A 
ATOM     27  C   UNL     1      -3.437  11.858  19.040  0.00  0.00    +0.000 A 
ATOM     28  C   UNL     1      -2.153  11.905  19.605  0.00  0.00    +0.000 A 
ENDBRANCH  18  19
ENDBRANCH   6  18
TORSDOF 4
ENDMDL
MODEL 3
REMARK VINA RESULT:      -8.6      0.930      1.806
REMARK  Name = 
REMARK  5 active torsions:
REMARK  status: ('A' for Active; 'I' for Inactive)
REMARK    1  A    between atoms: C_1  and  C_2
REMARK    2  A    between atoms: N_3  and  C_4
REMARK    3  A    between atoms: C_4  and  C_5
REMARK    4  A    between atoms: N_17  and  C_18
REMARK    5  A    between atoms: C_18  and  C_19
REMARK                            x       y       z     vdW  Elec       q    Type
REMARK                         _______ _______ _______ _____ _____    ______ ____
ROOT
ATOM      1  C   UNL     1       2.149   7.985  17.616  0.00  0.00    +0.000 C 
ATOM      2  C   UNL     1       1.828   7.849  19.070  0.00  0.00    +0.000 A 
ATOM      3  N   UNL     1       1.826   6.725  19.821  0.00  0.00    +0.000 N 
ATOM      4  C   UNL     1       1.485   7.031  21.129  0.00  0.00    +0.000 A 
ATOM      5  C   UNL     1       1.196   8.361  21.163  0.00  0.00    +0.000 A 
ATOM      6  N   UNL     1       1.444   8.854  19.891  0.00  0.00    +0.000 N 
ENDROOT
BRANCH   3   7
ATOM      7  C   UNL     1       2.159   5.373  19.340  0.00  0.00    +0.000 C 
BRANCH   7   8
ATOM      8  C   UNL     1       3.539   5.310  18.710  0.00  0.00    +0.000 A 
ATOM      9  C   UNL     1       4.658   5.466  19.525  0.00  0.00    +0.000 A 
ATOM     10  C   UNL     1       5.923   5.321  18.966  0.00  0.00    +0.000 A 
ATOM     11  C   UNL     1       6.052   5.009  17.611  0.00  0.00    +0.000 A 
ATOM     12  C   UNL     1       7.316   4.835  17.019  0.00  0.00    +0.000 A 
ATOM     13  C   UNL     1       7.419   4.508  15.670  0.00  0.00    +0.000 A 
ATOM     14  C   UNL     1       6.264   4.358  14.911  0.00  0.00    +0.000 A 
ATOM     15  C   UNL     1       5.010   4.538  15.504  0.00  0.00    +0.000 A 
ATOM     16  C   UNL     1       4.873   4.860  16.849  0.00  0.00    +0.000 A 
ATOM     17  N   UNL     1       3.640   5.005  17.387  0.00  0.00    +0.000 NA
ENDBRANCH   7   8
ENDBRANCH   3   7
BRANCH   6  18
ATOM     18  C   UNL     1       1.348  10.272  19.512  0.00  0.00    +0.000 C 
BRANCH  18  19
ATOM     19  C   UNL     1      -0.051  10.640  19.076  0.00  0.00    +0.000 A 
ATOM     20  C   UNL     1      -0.811  11.488  19.896  0.00  0.00    +0.000 A 
ATOM     21  C   UNL     1      -2.116  11.846  19.543  0.00  0.00    +0.000 A 
ATOM     22  C   UNL     1      -2.694  11.376  18.354  0.00  0.00    +0.000 A 
ATOM     23  C   UNL     1      -4.003  11.717  17.980  0.00  0.00    +0.000 A 
ATOM     24  C   UNL     1      -4.550  11.244  16.786  0.00  0.00    +0.000 A 
ATOM     25  C   UNL     1      -3.797  10.426  15.950  0.00  0.00    +0.000 A 
ATOM     26  C   UNL     1      -2.498  10.072  16.310  0.00  0.00    +0.000 A 
ATOM     27  C   UNL     1      -1.937  10.537  17.510  0.00  0.00    +0.000 A 
ATOM     28  C   UNL     1      -0.632  10.179  17.883  0.00  0.00    +0.000 A 
ENDBRANCH  18  19
ENDBRANCH   6  18
TORSDOF 4
ENDMDL
MODEL 4
REMARK VINA RESULT:      -8.6      0.917      9.110
REMARK  Name = 
REMARK  5 active torsions:
REMARK  status: ('A' for Active; 'I' for Inactive)
REMARK    1  A    between atoms: C_1  and  C_2
REMARK    2  A    between atoms: N_3  and  C_4
REMARK    3  A    between atoms: C_4  and  C_5
REMARK    4  A    between atoms: N_17  and  C_18
REMARK    5  A    between atoms: C_18  and  C_19
REMARK                            x       y       z     vdW  Elec       q    Type
REMARK                         _______ _______ _______ _____ _____    ______ ____
ROOT
ATOM      1  C   UNL     1       1.071   8.201  21.389  0.00  0.00    +0.000 C 
ATOM      2  C   UNL     1       1.513   8.501  19.993  0.00  0.00    +0.000 A 
ATOM      3  N   UNL     1       1.406   9.667  19.316  0.00  0.00    +0.000 N 
ATOM      4  C   UNL     1       1.949   9.530  18.049  0.00  0.00    +0.000 A 
ATOM      5  C   UNL     1       2.329   8.230  17.918  0.00  0.00    +0.000 A 
ATOM      6  N   UNL     1       2.081   7.619  19.137  0.00  0.00    +0.000 N 
ENDROOT
BRANCH   3   7
ATOM      7  C   UNL     1       0.821  10.912  19.844  0.00  0.00    +0.000 C 
BRANCH   7   8
ATOM      8  C   UNL     1      -0.611  11.115  19.384  0.00  0.00    +0.000 A 
ATOM      9  C   UNL     1      -1.469  11.879  20.174  0.00  0.00    +0.000 A 
ATOM     10  C   UNL     1      -2.754  12.140  19.712  0.00  0.00    +0.000 A 
ATOM     11  C   UNL     1      -3.159  11.651  18.468  0.00  0.00    +0.000 A 
ATOM     12  C   UNL     1      -4.445  11.914  17.963  0.00  0.00    +0.000 A 
ATOM     13  C   UNL     1      -4.820  11.429  16.714  0.00  0.00    +0.000 A 
ATOM     14  C   UNL     1      -3.916  10.680  15.970  0.00  0.00    +0.000 A 
ATOM     15  C   UNL     1      -2.639  10.416  16.481  0.00  0.00    +0.000 A 
ATOM     16  C   UNL     1      -2.233  10.890  17.722  0.00  0.00    +0.000 A 
ATOM     17  N   UNL     1      -0.984  10.628  18.169  0.00  0.00    +0.000 NA
ENDBRANCH   7   8
ENDBRANCH   3   7
BRANCH   6  18
ATOM     18  C   UNL     1       2.432   6.228  19.461  0.00  0.00    +0.000 C 
BRANCH  18  19
ATOM     19  C   UNL     1       3.687   5.787  18.745  0.00  0.00    +0.000 A 
ATOM     20  C   UNL     1       4.850   5.565  19.499  0.00  0.00    +0.000 A 
ATOM     21  C   UNL     1       6.041   5.170  18.880  0.00  0.00    +0.000 A 
ATOM     22  C   UNL     1       6.099   4.975  17.492  0.00  0.00    +0.000 A 
ATOM     23  C   UNL     1       7.284   4.584  16.848  0.00  0.00    +0.000 A 
ATOM     24  C   UNL     1       7.312   4.386  15.466  0.00  0.00    +0.000 A 
ATOM     25  C   UNL     1       6.158   4.575  14.711  0.00  0.00    +0.000 A 
ATOM     26  C   UNL     1       4.976   4.970  15.335  0.00  0.00    +0.000 A 
ATOM     27  C   UNL     1       4.935   5.177  16.723  0.00  0.00    +0.000 A 
ATOM     28  C   UNL     1       3.750   5.582  17.357  0.00  0.00    +0.000 A 
ENDBRANCH  18  19
ENDBRANCH   6  18
TORSDOF 4
ENDMDL
MODEL 5
REMARK VINA RESULT:      -8.6      2.711      9.595
REMARK  Name = 
REMARK  5 active torsions:
REMARK  status: ('A' for Active; 'I' for Inactive)
REMARK    1  A    between atoms: C_1  and  C_2
REMARK    2  A    between atoms: N_3  and  C_4
REMARK    3  A    between atoms: C_4  and  C_5
REMARK    4  A    between atoms: N_17  and  C_18
REMARK    5  A    between atoms: C_18  and  C_19
REMARK                            x       y       z     vdW  Elec       q    Type
REMARK                         _______ _______ _______ _____ _____    ______ ____
ROOT
ATOM      1  C   UNL     1       1.844  12.225  19.406  0.00  0.00    +0.000 C 
ATOM      2  C   UNL     1       0.681  11.442  18.888  0.00  0.00    +0.000 A 
ATOM      3  N   UNL     1      -0.630  11.770  18.930  0.00  0.00    +0.000 N 
ATOM      4  C   UNL     1      -1.386  10.776  18.329  0.00  0.00    +0.000 A 
ATOM      5  C   UNL     1      -0.526   9.781  17.978  0.00  0.00    +0.000 A 
ATOM      6  N   UNL     1       0.747  10.223  18.302  0.00  0.00    +0.000 N 
ENDROOT
BRANCH   3   7
ATOM      7  C   UNL     1      -1.185  13.008  19.506  0.00  0.00    +0.000 C 
BRANCH   7   8
ATOM      8  C   UNL     1      -1.953  12.751  20.790  0.00  0.00    +0.000 A 
ATOM      9  C   UNL     1      -1.245  12.409  21.940  0.00  0.00    +0.000 A 
ATOM     10  C   UNL     1      -1.936  12.260  23.137  0.00  0.00    +0.000 A 
ATOM     11  C   UNL     1      -3.317  12.467  23.172  0.00  0.00    +0.000 A 
ATOM     12  C   UNL     1      -4.044  12.345  24.370  0.00  0.00    +0.000 A 
ATOM     13  C   UNL     1      -5.417  12.572  24.383  0.00  0.00    +0.000 A 
ATOM     14  C   UNL     1      -6.065  12.918  23.204  0.00  0.00    +0.000 A 
ATOM     15  C   UNL     1      -5.338  13.033  22.014  0.00  0.00    +0.000 A 
ATOM     16  C   UNL     1      -3.966  12.817  21.968  0.00  0.00    +0.000 A 
ATOM     17  N   UNL     1      -3.298  12.958  20.800  0.00  0.00    +0.000 NA
ENDBRANCH   7   8
ENDBRANCH   3   7
BRANCH   6  18
ATOM     18  C   UNL     1       1.986   9.490  18.005  0.00  0.00    +0.000 C 
BRANCH  18  19
ATOM     19  C   UNL     1       2.005   8.132  18.668  0.00  0.00    +0.000 A 
ATOM     20  C   UNL     1       1.787   8.054  20.052  0.00  0.00    +0.000 A 
ATOM     21  C   UNL     1       1.809   6.821  20.713  0.00  0.00    +0.000 A 
ATOM     22  C   UNL     1       2.037   5.631  20.007  0.00  0.00    +0.000 A 
ATOM     23  C   UNL     1       2.069   4.383  20.648  0.00  0.00    +0.000 A 
ATOM     24  C   UNL     1       2.288   3.212  19.920  0.00  0.00    +0.000 A 
ATOM     25  C   UNL     1       2.477   3.273  18.543  0.00  0.00    +0.000 A 
ATOM     26  C   UNL     1       2.456   4.505  17.892  0.00  0.00    +0.000 A 
ATOM     27  C   UNL     1       2.241   5.691  18.612  0.00  0.00    +0.000 A 
ATOM     28  C   UNL     1       2.225   6.936  17.965  0.00  0.00    +0.000 A 
ENDBRANCH  18  19
ENDBRANCH   6  18
TORSDOF 4
ENDMDL
MODEL 6
REMARK VINA RESULT:      -8.5      1.823      9.071
REMARK  Name = 
REMARK  5 active torsions:
REMARK  status: ('A' for Active; 'I' for Inactive)
REMARK    1  A    between atoms: C_1  and  C_2
REMARK    2  A    between atoms: N_3  and  C_4
REMARK    3  A    between atoms: C_4  and  C_5
REMARK    4  A    between atoms: N_17  and  C_18
REMARK    5  A    between atoms: C_18  and  C_19
REMARK                            x       y       z     vdW  Elec       q    Type
REMARK                         _______ _______ _______ _____ _____    ______ ____
ROOT
ATOM      1  C   UNL     1       0.015  10.020  21.366  0.00  0.00    +0.000 C 
ATOM      2  C   UNL     1       0.712   9.673  20.090  0.00  0.00    +0.000 A 
ATOM      3  N   UNL     1       0.703  10.357  18.923  0.00  0.00    +0.000 N 
ATOM      4  C   UNL     1       1.488   9.704  17.986  0.00  0.00    +0.000 A 
ATOM      5  C   UNL     1       1.927   8.554  18.569  0.00  0.00    +0.000 A 
ATOM      6  N   UNL     1       1.464   8.568  19.875  0.00  0.00    +0.000 N 
ENDROOT
BRANCH   3   7
ATOM      7  C   UNL     1      -0.012  11.621  18.677  0.00  0.00    +0.000 C 
BRANCH   7   8
ATOM      8  C   UNL     1      -1.492  11.404  18.416  0.00  0.00    +0.000 A 
ATOM      9  C   UNL     1      -1.878  10.413  17.514  0.00  0.00    +0.000 A 
ATOM     10  C   UNL     1      -3.232  10.152  17.341  0.00  0.00    +0.000 A 
ATOM     11  C   UNL     1      -4.178  10.870  18.076  0.00  0.00    +0.000 A 
ATOM     12  C   UNL     1      -5.554  10.617  17.940  0.00  0.00    +0.000 A 
ATOM     13  C   UNL     1      -6.477  11.333  18.695  0.00  0.00    +0.000 A 
ATOM     14  C   UNL     1      -6.029  12.304  19.584  0.00  0.00    +0.000 A 
ATOM     15  C   UNL     1      -4.658  12.555  19.712  0.00  0.00    +0.000 A 
ATOM     16  C   UNL     1      -3.712  11.854  18.975  0.00  0.00    +0.000 A 
ATOM     17  N   UNL     1      -2.395  12.115  19.144  0.00  0.00    +0.000 NA
ENDBRANCH   7   8
ENDBRANCH   3   7
BRANCH   6  18
ATOM     18  C   UNL     1       1.788   7.552  20.887  0.00  0.00    +0.000 C 
BRANCH  18  19
ATOM     19  C   UNL     1       1.906   6.174  20.278  0.00  0.00    +0.000 A 
ATOM     20  C   UNL     1       0.938   5.210  20.600  0.00  0.00    +0.000 A 
ATOM     21  C   UNL     1       1.012   3.916  20.073  0.00  0.00    +0.000 A 
ATOM     22  C   UNL     1       2.048   3.554  19.201  0.00  0.00    +0.000 A 
ATOM     23  C   UNL     1       2.147   2.261  18.663  0.00  0.00    +0.000 A 
ATOM     24  C   UNL     1       3.182   1.929  17.788  0.00  0.00    +0.000 A 
ATOM     25  C   UNL     1       4.132   2.884  17.438  0.00  0.00    +0.000 A 
ATOM     26  C   UNL     1       4.052   4.170  17.969  0.00  0.00    +0.000 A 
ATOM     27  C   UNL     1       3.019   4.516  18.853  0.00  0.00    +0.000 A 
ATOM     28  C   UNL     1       2.936   5.807  19.398  0.00  0.00    +0.000 A 
ENDBRANCH  18  19
ENDBRANCH   6  18
TORSDOF 4
ENDMDL
MODEL 7
REMARK VINA RESULT:      -8.4      1.039      9.011
REMARK  Name = 
REMARK  5 active torsions:
REMARK  status: ('A' for Active; 'I' for Inactive)
REMARK    1  A    between atoms: C_1  and  C_2
REMARK    2  A    between atoms: N_3  and  C_4
REMARK    3  A    between atoms: C_4  and  C_5
REMARK    4  A    between atoms: N_17  and  C_18
REMARK    5  A    between atoms: C_18  and  C_19
REMARK                            x       y       z     vdW  Elec       q    Type
REMARK                         _______ _______ _______ _____ _____    ______ ____
ROOT
ATOM      1  C   UNL     1       2.163   7.727  17.624  0.00  0.00    +0.000 C 
ATOM      2  C   UNL     1       1.830   7.727  19.082  0.00  0.00    +0.000 A 
ATOM      3  N   UNL     1       1.480   8.779  19.856  0.00  0.00    +0.000 N 
ATOM      4  C   UNL     1       1.242   8.352  21.153  0.00  0.00    +0.000 A 
ATOM      5  C   UNL     1       1.526   7.022  21.192  0.00  0.00    +0.000 A 
ATOM      6  N   UNL     1       1.857   6.648  19.899  0.00  0.00    +0.000 N 
ENDROOT
BRANCH   3   7
ATOM      7  C   UNL     1       1.345  10.173  19.398  0.00  0.00    +0.000 C 
BRANCH   7   8
ATOM      8  C   UNL     1      -0.088  10.524  19.040  0.00  0.00    +0.000 A 
ATOM      9  C   UNL     1      -0.790  11.404  19.863  0.00  0.00    +0.000 A 
ATOM     10  C   UNL     1      -2.071  11.796  19.491  0.00  0.00    +0.000 A 
ATOM     11  C   UNL     1      -2.626  11.319  18.301  0.00  0.00    +0.000 A 
ATOM     12  C   UNL     1      -3.910  11.712  17.885  0.00  0.00    +0.000 A 
ATOM     13  C   UNL     1      -4.435  11.237  16.687  0.00  0.00    +0.000 A 
ATOM     14  C   UNL     1      -3.682  10.367  15.906  0.00  0.00    +0.000 A 
ATOM     15  C   UNL     1      -2.407   9.975  16.328  0.00  0.00    +0.000 A 
ATOM     16  C   UNL     1      -1.853  10.436  17.516  0.00  0.00    +0.000 A 
ATOM     17  N   UNL     1      -0.608  10.047  17.877  0.00  0.00    +0.000 NA
ENDBRANCH   7   8
ENDBRANCH   3   7
BRANCH   6  18
ATOM     18  C   UNL     1       2.146   5.270  19.476  0.00  0.00    +0.000 C 
BRANCH  18  19
ATOM     19  C   UNL     1       3.486   5.167  18.785  0.00  0.00    +0.000 A 
ATOM     20  C   UNL     1       4.648   5.440  19.523  0.00  0.00    +0.000 A 
ATOM     21  C   UNL     1       5.910   5.372  18.924  0.00  0.00    +0.000 A 
ATOM     22  C   UNL     1       6.047   5.018  17.574  0.00  0.00    +0.000 A 
ATOM     23  C   UNL     1       7.302   4.948  16.949  0.00  0.00    +0.000 A 
ATOM     24  C   UNL     1       7.411   4.582  15.606  0.00  0.00    +0.000 A 
ATOM     25  C   UNL     1       6.269   4.281  14.871  0.00  0.00    +0.000 A 
ATOM     26  C   UNL     1       5.015   4.353  15.474  0.00  0.00    +0.000 A 
ATOM     27  C   UNL     1       4.890   4.723  16.822  0.00  0.00    +0.000 A 
ATOM     28  C   UNL     1       3.630   4.805  17.436  0.00  0.00    +0.000 A 
ENDBRANCH  18  19
ENDBRANCH   6  18
TORSDOF 4
ENDMDL
MODEL 8
REMARK VINA RESULT:      -8.4      1.162      9.305
REMARK  Name = 
REMARK  5 active torsions:
REMARK  status: ('A' for Active; 'I' for Inactive)
REMARK    1  A    between atoms: C_1  and  C_2
REMARK    2  A    between atoms: N_3  and  C_4
REMARK    3  A    between atoms: C_4  and  C_5
REMARK    4  A    between atoms: N_17  and  C_18
REMARK    5  A    between atoms: C_18  and  C_19
REMARK                            x       y       z     vdW  Elec       q    Type
REMARK                         _______ _______ _______ _____ _____    ______ ____
ROOT
ATOM      1  C   UNL     1       0.910   8.095  21.338  0.00  0.00    +0.000 C 
ATOM      2  C   UNL     1       1.430   8.395  19.969  0.00  0.00    +0.000 A 
ATOM      3  N   UNL     1       1.275   9.529  19.248  0.00  0.00    +0.000 N 
ATOM      4  C   UNL     1       1.924   9.408  18.030  0.00  0.00    +0.000 A 
ATOM      5  C   UNL     1       2.424   8.143  17.971  0.00  0.00    +0.000 A 
ATOM      6  N   UNL     1       2.136   7.545  19.188  0.00  0.00    +0.000 N 
ENDROOT
BRANCH   3   7
ATOM      7  C   UNL     1       0.547  10.732  19.690  0.00  0.00    +0.000 C 
BRANCH   7   8
ATOM      8  C   UNL     1      -0.805  10.867  19.011  0.00  0.00    +0.000 A 
ATOM      9  C   UNL     1      -1.064  10.108  17.871  0.00  0.00    +0.000 A 
ATOM     10  C   UNL     1      -2.330  10.163  17.300  0.00  0.00    +0.000 A 
ATOM     11  C   UNL     1      -3.320  10.961  17.878  0.00  0.00    +0.000 A 
ATOM     12  C   UNL     1      -4.616  11.023  17.337  0.00  0.00    +0.000 A 
ATOM     13  C   UNL     1      -5.590  11.812  17.941  0.00  0.00    +0.000 A 
ATOM     14  C   UNL     1      -5.272  12.541  19.082  0.00  0.00    +0.000 A 
ATOM     15  C   UNL     1      -3.978  12.479  19.612  0.00  0.00    +0.000 A 
ATOM     16  C   UNL     1      -2.985  11.697  19.035  0.00  0.00    +0.000 A 
ATOM     17  N   UNL     1      -1.753  11.650  19.592  0.00  0.00    +0.000 NA
ENDBRANCH   7   8
ENDBRANCH   3   7
BRANCH   6  18
ATOM     18  C   UNL     1       2.580   6.200  19.582  0.00  0.00    +0.000 C 
BRANCH  18  19
ATOM     19  C   UNL     1       3.785   5.753  18.788  0.00  0.00    +0.000 A 
ATOM     20  C   UNL     1       5.023   5.652  19.442  0.00  0.00    +0.000 A 
ATOM     21  C   UNL     1       6.171   5.257  18.747  0.00  0.00    +0.000 A 
ATOM     22  C   UNL     1       6.111   4.941  17.381  0.00  0.00    +0.000 A 
ATOM     23  C   UNL     1       7.249   4.548  16.661  0.00  0.00    +0.000 A 
ATOM     24  C   UNL     1       7.160   4.228  15.305  0.00  0.00    +0.000 A 
ATOM     25  C   UNL     1       5.933   4.297  14.652  0.00  0.00    +0.000 A 
ATOM     26  C   UNL     1       4.795   4.693  15.351  0.00  0.00    +0.000 A 
ATOM     27  C   UNL     1       4.871   5.021  16.714  0.00  0.00    +0.000 A 
ATOM     28  C   UNL     1       3.730   5.428  17.424  0.00  0.00    +0.000 A 
ENDBRANCH  18  19
ENDBRANCH   6  18
TORSDOF 4
ENDMDL
MODEL 9
REMARK VINA RESULT:      -8.4      1.592      2.734
REMARK  Name = 
REMARK  5 active torsions:
REMARK  status: ('A' for Active; 'I' for Inactive)
REMARK    1  A    between atoms: C_1  and  C_2
REMARK    2  A    between atoms: N_3  and  C_4
REMARK    3  A    between atoms: C_4  and  C_5
REMARK    4  A    between atoms: N_17  and  C_18
REMARK    5  A    between atoms: C_18  and  C_19
REMARK                            x       y       z     vdW  Elec       q    Type
REMARK                         _______ _______ _______ _____ _____    ______ ____
ROOT
ATOM      1  C   UNL     1       0.226  10.092  21.387  0.00  0.00    +0.000 C 
ATOM      2  C   UNL     1       0.832   9.607  20.109  0.00  0.00    +0.000 A 
ATOM      3  N   UNL     1       1.531   8.469  19.897  0.00  0.00    +0.000 N 
ATOM      4  C   UNL     1       1.909   8.387  18.567  0.00  0.00    +0.000 A 
ATOM      5  C   UNL     1       1.497   9.537  17.966  0.00  0.00    +0.000 A 
ATOM      6  N   UNL     1       0.808  10.262  18.925  0.00  0.00    +0.000 N 
ENDROOT
BRANCH   3   7
ATOM      7  C   UNL     1       1.834   7.449  20.916  0.00  0.00    +0.000 C 
BRANCH   7   8
ATOM      8  C   UNL     1       1.979   6.062  20.315  0.00  0.00    +0.000 A 
ATOM      9  C   UNL     1       0.983   5.117  20.555  0.00  0.00    +0.000 A 
ATOM     10  C   UNL     1       1.068   3.877  19.934  0.00  0.00    +0.000 A 
ATOM     11  C   UNL     1       2.135   3.601  19.075  0.00  0.00    +0.000 A 
ATOM     12  C   UNL     1       2.240   2.364  18.415  0.00  0.00    +0.000 A 
ATOM     13  C   UNL     1       3.303   2.119  17.551  0.00  0.00    +0.000 A 
ATOM     14  C   UNL     1       4.262   3.104  17.348  0.00  0.00    +0.000 A 
ATOM     15  C   UNL     1       4.154   4.332  18.011  0.00  0.00    +0.000 A 
ATOM     16  C   UNL     1       3.103   4.609  18.876  0.00  0.00    +0.000 A 
ATOM     17  N   UNL     1       3.027   5.816  19.482  0.00  0.00    +0.000 NA
ENDBRANCH   7   8
ENDBRANCH   3   7
BRANCH   6  18
ATOM     18  C   UNL     1       0.114  11.534  18.671  0.00  0.00    +0.000 C 
BRANCH  18  19
ATOM     19  C   UNL     1      -1.375  11.335  18.511  0.00  0.00    +0.000 A 
ATOM     20  C   UNL     1      -1.831  10.355  17.616  0.00  0.00    +0.000 A 
ATOM     21  C   UNL     1      -3.201  10.143  17.422  0.00  0.00    +0.000 A 
ATOM     22  C   UNL     1      -4.151  10.898  18.125  0.00  0.00    +0.000 A 
ATOM     23  C   UNL     1      -5.530  10.709  17.943  0.00  0.00    +0.000 A 
ATOM     24  C   UNL     1      -6.455  11.466  18.663  0.00  0.00    +0.000 A 
ATOM     25  C   UNL     1      -6.016  12.422  19.574  0.00  0.00    +0.000 A 
ATOM     26  C   UNL     1      -4.650  12.628  19.760  0.00  0.00    +0.000 A 
ATOM     27  C   UNL     1      -3.709  11.876  19.040  0.00  0.00    +0.000 A 
ATOM     28  C   UNL     1      -2.331  12.082  19.216  0.00  0.00    +0.000 A 
ENDBRANCH  18  19
ENDBRANCH   6  18
TORSDOF 4
ENDMDL
