MODEL 1
REMARK VINA RESULT:      -6.9      0.000      0.000
REMARK  Name = 
REMARK  3 active torsions:
REMARK  status: ('A' for Active; 'I' for Inactive)
REMARK    1  A    between atoms: C_2  and  C_3
REMARK    2  A    between atoms: C_4  and  N_5
REMARK    3  A    between atoms: C_16  and  C_17
REMARK                            x       y       z     vdW  Elec       q    Type
REMARK                         _______ _______ _______ _____ _____    ______ ____
ROOT
ATOM      1  C   UNL     1       1.943   7.804  19.547  0.00  0.00    +0.000 C 
ATOM      2  C   UNL     1       1.821   8.624  18.477  0.00  0.00    +0.000 C 
ATOM      3  N   UNL     1       2.660   8.421  17.402  0.00  0.00    +0.000 N 
ATOM      4  C   UNL     1       3.649   7.507  17.350  0.00  0.00    +0.000 A 
ATOM      5  N   UNL     1       4.512   7.265  16.396  0.00  0.00    +0.000 NA
ATOM      6  C   UNL     1       5.313   6.256  16.882  0.00  0.00    +0.000 A 
ATOM      7  C   UNL     1       6.390   5.593  16.275  0.00  0.00    +0.000 A 
ATOM      8  C   UNL     1       7.059   4.589  16.988  0.00  0.00    +0.000 A 
ATOM      9  C   UNL     1       6.674   4.259  18.288  0.00  0.00    +0.000 A 
ATOM     10  C   UNL     1       5.605   4.907  18.913  0.00  0.00    +0.000 A 
ATOM     11  C   UNL     1       4.938   5.891  18.175  0.00  0.00    +0.000 A 
ATOM     12  N   UNL     1       3.842   6.677  18.422  0.00  0.00    +0.000 N 
ATOM     13  C   UNL     1       2.978   6.693  19.602  0.00  0.00    +0.000 C 
ATOM     14  H   UNL     1       2.598   9.096  16.649  0.00  0.00    +0.000 HD
ENDROOT
BRANCH  13  15
ATOM     15  C   UNL     1       2.327   5.328  19.797  0.00  0.00    +0.000 A 
ATOM     16  C   UNL     1       1.735   4.669  18.707  0.00  0.00    +0.000 A 
ATOM     17  C   UNL     1       1.136   3.420  18.876  0.00  0.00    +0.000 A 
ATOM     18  C   UNL     1       1.136   2.812  20.129  0.00  0.00    +0.000 A 
ATOM     19  C   UNL     1       1.728   3.447  21.217  0.00  0.00    +0.000 A 
ATOM     20  C   UNL     1       2.321   4.700  21.055  0.00  0.00    +0.000 A 
ENDBRANCH  13  15
BRANCH   2  21
ATOM     21  N   UNL     1       0.911   9.649  18.401  0.00  0.00    +0.000 N 
ATOM     22  H   UNL     1       1.292  10.574  18.212  0.00  0.00    +0.000 HD
ATOM     23  H   UNL     1       0.246   9.663  19.169  0.00  0.00    +0.000 HD
ENDBRANCH   2  21
BRANCH   1  25
ATOM     24  N   UNL     1       0.322   8.040  21.794  0.00  0.00    +0.000 NA
ATOM     25  C   UNL     1       1.057   7.933  20.775  0.00  0.00    +0.000 C 
ENDBRANCH   1  25
TORSDOF 3
ENDMDL
MODEL 2
REMARK VINA RESULT:      -6.9      0.029      1.031
REMARK  Name = 
REMARK  3 active torsions:
REMARK  status: ('A' for Active; 'I' for Inactive)
REMARK    1  A    between atoms: C_2  and  C_3
REMARK    2  A    between atoms: C_4  and  N_5
REMARK    3  A    between atoms: C_16  and  C_17
REMARK                            x       y       z     vdW  Elec       q    Type
REMARK                         _______ _______ _______ _____ _____    ______ ____
ROOT
ATOM      1  C   UNL     1       1.961   7.794  19.526  0.00  0.00    +0.000 C 
ATOM      2  C   UNL     1       1.843   8.619  18.458  0.00  0.00    +0.000 C 
ATOM      3  N   UNL     1       2.687   8.420  17.386  0.00  0.00    +0.000 N 
ATOM      4  C   UNL     1       3.677   7.507  17.335  0.00  0.00    +0.000 A 
ATOM      5  N   UNL     1       4.545   7.269  16.384  0.00  0.00    +0.000 NA
ATOM      6  C   UNL     1       5.343   6.258  16.871  0.00  0.00    +0.000 A 
ATOM      7  C   UNL     1       6.424   5.598  16.266  0.00  0.00    +0.000 A 
ATOM      8  C   UNL     1       7.090   4.592  16.978  0.00  0.00    +0.000 A 
ATOM      9  C   UNL     1       6.699   4.257  18.276  0.00  0.00    +0.000 A 
ATOM     10  C   UNL     1       5.628   4.901  18.898  0.00  0.00    +0.000 A 
ATOM     11  C   UNL     1       4.963   5.888  18.160  0.00  0.00    +0.000 A 
ATOM     12  N   UNL     1       3.866   6.673  18.405  0.00  0.00    +0.000 N 
ATOM     13  C   UNL     1       2.996   6.684  19.582  0.00  0.00    +0.000 C 
ATOM     14  H   UNL     1       2.628   9.098  16.635  0.00  0.00    +0.000 HD
ENDROOT
BRANCH  13  15
ATOM     15  C   UNL     1       2.345   5.318  19.769  0.00  0.00    +0.000 A 
ATOM     16  C   UNL     1       2.331   4.714  21.038  0.00  0.00    +0.000 A 
ATOM     17  C   UNL     1       1.739   3.464  21.219  0.00  0.00    +0.000 A 
ATOM     18  C   UNL     1       1.144   2.812  20.142  0.00  0.00    +0.000 A 
ATOM     19  C   UNL     1       1.140   3.402  18.881  0.00  0.00    +0.000 A 
ATOM     20  C   UNL     1       1.738   4.649  18.693  0.00  0.00    +0.000 A 
ENDBRANCH  13  15
BRANCH   2  21
ATOM     21  N   UNL     1       0.933   9.643  18.383  0.00  0.00    +0.000 N 
ATOM     22  H   UNL     1       0.169   9.614  19.056  0.00  0.00    +0.000 HD
ATOM     23  H   UNL     1       0.601   9.827  17.441  0.00  0.00    +0.000 HD
ENDBRANCH   2  21
BRANCH   1  25
ATOM     24  N   UNL     1       0.330   8.022  21.767  0.00  0.00    +0.000 NA
ATOM     25  C   UNL     1       1.069   7.919  20.751  0.00  0.00    +0.000 C 
ENDBRANCH   1  25
TORSDOF 3
ENDMDL
MODEL 3
REMARK VINA RESULT:      -6.9      2.558      4.436
REMARK  Name = 
REMARK  3 active torsions:
REMARK  status: ('A' for Active; 'I' for Inactive)
REMARK    1  A    between atoms: C_2  and  C_3
REMARK    2  A    between atoms: C_4  and  N_5
REMARK    3  A    between atoms: C_16  and  C_17
REMARK                            x       y       z     vdW  Elec       q    Type
REMARK                         _______ _______ _______ _____ _____    ______ ____
ROOT
ATOM      1  C   UNL     1       3.179   4.094  18.278  0.00  0.00    +0.000 C 
ATOM      2  C   UNL     1       3.853   3.158  18.986  0.00  0.00    +0.000 C 
ATOM      3  N   UNL     1       5.143   3.443  19.379  0.00  0.00    +0.000 N 
ATOM      4  C   UNL     1       5.824   4.560  19.058  0.00  0.00    +0.000 A 
ATOM      5  N   UNL     1       7.054   4.902  19.352  0.00  0.00    +0.000 NA
ATOM      6  C   UNL     1       7.242   6.124  18.746  0.00  0.00    +0.000 A 
ATOM      7  C   UNL     1       8.368   6.961  18.746  0.00  0.00    +0.000 A 
ATOM      8  C   UNL     1       8.315   8.170  18.039  0.00  0.00    +0.000 A 
ATOM      9  C   UNL     1       7.169   8.535  17.333  0.00  0.00    +0.000 A 
ATOM     10  C   UNL     1       6.036   7.717  17.318  0.00  0.00    +0.000 A 
ATOM     11  C   UNL     1       6.104   6.524  18.048  0.00  0.00    +0.000 A 
ATOM     12  N   UNL     1       5.203   5.524  18.309  0.00  0.00    +0.000 N 
ATOM     13  C   UNL     1       3.804   5.425  17.894  0.00  0.00    +0.000 C 
ATOM     14  H   UNL     1       5.649   2.695  19.840  0.00  0.00    +0.000 HD
ENDROOT
BRANCH  13  15
ATOM     15  C   UNL     1       3.005   6.601  18.445  0.00  0.00    +0.000 A 
ATOM     16  C   UNL     1       2.653   7.668  17.602  0.00  0.00    +0.000 A 
ATOM     17  C   UNL     1       1.924   8.749  18.098  0.00  0.00    +0.000 A 
ATOM     18  C   UNL     1       1.526   8.768  19.433  0.00  0.00    +0.000 A 
ATOM     19  C   UNL     1       1.857   7.712  20.278  0.00  0.00    +0.000 A 
ATOM     20  C   UNL     1       2.594   6.633  19.789  0.00  0.00    +0.000 A 
ENDBRANCH  13  15
BRANCH   2  21
ATOM     21  N   UNL     1       3.326   1.939  19.333  0.00  0.00    +0.000 N 
ATOM     22  H   UNL     1       3.324   1.718  20.327  0.00  0.00    +0.000 HD
ATOM     23  H   UNL     1       3.677   1.167  18.774  0.00  0.00    +0.000 HD
ENDBRANCH   2  21
BRANCH   1  25
ATOM     24  N   UNL     1       0.560   3.713  17.423  0.00  0.00    +0.000 NA
ATOM     25  C   UNL     1       1.747   3.886  17.811  0.00  0.00    +0.000 C 
ENDBRANCH   1  25
TORSDOF 3
ENDMDL
MODEL 4
REMARK VINA RESULT:      -6.9      2.547      4.527
REMARK  Name = 
REMARK  3 active torsions:
REMARK  status: ('A' for Active; 'I' for Inactive)
REMARK    1  A    between atoms: C_2  and  C_3
REMARK    2  A    between atoms: C_4  and  N_5
REMARK    3  A    between atoms: C_16  and  C_17
REMARK                            x       y       z     vdW  Elec       q    Type
REMARK                         _______ _______ _______ _____ _____    ______ ____
ROOT
ATOM      1  C   UNL     1       3.140   4.089  18.307  0.00  0.00    +0.000 C 
ATOM      2  C   UNL     1       3.814   3.165  19.032  0.00  0.00    +0.000 C 
ATOM      3  N   UNL     1       5.104   3.456  19.420  0.00  0.00    +0.000 N 
ATOM      4  C   UNL     1       5.786   4.567  19.080  0.00  0.00    +0.000 A 
ATOM      5  N   UNL     1       7.016   4.913  19.368  0.00  0.00    +0.000 NA
ATOM      6  C   UNL     1       7.205   6.124  18.741  0.00  0.00    +0.000 A 
ATOM      7  C   UNL     1       8.332   6.961  18.726  0.00  0.00    +0.000 A 
ATOM      8  C   UNL     1       8.280   8.157  17.998  0.00  0.00    +0.000 A 
ATOM      9  C   UNL     1       7.133   8.510  17.285  0.00  0.00    +0.000 A 
ATOM     10  C   UNL     1       6.000   7.693  17.284  0.00  0.00    +0.000 A 
ATOM     11  C   UNL     1       6.067   6.513  18.035  0.00  0.00    +0.000 A 
ATOM     12  N   UNL     1       5.165   5.518  18.314  0.00  0.00    +0.000 N 
ATOM     13  C   UNL     1       3.766   5.412  17.900  0.00  0.00    +0.000 C 
ATOM     14  H   UNL     1       5.609   2.716  19.894  0.00  0.00    +0.000 HD
ENDROOT
BRANCH  13  15
ATOM     15  C   UNL     1       2.968   6.598  18.431  0.00  0.00    +0.000 A 
ATOM     16  C   UNL     1       2.600   6.648  19.786  0.00  0.00    +0.000 A 
ATOM     17  C   UNL     1       1.869   7.728  20.281  0.00  0.00    +0.000 A 
ATOM     18  C   UNL     1       1.512   8.774  19.433  0.00  0.00    +0.000 A 
ATOM     19  C   UNL     1       1.879   8.745  18.090  0.00  0.00    +0.000 A 
ATOM     20  C   UNL     1       2.603   7.663  17.589  0.00  0.00    +0.000 A 
ENDBRANCH  13  15
BRANCH   2  21
ATOM     21  N   UNL     1       3.286   1.952  19.400  0.00  0.00    +0.000 N 
ATOM     22  H   UNL     1       3.881   1.362  19.978  0.00  0.00    +0.000 HD
ATOM     23  H   UNL     1       2.872   1.436  18.630  0.00  0.00    +0.000 HD
ENDBRANCH   2  21
BRANCH   1  25
ATOM     24  N   UNL     1       0.521   3.694  17.459  0.00  0.00    +0.000 NA
ATOM     25  C   UNL     1       1.709   3.874  17.844  0.00  0.00    +0.000 C 
ENDBRANCH   1  25
TORSDOF 3
ENDMDL
MODEL 5
REMARK VINA RESULT:      -6.5      2.453      5.410
REMARK  Name = 
REMARK  3 active torsions:
REMARK  status: ('A' for Active; 'I' for Inactive)
REMARK    1  A    between atoms: C_2  and  C_3
REMARK    2  A    between atoms: C_4  and  N_5
REMARK    3  A    between atoms: C_16  and  C_17
REMARK                            x       y       z     vdW  Elec       q    Type
REMARK                         _______ _______ _______ _____ _____    ______ ____
ROOT
ATOM      1  C   UNL     1       5.675   5.663  17.393  0.00  0.00    +0.000 C 
ATOM      2  C   UNL     1       5.832   4.681  16.474  0.00  0.00    +0.000 C 
ATOM      3  N   UNL     1       5.036   3.560  16.577  0.00  0.00    +0.000 N 
ATOM      4  C   UNL     1       4.151   3.323  17.564  0.00  0.00    +0.000 A 
ATOM      5  N   UNL     1       3.383   2.282  17.764  0.00  0.00    +0.000 NA
ATOM      6  C   UNL     1       2.709   2.551  18.934  0.00  0.00    +0.000 A 
ATOM      7  C   UNL     1       1.744   1.790  19.610  0.00  0.00    +0.000 A 
ATOM      8  C   UNL     1       1.202   2.284  20.804  0.00  0.00    +0.000 A 
ATOM      9  C   UNL     1       1.623   3.508  21.326  0.00  0.00    +0.000 A 
ATOM     10  C   UNL     1       2.583   4.283  20.672  0.00  0.00    +0.000 A 
ATOM     11  C   UNL     1       3.095   3.780  19.469  0.00  0.00    +0.000 A 
ATOM     12  N   UNL     1       3.981   4.266  18.543  0.00  0.00    +0.000 N 
ATOM     13  C   UNL     1       4.673   5.555  18.530  0.00  0.00    +0.000 C 
ATOM     14  H   UNL     1       5.228   2.811  15.921  0.00  0.00    +0.000 HD
ENDROOT
BRANCH  13  15
ATOM     15  C   UNL     1       3.662   6.696  18.499  0.00  0.00    +0.000 A 
ATOM     16  C   UNL     1       2.896   6.987  19.640  0.00  0.00    +0.000 A 
ATOM     17  C   UNL     1       1.967   8.028  19.621  0.00  0.00    +0.000 A 
ATOM     18  C   UNL     1       1.806   8.797  18.470  0.00  0.00    +0.000 A 
ATOM     19  C   UNL     1       2.566   8.528  17.335  0.00  0.00    +0.000 A 
ATOM     20  C   UNL     1       3.490   7.481  17.347  0.00  0.00    +0.000 A 
ENDBRANCH  13  15
BRANCH   2  21
ATOM     21  N   UNL     1       6.740   4.738  15.446  0.00  0.00    +0.000 N 
ATOM     22  H   UNL     1       6.570   4.110  14.663  0.00  0.00    +0.000 HD
ATOM     23  H   UNL     1       7.707   4.709  15.753  0.00  0.00    +0.000 HD
ENDBRANCH   2  21
BRANCH   1  25
ATOM     24  N   UNL     1       7.167   8.009  17.334  0.00  0.00    +0.000 NA
ATOM     25  C   UNL     1       6.490   6.945  17.361  0.00  0.00    +0.000 C 
ENDBRANCH   1  25
TORSDOF 3
ENDMDL
MODEL 6
REMARK VINA RESULT:      -6.5      2.452      5.321
REMARK  Name = 
REMARK  3 active torsions:
REMARK  status: ('A' for Active; 'I' for Inactive)
REMARK    1  A    between atoms: C_2  and  C_3
REMARK    2  A    between atoms: C_4  and  N_5
REMARK    3  A    between atoms: C_16  and  C_17
REMARK                            x       y       z     vdW  Elec       q    Type
REMARK                         _______ _______ _______ _____ _____    ______ ____
ROOT
ATOM      1  C   UNL     1       5.664   5.668  17.394  0.00  0.00    +0.000 C 
ATOM      2  C   UNL     1       5.813   4.690  16.470  0.00  0.00    +0.000 C 
ATOM      3  N   UNL     1       5.015   3.570  16.574  0.00  0.00    +0.000 N 
ATOM      4  C   UNL     1       4.137   3.331  17.567  0.00  0.00    +0.000 A 
ATOM      5  N   UNL     1       3.368   2.290  17.769  0.00  0.00    +0.000 NA
ATOM      6  C   UNL     1       2.703   2.558  18.945  0.00  0.00    +0.000 A 
ATOM      7  C   UNL     1       1.741   1.795  19.626  0.00  0.00    +0.000 A 
ATOM      8  C   UNL     1       1.209   2.287  20.825  0.00  0.00    +0.000 A 
ATOM      9  C   UNL     1       1.636   3.508  21.348  0.00  0.00    +0.000 A 
ATOM     10  C   UNL     1       2.593   4.283  20.689  0.00  0.00    +0.000 A 
ATOM     11  C   UNL     1       3.095   3.783  19.482  0.00  0.00    +0.000 A 
ATOM     12  N   UNL     1       3.976   4.270  18.551  0.00  0.00    +0.000 N 
ATOM     13  C   UNL     1       4.670   5.558  18.537  0.00  0.00    +0.000 C 
ATOM     14  H   UNL     1       5.201   2.822  15.915  0.00  0.00    +0.000 HD
ENDROOT
BRANCH  13  15
ATOM     15  C   UNL     1       3.662   6.701  18.517  0.00  0.00    +0.000 A 
ATOM     16  C   UNL     1       3.487   7.464  17.350  0.00  0.00    +0.000 A 
ATOM     17  C   UNL     1       2.567   8.512  17.322  0.00  0.00    +0.000 A 
ATOM     18  C   UNL     1       1.804   8.800  18.452  0.00  0.00    +0.000 A 
ATOM     19  C   UNL     1       1.958   8.046  19.612  0.00  0.00    +0.000 A 
ATOM     20  C   UNL     1       2.883   7.002  19.648  0.00  0.00    +0.000 A 
ENDBRANCH  13  15
BRANCH   2  21
ATOM     21  N   UNL     1       6.713   4.748  15.435  0.00  0.00    +0.000 N 
ATOM     22  H   UNL     1       6.838   5.660  15.001  0.00  0.00    +0.000 HD
ATOM     23  H   UNL     1       6.592   4.013  14.745  0.00  0.00    +0.000 HD
ENDBRANCH   2  21
BRANCH   1  25
ATOM     24  N   UNL     1       7.160   8.011  17.331  0.00  0.00    +0.000 NA
ATOM     25  C   UNL     1       6.482   6.949  17.360  0.00  0.00    +0.000 C 
ENDBRANCH   1  25
TORSDOF 3
ENDMDL
MODEL 7
REMARK VINA RESULT:      -6.4      1.636      4.548
REMARK  Name = 
REMARK  3 active torsions:
REMARK  status: ('A' for Active; 'I' for Inactive)
REMARK    1  A    between atoms: C_2  and  C_3
REMARK    2  A    between atoms: C_4  and  N_5
REMARK    3  A    between atoms: C_16  and  C_17
REMARK                            x       y       z     vdW  Elec       q    Type
REMARK                         _______ _______ _______ _____ _____    ______ ____
ROOT
ATOM      1  C   UNL     1       2.154   7.879  19.032  0.00  0.00    +0.000 C 
ATOM      2  C   UNL     1       1.712   7.927  20.311  0.00  0.00    +0.000 C 
ATOM      3  N   UNL     1       1.560   6.738  20.992  0.00  0.00    +0.000 N 
ATOM      4  C   UNL     1       1.751   5.512  20.468  0.00  0.00    +0.000 A 
ATOM      5  N   UNL     1       1.599   4.335  21.021  0.00  0.00    +0.000 NA
ATOM      6  C   UNL     1       1.897   3.429  20.027  0.00  0.00    +0.000 A 
ATOM      7  C   UNL     1       1.915   2.027  20.066  0.00  0.00    +0.000 A 
ATOM      8  C   UNL     1       2.248   1.319  18.904  0.00  0.00    +0.000 A 
ATOM      9  C   UNL     1       2.545   1.992  17.718  0.00  0.00    +0.000 A 
ATOM     10  C   UNL     1       2.531   3.388  17.655  0.00  0.00    +0.000 A 
ATOM     11  C   UNL     1       2.216   4.075  18.833  0.00  0.00    +0.000 A 
ATOM     12  N   UNL     1       2.160   5.404  19.165  0.00  0.00    +0.000 N 
ATOM     13  C   UNL     1       2.463   6.567  18.331  0.00  0.00    +0.000 C 
ATOM     14  H   UNL     1       1.156   6.800  21.920  0.00  0.00    +0.000 HD
ENDROOT
BRANCH  13  15
ATOM     15  C   UNL     1       3.911   6.512  17.856  0.00  0.00    +0.000 A 
ATOM     16  C   UNL     1       4.227   6.841  16.527  0.00  0.00    +0.000 A 
ATOM     17  C   UNL     1       5.549   6.793  16.083  0.00  0.00    +0.000 A 
ATOM     18  C   UNL     1       6.567   6.430  16.962  0.00  0.00    +0.000 A 
ATOM     19  C   UNL     1       6.271   6.113  18.285  0.00  0.00    +0.000 A 
ATOM     20  C   UNL     1       4.949   6.151  18.732  0.00  0.00    +0.000 A 
ENDBRANCH  13  15
BRANCH   2  21
ATOM     21  N   UNL     1       1.405   9.093  20.968  0.00  0.00    +0.000 N 
ATOM     22  H   UNL     1       0.718   9.693  20.517  0.00  0.00    +0.000 HD
ATOM     23  H   UNL     1       2.219   9.614  21.278  0.00  0.00    +0.000 HD
ENDBRANCH   2  21
BRANCH   1  25
ATOM     24  N   UNL     1       2.549  10.171  17.508  0.00  0.00    +0.000 NA
ATOM     25  C   UNL     1       2.370   9.131  18.199  0.00  0.00    +0.000 C 
ENDBRANCH   1  25
TORSDOF 3
ENDMDL
MODEL 8
REMARK VINA RESULT:      -6.2      1.739      4.643
REMARK  Name = 
REMARK  3 active torsions:
REMARK  status: ('A' for Active; 'I' for Inactive)
REMARK    1  A    between atoms: C_2  and  C_3
REMARK    2  A    between atoms: C_4  and  N_5
REMARK    3  A    between atoms: C_16  and  C_17
REMARK                            x       y       z     vdW  Elec       q    Type
REMARK                         _______ _______ _______ _____ _____    ______ ____
ROOT
ATOM      1  C   UNL     1       2.259   7.634  18.994  0.00  0.00    +0.000 C 
ATOM      2  C   UNL     1       1.788   7.677  20.263  0.00  0.00    +0.000 C 
ATOM      3  N   UNL     1       1.675   6.491  20.955  0.00  0.00    +0.000 N 
ATOM      4  C   UNL     1       1.932   5.269  20.451  0.00  0.00    +0.000 A 
ATOM      5  N   UNL     1       1.822   4.092  21.015  0.00  0.00    +0.000 NA
ATOM      6  C   UNL     1       2.181   3.190  20.038  0.00  0.00    +0.000 A 
ATOM      7  C   UNL     1       2.262   1.790  20.096  0.00  0.00    +0.000 A 
ATOM      8  C   UNL     1       2.652   1.085  18.950  0.00  0.00    +0.000 A 
ATOM      9  C   UNL     1       2.943   1.757  17.762  0.00  0.00    +0.000 A 
ATOM     10  C   UNL     1       2.868   3.150  17.681  0.00  0.00    +0.000 A 
ATOM     11  C   UNL     1       2.497   3.835  18.844  0.00  0.00    +0.000 A 
ATOM     12  N   UNL     1       2.374   5.164  19.158  0.00  0.00    +0.000 N 
ATOM     13  C   UNL     1       2.642   6.330  18.316  0.00  0.00    +0.000 C 
ATOM     14  H   UNL     1       1.249   6.545  21.873  0.00  0.00    +0.000 HD
ENDROOT
BRANCH  13  15
ATOM     15  C   UNL     1       4.101   6.335  17.873  0.00  0.00    +0.000 A 
ATOM     16  C   UNL     1       5.116   6.018  18.791  0.00  0.00    +0.000 A 
ATOM     17  C   UNL     1       6.454   6.022  18.395  0.00  0.00    +0.000 A 
ATOM     18  C   UNL     1       6.789   6.326  17.077  0.00  0.00    +0.000 A 
ATOM     19  C   UNL     1       5.794   6.631  16.153  0.00  0.00    +0.000 A 
ATOM     20  C   UNL     1       4.455   6.637  16.547  0.00  0.00    +0.000 A 
ENDBRANCH  13  15
BRANCH   2  21
ATOM     21  N   UNL     1       1.414   8.835  20.898  0.00  0.00    +0.000 N 
ATOM     22  H   UNL     1       2.004   9.648  20.731  0.00  0.00    +0.000 HD
ATOM     23  H   UNL     1       1.208   8.712  21.885  0.00  0.00    +0.000 HD
ENDBRANCH   2  21
BRANCH   1  25
ATOM     24  N   UNL     1       2.583   9.924  17.450  0.00  0.00    +0.000 NA
ATOM     25  C   UNL     1       2.436   8.886  18.150  0.00  0.00    +0.000 C 
ENDBRANCH   1  25
TORSDOF 3
ENDMDL
MODEL 9
REMARK VINA RESULT:      -6.1      4.528      8.656
REMARK  Name = 
REMARK  3 active torsions:
REMARK  status: ('A' for Active; 'I' for Inactive)
REMARK    1  A    between atoms: C_2  and  C_3
REMARK    2  A    between atoms: C_4  and  N_5
REMARK    3  A    between atoms: C_16  and  C_17
REMARK                            x       y       z     vdW  Elec       q    Type
REMARK                         _______ _______ _______ _____ _____    ______ ____
ROOT
ATOM      1  C   UNL     1       0.803   9.672  19.814  0.00  0.00    +0.000 C 
ATOM      2  C   UNL     1       0.977   8.895  20.909  0.00  0.00    +0.000 C 
ATOM      3  N   UNL     1       0.278   9.217  22.053  0.00  0.00    +0.000 N 
ATOM      4  C   UNL     1      -0.523  10.290  22.198  0.00  0.00    +0.000 A 
ATOM      5  N   UNL     1      -1.195  10.695  23.247  0.00  0.00    +0.000 NA
ATOM      6  C   UNL     1      -1.813  11.860  22.850  0.00  0.00    +0.000 A 
ATOM      7  C   UNL     1      -2.672  12.708  23.565  0.00  0.00    +0.000 A 
ATOM      8  C   UNL     1      -3.174  13.854  22.935  0.00  0.00    +0.000 A 
ATOM      9  C   UNL     1      -2.817  14.161  21.621  0.00  0.00    +0.000 A 
ATOM     10  C   UNL     1      -1.962  13.333  20.891  0.00  0.00    +0.000 A 
ATOM     11  C   UNL     1      -1.489  12.182  21.533  0.00  0.00    +0.000 A 
ATOM     12  N   UNL     1      -0.703  11.132  21.133  0.00  0.00    +0.000 N 
ATOM     13  C   UNL     1      -0.114  10.882  19.817  0.00  0.00    +0.000 C 
ATOM     14  H   UNL     1       0.486   8.665  22.877  0.00  0.00    +0.000 HD
ENDROOT
BRANCH  13  15
ATOM     15  C   UNL     1      -1.209  10.761  18.764  0.00  0.00    +0.000 A 
ATOM     16  C   UNL     1      -1.340  11.744  17.769  0.00  0.00    +0.000 A 
ATOM     17  C   UNL     1      -2.340  11.642  16.802  0.00  0.00    +0.000 A 
ATOM     18  C   UNL     1      -3.208  10.552  16.808  0.00  0.00    +0.000 A 
ATOM     19  C   UNL     1      -3.083   9.563  17.781  0.00  0.00    +0.000 A 
ATOM     20  C   UNL     1      -2.090   9.666  18.756  0.00  0.00    +0.000 A 
ENDBRANCH  13  15
BRANCH   2  21
ATOM     21  N   UNL     1       1.812   7.806  20.946  0.00  0.00    +0.000 N 
ATOM     22  H   UNL     1       2.806   7.999  20.838  0.00  0.00    +0.000 HD
ATOM     23  H   UNL     1       1.509   7.038  20.355  0.00  0.00    +0.000 HD
ENDBRANCH   2  21
BRANCH   1  25
ATOM     24  N   UNL     1       2.104   9.164  17.409  0.00  0.00    +0.000 NA
ATOM     25  C   UNL     1       1.514   9.394  18.499  0.00  0.00    +0.000 C 
ENDBRANCH   1  25
TORSDOF 3
ENDMDL
