MODEL 1
REMARK VINA RESULT:      -6.2      0.000      0.000
REMARK  Name = 
REMARK  4 active torsions:
REMARK  status: ('A' for Active; 'I' for Inactive)
REMARK    1  A    between atoms: C_1  and  N_2
REMARK    2  A    between atoms: C_5  and  C_6
REMARK    3  A    between atoms: C_7  and  C_8
REMARK    4  A    between atoms: C_16  and  C_17
REMARK                            x       y       z     vdW  Elec       q    Type
REMARK                         _______ _______ _______ _____ _____    ______ ____
ROOT
ATOM      1  C   UNL     1      -2.247  12.285  21.760  0.00  0.00    +0.000 A 
ATOM      2  C   UNL     1      -2.840  12.375  20.540  0.00  0.00    +0.000 A 
ATOM      3  C   UNL     1      -2.247  11.634  19.390  0.00  0.00    +0.000 A 
ATOM      4  C   UNL     1      -2.835  11.635  18.114  0.00  0.00    +0.000 A 
ATOM      5  C   UNL     1      -2.308  10.846  17.081  0.00  0.00    +0.000 A 
ATOM      6  C   UNL     1      -1.169  10.068  17.308  0.00  0.00    +0.000 A 
ATOM      7  C   UNL     1      -0.550  10.089  18.557  0.00  0.00    +0.000 A 
ATOM      8  C   UNL     1      -1.095  10.863  19.584  0.00  0.00    +0.000 A 
ATOM      9  N   UNL     1      -0.482  10.851  20.832  0.00  0.00    +0.000 N 
ATOM     10  C   UNL     1      -0.965  11.513  21.924  0.00  0.00    +0.000 A 
ATOM     11  O   UNL     1      -0.337  11.462  22.980  0.00  0.00    +0.000 OA
ATOM     12  H   UNL     1       0.364  10.321  20.993  0.00  0.00    +0.000 HD
ENDROOT
BRANCH   1  17
ATOM     13  C   UNL     1      -3.022  15.069  25.749  0.00  0.00    +0.000 C 
ATOM     14  N   UNL     1      -3.117  14.060  24.727  0.00  0.00    +0.000 N 
ATOM     15  C   UNL     1      -3.908  12.947  24.761  0.00  0.00    +0.000 A 
ATOM     16  N   UNL     1      -3.730  12.198  23.695  0.00  0.00    +0.000 NA
ATOM     17  C   UNL     1      -2.768  12.851  22.964  0.00  0.00    +0.000 A 
ATOM     18  C   UNL     1      -2.390  14.027  23.569  0.00  0.00    +0.000 A 
ENDBRANCH   1  17
BRANCH   2  19
ATOM     19  C   UNL     1      -4.106  13.148  20.435  0.00  0.00    +0.000 A 
ATOM     20  C   UNL     1      -4.091  14.549  20.403  0.00  0.00    +0.000 A 
ATOM     21  C   UNL     1      -5.291  15.263  20.348  0.00  0.00    +0.000 A 
ATOM     22  C   UNL     1      -6.507  14.582  20.313  0.00  0.00    +0.000 A 
ATOM     23  C   UNL     1      -6.529  13.189  20.326  0.00  0.00    +0.000 A 
ATOM     24  C   UNL     1      -5.332  12.473  20.387  0.00  0.00    +0.000 A 
ENDBRANCH   2  19
BRANCH   5  25
ATOM     25  C   UNL     1      -2.949  10.816  15.801  0.00  0.00    +0.000 C 
ATOM     26  N   UNL     1      -3.466  10.783  14.759  0.00  0.00    +0.000 NA
ENDBRANCH   5  25
TORSDOF 3
ENDMDL
MODEL 2
REMARK VINA RESULT:      -6.1      0.410      1.044
REMARK  Name = 
REMARK  4 active torsions:
REMARK  status: ('A' for Active; 'I' for Inactive)
REMARK    1  A    between atoms: C_1  and  N_2
REMARK    2  A    between atoms: C_5  and  C_6
REMARK    3  A    between atoms: C_7  and  C_8
REMARK    4  A    between atoms: C_16  and  C_17
REMARK                            x       y       z     vdW  Elec       q    Type
REMARK                         _______ _______ _______ _____ _____    ______ ____
ROOT
ATOM      1  C   UNL     1      -2.393  12.421  21.582  0.00  0.00    +0.000 A 
ATOM      2  C   UNL     1      -3.071  12.363  20.404  0.00  0.00    +0.000 A 
ATOM      3  C   UNL     1      -2.472  11.618  19.260  0.00  0.00    +0.000 A 
ATOM      4  C   UNL     1      -3.138  11.468  18.032  0.00  0.00    +0.000 A 
ATOM      5  C   UNL     1      -2.591  10.676  17.012  0.00  0.00    +0.000 A 
ATOM      6  C   UNL     1      -1.357  10.047  17.201  0.00  0.00    +0.000 A 
ATOM      7  C   UNL     1      -0.665  10.220  18.399  0.00  0.00    +0.000 A 
ATOM      8  C   UNL     1      -1.228  10.995  19.416  0.00  0.00    +0.000 A 
ATOM      9  N   UNL     1      -0.538  11.133  20.614  0.00  0.00    +0.000 N 
ATOM     10  C   UNL     1      -1.023  11.809  21.698  0.00  0.00    +0.000 A 
ATOM     11  O   UNL     1      -0.326  11.898  22.707  0.00  0.00    +0.000 OA
ATOM     12  H   UNL     1       0.372  10.713  20.745  0.00  0.00    +0.000 HD
ENDROOT
BRANCH   1  17
ATOM     13  C   UNL     1      -3.262  15.387  25.417  0.00  0.00    +0.000 C 
ATOM     14  N   UNL     1      -3.283  14.293  24.482  0.00  0.00    +0.000 N 
ATOM     15  C   UNL     1      -3.893  13.084  24.666  0.00  0.00    +0.000 A 
ATOM     16  N   UNL     1      -3.689  12.282  23.644  0.00  0.00    +0.000 NA
ATOM     17  C   UNL     1      -2.897  13.004  22.785  0.00  0.00    +0.000 A 
ATOM     18  C   UNL     1      -2.654  14.269  23.269  0.00  0.00    +0.000 A 
ENDBRANCH   1  17
BRANCH   2  19
ATOM     19  C   UNL     1      -4.421  12.982  20.346  0.00  0.00    +0.000 A 
ATOM     20  C   UNL     1      -5.577  12.200  20.471  0.00  0.00    +0.000 A 
ATOM     21  C   UNL     1      -6.839  12.791  20.370  0.00  0.00    +0.000 A 
ATOM     22  C   UNL     1      -6.952  14.164  20.157  0.00  0.00    +0.000 A 
ATOM     23  C   UNL     1      -5.807  14.951  20.050  0.00  0.00    +0.000 A 
ATOM     24  C   UNL     1      -4.544  14.363  20.145  0.00  0.00    +0.000 A 
ENDBRANCH   2  19
BRANCH   5  25
ATOM     25  C   UNL     1      -3.306  10.491  15.785  0.00  0.00    +0.000 C 
ATOM     26  N   UNL     1      -3.887  10.329  14.791  0.00  0.00    +0.000 NA
ENDBRANCH   5  25
TORSDOF 3
ENDMDL
MODEL 3
REMARK VINA RESULT:      -6.1      1.562      1.981
REMARK  Name = 
REMARK  4 active torsions:
REMARK  status: ('A' for Active; 'I' for Inactive)
REMARK    1  A    between atoms: C_1  and  N_2
REMARK    2  A    between atoms: C_5  and  C_6
REMARK    3  A    between atoms: C_7  and  C_8
REMARK    4  A    between atoms: C_16  and  C_17
REMARK                            x       y       z     vdW  Elec       q    Type
REMARK                         _______ _______ _______ _____ _____    ______ ____
ROOT
ATOM      1  C   UNL     1      -3.542  12.788  21.186  0.00  0.00    +0.000 A 
ATOM      2  C   UNL     1      -3.911  12.492  19.911  0.00  0.00    +0.000 A 
ATOM      3  C   UNL     1      -2.944  11.786  19.023  0.00  0.00    +0.000 A 
ATOM      4  C   UNL     1      -3.273  11.399  17.713  0.00  0.00    +0.000 A 
ATOM      5  C   UNL     1      -2.376  10.646  16.941  0.00  0.00    +0.000 A 
ATOM      6  C   UNL     1      -1.128  10.296  17.463  0.00  0.00    +0.000 A 
ATOM      7  C   UNL     1      -0.770  10.709  18.746  0.00  0.00    +0.000 A 
ATOM      8  C   UNL     1      -1.679  11.441  19.514  0.00  0.00    +0.000 A 
ATOM      9  N   UNL     1      -1.317  11.820  20.802  0.00  0.00    +0.000 N 
ATOM     10  C   UNL     1      -2.149  12.477  21.664  0.00  0.00    +0.000 A 
ATOM     11  O   UNL     1      -1.729  12.792  22.775  0.00  0.00    +0.000 OA
ATOM     12  H   UNL     1      -0.402  11.604  21.172  0.00  0.00    +0.000 HD
ENDROOT
BRANCH   1  17
ATOM     13  C   UNL     1      -5.892  15.882  24.215  0.00  0.00    +0.000 C 
ATOM     14  N   UNL     1      -5.439  14.707  23.516  0.00  0.00    +0.000 N 
ATOM     15  C   UNL     1      -5.719  13.412  23.846  0.00  0.00    +0.000 A 
ATOM     16  N   UNL     1      -5.115  12.568  23.038  0.00  0.00    +0.000 NA
ATOM     17  C   UNL     1      -4.403  13.361  22.172  0.00  0.00    +0.000 A 
ATOM     18  C   UNL     1      -4.610  14.697  22.429  0.00  0.00    +0.000 A 
ENDBRANCH   1  17
BRANCH   2  19
ATOM     19  C   UNL     1      -5.299  12.821  19.493  0.00  0.00    +0.000 A 
ATOM     20  C   UNL     1      -6.318  11.861  19.565  0.00  0.00    +0.000 A 
ATOM     21  C   UNL     1      -7.607  12.172  19.127  0.00  0.00    +0.000 A 
ATOM     22  C   UNL     1      -7.889  13.443  18.628  0.00  0.00    +0.000 A 
ATOM     23  C   UNL     1      -6.885  14.409  18.571  0.00  0.00    +0.000 A 
ATOM     24  C   UNL     1      -5.594  14.100  19.002  0.00  0.00    +0.000 A 
ENDBRANCH   2  19
BRANCH   5  25
ATOM     25  C   UNL     1      -2.747  10.214  15.627  0.00  0.00    +0.000 C 
ATOM     26  N   UNL     1      -3.050   9.873  14.557  0.00  0.00    +0.000 NA
ENDBRANCH   5  25
TORSDOF 3
ENDMDL
MODEL 4
REMARK VINA RESULT:      -6.0      2.754      4.533
REMARK  Name = 
REMARK  4 active torsions:
REMARK  status: ('A' for Active; 'I' for Inactive)
REMARK    1  A    between atoms: C_1  and  N_2
REMARK    2  A    between atoms: C_5  and  C_6
REMARK    3  A    between atoms: C_7  and  C_8
REMARK    4  A    between atoms: C_16  and  C_17
REMARK                            x       y       z     vdW  Elec       q    Type
REMARK                         _______ _______ _______ _____ _____    ______ ____
ROOT
ATOM      1  C   UNL     1      -5.564  12.823  19.171  0.00  0.00    +0.000 A 
ATOM      2  C   UNL     1      -4.301  12.487  19.545  0.00  0.00    +0.000 A 
ATOM      3  C   UNL     1      -3.503  11.581  18.671  0.00  0.00    +0.000 A 
ATOM      4  C   UNL     1      -2.174  11.234  18.965  0.00  0.00    +0.000 A 
ATOM      5  C   UNL     1      -1.419  10.462  18.069  0.00  0.00    +0.000 A 
ATOM      6  C   UNL     1      -1.998  10.005  16.881  0.00  0.00    +0.000 A 
ATOM      7  C   UNL     1      -3.329  10.306  16.596  0.00  0.00    +0.000 A 
ATOM      8  C   UNL     1      -4.065  11.093  17.485  0.00  0.00    +0.000 A 
ATOM      9  N   UNL     1      -5.382  11.407  17.172  0.00  0.00    +0.000 N 
ATOM     10  C   UNL     1      -6.172  12.222  17.932  0.00  0.00    +0.000 A 
ATOM     11  O   UNL     1      -7.335  12.421  17.584  0.00  0.00    +0.000 OA
ATOM     12  H   UNL     1      -5.820  11.048  16.334  0.00  0.00    +0.000 HD
ENDROOT
BRANCH   1  17
ATOM     13  C   UNL     1      -7.655  16.939  20.889  0.00  0.00    +0.000 C 
ATOM     14  N   UNL     1      -7.318  15.564  20.626  0.00  0.00    +0.000 N 
ATOM     15  C   UNL     1      -7.777  14.475  21.310  0.00  0.00    +0.000 A 
ATOM     16  N   UNL     1      -7.245  13.362  20.855  0.00  0.00    +0.000 NA
ATOM     17  C   UNL     1      -6.395  13.764  19.854  0.00  0.00    +0.000 A 
ATOM     18  C   UNL     1      -6.443  15.126  19.671  0.00  0.00    +0.000 A 
ENDBRANCH   1  17
BRANCH   2  19
ATOM     19  C   UNL     1      -3.750  13.111  20.777  0.00  0.00    +0.000 A 
ATOM     20  C   UNL     1      -2.994  14.289  20.709  0.00  0.00    +0.000 A 
ATOM     21  C   UNL     1      -2.445  14.839  21.870  0.00  0.00    +0.000 A 
ATOM     22  C   UNL     1      -2.661  14.225  23.103  0.00  0.00    +0.000 A 
ATOM     23  C   UNL     1      -3.428  13.063  23.181  0.00  0.00    +0.000 A 
ATOM     24  C   UNL     1      -3.971  12.508  22.022  0.00  0.00    +0.000 A 
ENDBRANCH   2  19
BRANCH   5  25
ATOM     25  C   UNL     1      -0.049  10.161  18.357  0.00  0.00    +0.000 C 
ATOM     26  N   UNL     1       1.064   9.910  18.583  0.00  0.00    +0.000 NA
ENDBRANCH   5  25
TORSDOF 3
ENDMDL
MODEL 5
REMARK VINA RESULT:      -6.0      2.371      7.027
REMARK  Name = 
REMARK  4 active torsions:
REMARK  status: ('A' for Active; 'I' for Inactive)
REMARK    1  A    between atoms: C_1  and  N_2
REMARK    2  A    between atoms: C_5  and  C_6
REMARK    3  A    between atoms: C_7  and  C_8
REMARK    4  A    between atoms: C_16  and  C_17
REMARK                            x       y       z     vdW  Elec       q    Type
REMARK                         _______ _______ _______ _____ _____    ______ ____
ROOT
ATOM      1  C   UNL     1      -3.588  11.825  18.944  0.00  0.00    +0.000 A 
ATOM      2  C   UNL     1      -2.650  12.379  19.759  0.00  0.00    +0.000 A 
ATOM      3  C   UNL     1      -3.088  13.055  21.013  0.00  0.00    +0.000 A 
ATOM      4  C   UNL     1      -2.174  13.601  21.929  0.00  0.00    +0.000 A 
ATOM      5  C   UNL     1      -2.614  14.139  23.147  0.00  0.00    +0.000 A 
ATOM      6  C   UNL     1      -3.979  14.161  23.449  0.00  0.00    +0.000 A 
ATOM      7  C   UNL     1      -4.902  13.661  22.531  0.00  0.00    +0.000 A 
ATOM      8  C   UNL     1      -4.451  13.109  21.330  0.00  0.00    +0.000 A 
ATOM      9  N   UNL     1      -5.382  12.589  20.438  0.00  0.00    +0.000 N 
ATOM     10  C   UNL     1      -5.051  11.966  19.268  0.00  0.00    +0.000 A 
ATOM     11  O   UNL     1      -5.948  11.560  18.533  0.00  0.00    +0.000 OA
ATOM     12  H   UNL     1      -6.373  12.636  20.632  0.00  0.00    +0.000 HD
ENDROOT
BRANCH   1  17
ATOM     13  C   UNL     1      -3.095  10.248  14.304  0.00  0.00    +0.000 C 
ATOM     14  N   UNL     1      -3.086  10.345  15.740  0.00  0.00    +0.000 N 
ATOM     15  C   UNL     1      -2.858   9.324  16.618  0.00  0.00    +0.000 A 
ATOM     16  N   UNL     1      -2.967   9.728  17.865  0.00  0.00    +0.000 NA
ATOM     17  C   UNL     1      -3.301  11.056  17.774  0.00  0.00    +0.000 A 
ATOM     18  C   UNL     1      -3.352  11.474  16.464  0.00  0.00    +0.000 A 
ENDBRANCH   1  17
BRANCH   2  19
ATOM     19  C   UNL     1      -1.219  12.208  19.391  0.00  0.00    +0.000 A 
ATOM     20  C   UNL     1      -0.503  11.075  19.798  0.00  0.00    +0.000 A 
ATOM     21  C   UNL     1       0.852  10.951  19.483  0.00  0.00    +0.000 A 
ATOM     22  C   UNL     1       1.493  11.948  18.749  0.00  0.00    +0.000 A 
ATOM     23  C   UNL     1       0.782  13.070  18.324  0.00  0.00    +0.000 A 
ATOM     24  C   UNL     1      -0.570  13.200  18.644  0.00  0.00    +0.000 A 
ENDBRANCH   2  19
BRANCH   5  25
ATOM     25  C   UNL     1      -1.666  14.644  24.095  0.00  0.00    +0.000 C 
ATOM     26  N   UNL     1      -0.894  15.045  24.866  0.00  0.00    +0.000 NA
ENDBRANCH   5  25
TORSDOF 3
ENDMDL
MODEL 6
REMARK VINA RESULT:      -6.0      2.729      6.185
REMARK  Name = 
REMARK  4 active torsions:
REMARK  status: ('A' for Active; 'I' for Inactive)
REMARK    1  A    between atoms: C_1  and  N_2
REMARK    2  A    between atoms: C_5  and  C_6
REMARK    3  A    between atoms: C_7  and  C_8
REMARK    4  A    between atoms: C_16  and  C_17
REMARK                            x       y       z     vdW  Elec       q    Type
REMARK                         _______ _______ _______ _____ _____    ______ ____
ROOT
ATOM      1  C   UNL     1      -3.161  12.017  19.211  0.00  0.00    +0.000 A 
ATOM      2  C   UNL     1      -3.619  12.545  20.378  0.00  0.00    +0.000 A 
ATOM      3  C   UNL     1      -5.071  12.439  20.699  0.00  0.00    +0.000 A 
ATOM      4  C   UNL     1      -5.608  12.911  21.908  0.00  0.00    +0.000 A 
ATOM      5  C   UNL     1      -6.960  12.703  22.222  0.00  0.00    +0.000 A 
ATOM      6  C   UNL     1      -7.795  12.045  21.315  0.00  0.00    +0.000 A 
ATOM      7  C   UNL     1      -7.286  11.607  20.093  0.00  0.00    +0.000 A 
ATOM      8  C   UNL     1      -5.934  11.801  19.799  0.00  0.00    +0.000 A 
ATOM      9  N   UNL     1      -5.437  11.334  18.588  0.00  0.00    +0.000 N 
ATOM     10  C   UNL     1      -4.121  11.407  18.226  0.00  0.00    +0.000 A 
ATOM     11  O   UNL     1      -3.781  10.988  17.122  0.00  0.00    +0.000 OA
ATOM     12  H   UNL     1      -6.042  10.891  17.911  0.00  0.00    +0.000 HD
ENDROOT
BRANCH   1  17
ATOM     13  C   UNL     1       1.516  10.626  18.537  0.00  0.00    +0.000 C 
ATOM     14  N   UNL     1       0.277  11.358  18.535  0.00  0.00    +0.000 N 
ATOM     15  C   UNL     1       0.110  12.664  18.170  0.00  0.00    +0.000 A 
ATOM     16  N   UNL     1      -1.137  13.051  18.325  0.00  0.00    +0.000 NA
ATOM     17  C   UNL     1      -1.785  11.952  18.831  0.00  0.00    +0.000 A 
ATOM     18  C   UNL     1      -0.935  10.875  18.944  0.00  0.00    +0.000 A 
ENDBRANCH   1  17
BRANCH   2  19
ATOM     19  C   UNL     1      -2.627  13.133  21.315  0.00  0.00    +0.000 A 
ATOM     20  C   UNL     1      -2.305  14.496  21.259  0.00  0.00    +0.000 A 
ATOM     21  C   UNL     1      -1.338  15.025  22.117  0.00  0.00    +0.000 A 
ATOM     22  C   UNL     1      -0.698  14.200  23.042  0.00  0.00    +0.000 A 
ATOM     23  C   UNL     1      -1.026  12.847  23.116  0.00  0.00    +0.000 A 
ATOM     24  C   UNL     1      -1.987  12.314  22.256  0.00  0.00    +0.000 A 
ENDBRANCH   2  19
BRANCH   5  25
ATOM     25  C   UNL     1      -7.481  13.144  23.482  0.00  0.00    +0.000 C 
ATOM     26  N   UNL     1      -7.914  13.502  24.500  0.00  0.00    +0.000 NA
ENDBRANCH   5  25
TORSDOF 3
ENDMDL
MODEL 7
REMARK VINA RESULT:      -5.9      1.756      2.113
REMARK  Name = 
REMARK  4 active torsions:
REMARK  status: ('A' for Active; 'I' for Inactive)
REMARK    1  A    between atoms: C_1  and  N_2
REMARK    2  A    between atoms: C_5  and  C_6
REMARK    3  A    between atoms: C_7  and  C_8
REMARK    4  A    between atoms: C_16  and  C_17
REMARK                            x       y       z     vdW  Elec       q    Type
REMARK                         _______ _______ _______ _____ _____    ______ ____
ROOT
ATOM      1  C   UNL     1      -3.739  12.867  21.370  0.00  0.00    +0.000 A 
ATOM      2  C   UNL     1      -4.019  12.614  20.063  0.00  0.00    +0.000 A 
ATOM      3  C   UNL     1      -3.012  11.893  19.233  0.00  0.00    +0.000 A 
ATOM      4  C   UNL     1      -3.253  11.548  17.892  0.00  0.00    +0.000 A 
ATOM      5  C   UNL     1      -2.326  10.781  17.171  0.00  0.00    +0.000 A 
ATOM      6  C   UNL     1      -1.134  10.375  17.777  0.00  0.00    +0.000 A 
ATOM      7  C   UNL     1      -0.861  10.745  19.093  0.00  0.00    +0.000 A 
ATOM      8  C   UNL     1      -1.801  11.492  19.809  0.00  0.00    +0.000 A 
ATOM      9  N   UNL     1      -1.525  11.828  21.129  0.00  0.00    +0.000 N 
ATOM     10  C   UNL     1      -2.397  12.495  21.943  0.00  0.00    +0.000 A 
ATOM     11  O   UNL     1      -2.053  12.769  23.091  0.00  0.00    +0.000 OA
ATOM     12  H   UNL     1      -0.649  11.571  21.562  0.00  0.00    +0.000 HD
ENDROOT
BRANCH   1  17
ATOM     13  C   UNL     1      -7.554  13.740  24.360  0.00  0.00    +0.000 C 
ATOM     14  N   UNL     1      -6.328  13.850  23.613  0.00  0.00    +0.000 N 
ATOM     15  C   UNL     1      -5.571  14.978  23.465  0.00  0.00    +0.000 A 
ATOM     16  N   UNL     1      -4.535  14.762  22.684  0.00  0.00    +0.000 NA
ATOM     17  C   UNL     1      -4.652  13.448  22.302  0.00  0.00    +0.000 A 
ATOM     18  C   UNL     1      -5.743  12.849  22.890  0.00  0.00    +0.000 A 
ENDBRANCH   1  17
BRANCH   2  19
ATOM     19  C   UNL     1      -5.359  13.001  19.550  0.00  0.00    +0.000 A 
ATOM     20  C   UNL     1      -5.672  14.344  19.298  0.00  0.00    +0.000 A 
ATOM     21  C   UNL     1      -6.950  14.696  18.858  0.00  0.00    +0.000 A 
ATOM     22  C   UNL     1      -7.915  13.711  18.655  0.00  0.00    +0.000 A 
ATOM     23  C   UNL     1      -7.606  12.371  18.885  0.00  0.00    +0.000 A 
ATOM     24  C   UNL     1      -6.332  12.016  19.331  0.00  0.00    +0.000 A 
ENDBRANCH   2  19
BRANCH   5  25
ATOM     25  C   UNL     1      -2.610  10.393  15.822  0.00  0.00    +0.000 C 
ATOM     26  N   UNL     1      -2.850  10.083  14.727  0.00  0.00    +0.000 NA
ENDBRANCH   5  25
TORSDOF 3
ENDMDL
MODEL 8
REMARK VINA RESULT:      -5.9     11.162     12.466
REMARK  Name = 
REMARK  4 active torsions:
REMARK  status: ('A' for Active; 'I' for Inactive)
REMARK    1  A    between atoms: C_1  and  N_2
REMARK    2  A    between atoms: C_5  and  C_6
REMARK    3  A    between atoms: C_7  and  C_8
REMARK    4  A    between atoms: C_16  and  C_17
REMARK                            x       y       z     vdW  Elec       q    Type
REMARK                         _______ _______ _______ _____ _____    ______ ____
ROOT
ATOM      1  C   UNL     1       8.532  13.184  22.906  0.00  0.00    +0.000 A 
ATOM      2  C   UNL     1       9.172  13.730  21.838  0.00  0.00    +0.000 A 
ATOM      3  C   UNL     1       9.604  12.842  20.720  0.00  0.00    +0.000 A 
ATOM      4  C   UNL     1      10.221  13.342  19.561  0.00  0.00    +0.000 A 
ATOM      5  C   UNL     1      10.521  12.493  18.486  0.00  0.00    +0.000 A 
ATOM      6  C   UNL     1      10.232  11.128  18.571  0.00  0.00    +0.000 A 
ATOM      7  C   UNL     1       9.658  10.610  19.732  0.00  0.00    +0.000 A 
ATOM      8  C   UNL     1       9.345  11.469  20.789  0.00  0.00    +0.000 A 
ATOM      9  N   UNL     1       8.747  10.940  21.927  0.00  0.00    +0.000 N 
ATOM     10  C   UNL     1       8.336  11.693  22.991  0.00  0.00    +0.000 A 
ATOM     11  O   UNL     1       7.839  11.131  23.965  0.00  0.00    +0.000 OA
ATOM     12  H   UNL     1       8.570   9.949  22.013  0.00  0.00    +0.000 HD
ENDROOT
BRANCH   1  17
ATOM     13  C   UNL     1       7.717  15.371  27.244  0.00  0.00    +0.000 C 
ATOM     14  N   UNL     1       7.594  14.887  25.893  0.00  0.00    +0.000 N 
ATOM     15  C   UNL     1       6.466  14.920  25.123  0.00  0.00    +0.000 A 
ATOM     16  N   UNL     1       6.667  14.357  23.952  0.00  0.00    +0.000 NA
ATOM     17  C   UNL     1       7.970  13.928  23.988  0.00  0.00    +0.000 A 
ATOM     18  C   UNL     1       8.580  14.272  25.173  0.00  0.00    +0.000 A 
ENDBRANCH   1  17
BRANCH   2  19
ATOM     19  C   UNL     1       9.338  15.207  21.805  0.00  0.00    +0.000 A 
ATOM     20  C   UNL     1       8.365  16.026  21.216  0.00  0.00    +0.000 A 
ATOM     21  C   UNL     1       8.555  17.409  21.154  0.00  0.00    +0.000 A 
ATOM     22  C   UNL     1       9.709  17.980  21.689  0.00  0.00    +0.000 A 
ATOM     23  C   UNL     1      10.672  17.173  22.293  0.00  0.00    +0.000 A 
ATOM     24  C   UNL     1      10.488  15.791  22.351  0.00  0.00    +0.000 A 
ENDBRANCH   2  19
BRANCH   5  25
ATOM     25  C   UNL     1      11.102  13.025  17.290  0.00  0.00    +0.000 C 
ATOM     26  N   UNL     1      11.582  13.462  16.325  0.00  0.00    +0.000 NA
ENDBRANCH   5  25
TORSDOF 3
ENDMDL
MODEL 9
REMARK VINA RESULT:      -5.9      2.633      4.267
REMARK  Name = 
REMARK  4 active torsions:
REMARK  status: ('A' for Active; 'I' for Inactive)
REMARK    1  A    between atoms: C_1  and  N_2
REMARK    2  A    between atoms: C_5  and  C_6
REMARK    3  A    between atoms: C_7  and  C_8
REMARK    4  A    between atoms: C_16  and  C_17
REMARK                            x       y       z     vdW  Elec       q    Type
REMARK                         _______ _______ _______ _____ _____    ______ ____
ROOT
ATOM      1  C   UNL     1      -4.964  12.948  19.802  0.00  0.00    +0.000 A 
ATOM      2  C   UNL     1      -3.679  12.532  19.953  0.00  0.00    +0.000 A 
ATOM      3  C   UNL     1      -3.099  11.592  18.953  0.00  0.00    +0.000 A 
ATOM      4  C   UNL     1      -1.762  11.162  19.013  0.00  0.00    +0.000 A 
ATOM      5  C   UNL     1      -1.221  10.359  17.999  0.00  0.00    +0.000 A 
ATOM      6  C   UNL     1      -2.020   9.953  16.926  0.00  0.00    +0.000 A 
ATOM      7  C   UNL     1      -3.360  10.337  16.874  0.00  0.00    +0.000 A 
ATOM      8  C   UNL     1      -3.883  11.154  17.879  0.00  0.00    +0.000 A 
ATOM      9  N   UNL     1      -5.213  11.550  17.797  0.00  0.00    +0.000 N 
ATOM     10  C   UNL     1      -5.811  12.401  18.683  0.00  0.00    +0.000 A 
ATOM     11  O   UNL     1      -7.001  12.674  18.541  0.00  0.00    +0.000 OA
ATOM     12  H   UNL     1      -5.809  11.230  17.045  0.00  0.00    +0.000 HD
ENDROOT
BRANCH   1  17
ATOM     13  C   UNL     1      -7.654  15.241  23.233  0.00  0.00    +0.000 C 
ATOM     14  N   UNL     1      -6.792  14.950  22.117  0.00  0.00    +0.000 N 
ATOM     15  C   UNL     1      -6.357  15.841  21.178  0.00  0.00    +0.000 A 
ATOM     16  N   UNL     1      -5.621  15.252  20.261  0.00  0.00    +0.000 NA
ATOM     17  C   UNL     1      -5.607  13.927  20.620  0.00  0.00    +0.000 A 
ATOM     18  C   UNL     1      -6.303  13.716  21.788  0.00  0.00    +0.000 A 
ENDBRANCH   1  17
BRANCH   2  19
ATOM     19  C   UNL     1      -2.888  13.106  21.074  0.00  0.00    +0.000 A 
ATOM     20  C   UNL     1      -2.184  14.307  20.916  0.00  0.00    +0.000 A 
ATOM     21  C   UNL     1      -1.410  14.810  21.965  0.00  0.00    +0.000 A 
ATOM     22  C   UNL     1      -1.347  14.125  23.178  0.00  0.00    +0.000 A 
ATOM     23  C   UNL     1      -2.060  12.939  23.349  0.00  0.00    +0.000 A 
ATOM     24  C   UNL     1      -2.829  12.430  22.301  0.00  0.00    +0.000 A 
ENDBRANCH   2  19
BRANCH   5  25
ATOM     25  C   UNL     1       0.158   9.972  18.047  0.00  0.00    +0.000 C 
ATOM     26  N   UNL     1       1.274   9.648  18.089  0.00  0.00    +0.000 NA
ENDBRANCH   5  25
TORSDOF 3
ENDMDL
