MODEL 1
REMARK VINA RESULT:      -6.6      0.000      0.000
REMARK  Name = 
REMARK  6 active torsions:
REMARK  status: ('A' for Active; 'I' for Inactive)
REMARK    1  A    between atoms: C_1  and  O_2
REMARK    2  A    between atoms: O_2  and  C_3
REMARK    3  A    between atoms: C_7  and  C_8
REMARK    4  A    between atoms: N_15  and  C_16
REMARK    5  A    between atoms: C_16  and  C_17
REMARK    6  A    between atoms: C_16  and  C_18
REMARK                            x       y       z     vdW  Elec       q    Type
REMARK                         _______ _______ _______ _____ _____    ______ ____
ROOT
ATOM      1  C   UNL     1       5.548   4.494  17.633  0.00  0.00    +0.000 A 
ATOM      2  N   UNL     1       6.454   4.758  18.663  0.00  0.00    +0.000 NA
ATOM      3  C   UNL     1       5.764   4.633  19.772  0.00  0.00    +0.000 A 
ATOM      4  N   UNL     1       4.509   4.214  19.485  0.00  0.00    +0.000 N 
ATOM      5  C   UNL     1       4.283   4.450  18.150  0.00  0.00    +0.000 A 
ATOM      6  C   UNL     1       2.911   4.626  17.730  0.00  0.00    +0.000 A 
ATOM      7  O   UNL     1       2.477   4.424  16.606  0.00  0.00    +0.000 OA
ATOM      8  N   UNL     1       2.148   5.250  18.784  0.00  0.00    +0.000 N 
ATOM      9  C   UNL     1       2.239   4.469  20.007  0.00  0.00    +0.000 A 
ATOM     10  C   UNL     1       1.089   3.989  20.625  0.00  0.00    +0.000 A 
ATOM     11  C   UNL     1       1.147   2.808  21.382  0.00  0.00    +0.000 A 
ATOM     12  C   UNL     1       2.360   2.106  21.536  0.00  0.00    +0.000 A 
ATOM     13  C   UNL     1       3.543   2.646  21.034  0.00  0.00    +0.000 A 
ATOM     14  C   UNL     1       3.461   3.834  20.298  0.00  0.00    +0.000 A 
ENDROOT
BRANCH   1  19
ATOM     15  C   UNL     1       7.354   5.038  14.409  0.00  0.00    +0.000 A 
ATOM     16  C   UNL     1       6.491   4.368  13.538  0.00  0.00    +0.000 A 
ATOM     17  C   UNL     1       5.416   3.628  14.031  0.00  0.00    +0.000 A 
ATOM     18  C   UNL     1       5.178   3.589  15.393  0.00  0.00    +0.000 A 
ATOM     19  C   UNL     1       6.005   4.293  16.280  0.00  0.00    +0.000 A 
ATOM     20  C   UNL     1       7.115   4.987  15.779  0.00  0.00    +0.000 A 
BRANCH  15  22
ATOM     21  C   UNL     1       8.311   5.809  12.376  0.00  0.00    +0.000 C 
ATOM     22  O   UNL     1       8.349   5.753  13.798  0.00  0.00    +0.000 OA
ENDBRANCH  15  22
ENDBRANCH   1  19
BRANCH   8  23
ATOM     23  C   UNL     1       2.569   6.685  18.810  0.00  0.00    +0.000 C 
ATOM     24  C   UNL     1       2.177   7.367  17.496  0.00  0.00    +0.000 C 
ATOM     25  C   UNL     1       2.202   7.555  20.011  0.00  0.00    +0.000 C 
ENDBRANCH   8  23
TORSDOF 3
ENDMDL
MODEL 2
REMARK VINA RESULT:      -6.5      4.627      7.882
REMARK  Name = 
REMARK  6 active torsions:
REMARK  status: ('A' for Active; 'I' for Inactive)
REMARK    1  A    between atoms: C_1  and  O_2
REMARK    2  A    between atoms: O_2  and  C_3
REMARK    3  A    between atoms: C_7  and  C_8
REMARK    4  A    between atoms: N_15  and  C_16
REMARK    5  A    between atoms: C_16  and  C_17
REMARK    6  A    between atoms: C_16  and  C_18
REMARK                            x       y       z     vdW  Elec       q    Type
REMARK                         _______ _______ _______ _____ _____    ______ ____
ROOT
ATOM      1  C   UNL     1       1.404   8.567  20.918  0.00  0.00    +0.000 A 
ATOM      2  N   UNL     1       1.990   8.663  22.182  0.00  0.00    +0.000 NA
ATOM      3  C   UNL     1       1.443   9.720  22.737  0.00  0.00    +0.000 A 
ATOM      4  N   UNL     1       0.486  10.221  21.923  0.00  0.00    +0.000 N 
ATOM      5  C   UNL     1       0.695   9.708  20.664  0.00  0.00    +0.000 A 
ATOM      6  C   UNL     1       0.206  10.479  19.543  0.00  0.00    +0.000 A 
ATOM      7  O   UNL     1      -0.084  10.034  18.443  0.00  0.00    +0.000 OA
ATOM      8  N   UNL     1       0.277  11.889  19.845  0.00  0.00    +0.000 N 
ATOM      9  C   UNL     1      -0.461  12.185  21.063  0.00  0.00    +0.000 A 
ATOM     10  C   UNL     1      -1.498  13.112  21.052  0.00  0.00    +0.000 A 
ATOM     11  C   UNL     1      -2.557  12.981  21.964  0.00  0.00    +0.000 A 
ATOM     12  C   UNL     1      -2.578  11.929  22.902  0.00  0.00    +0.000 A 
ATOM     13  C   UNL     1      -1.483  11.074  23.012  0.00  0.00    +0.000 A 
ATOM     14  C   UNL     1      -0.431  11.236  22.102  0.00  0.00    +0.000 A 
ENDROOT
BRANCH   1  19
ATOM     15  C   UNL     1       1.729   4.967  19.973  0.00  0.00    +0.000 A 
ATOM     16  C   UNL     1       2.478   5.097  18.801  0.00  0.00    +0.000 A 
ATOM     17  C   UNL     1       2.739   6.355  18.259  0.00  0.00    +0.000 A 
ATOM     18  C   UNL     1       2.287   7.490  18.910  0.00  0.00    +0.000 A 
ATOM     19  C   UNL     1       1.574   7.382  20.113  0.00  0.00    +0.000 A 
ATOM     20  C   UNL     1       1.269   6.111  20.619  0.00  0.00    +0.000 A 
BRANCH  15  22
ATOM     21  C   UNL     1       2.176   3.361  21.666  0.00  0.00    +0.000 C 
ATOM     22  O   UNL     1       1.570   3.682  20.418  0.00  0.00    +0.000 OA
ENDBRANCH  15  22
ENDBRANCH   1  19
BRANCH   8  23
ATOM     23  C   UNL     1       1.724  12.260  19.769  0.00  0.00    +0.000 C 
ATOM     24  C   UNL     1       2.114  12.543  18.315  0.00  0.00    +0.000 C 
ATOM     25  C   UNL     1       2.276  13.334  20.704  0.00  0.00    +0.000 C 
ENDBRANCH   8  23
TORSDOF 3
ENDMDL
MODEL 3
REMARK VINA RESULT:      -6.5      8.973     11.825
REMARK  Name = 
REMARK  6 active torsions:
REMARK  status: ('A' for Active; 'I' for Inactive)
REMARK    1  A    between atoms: C_1  and  O_2
REMARK    2  A    between atoms: O_2  and  C_3
REMARK    3  A    between atoms: C_7  and  C_8
REMARK    4  A    between atoms: N_15  and  C_16
REMARK    5  A    between atoms: C_16  and  C_17
REMARK    6  A    between atoms: C_16  and  C_18
REMARK                            x       y       z     vdW  Elec       q    Type
REMARK                         _______ _______ _______ _____ _____    ______ ____
ROOT
ATOM      1  C   UNL     1      -2.607  12.551  19.539  0.00  0.00    +0.000 A 
ATOM      2  N   UNL     1      -1.636  13.413  20.054  0.00  0.00    +0.000 NA
ATOM      3  C   UNL     1      -2.111  13.818  21.209  0.00  0.00    +0.000 A 
ATOM      4  N   UNL     1      -3.273  13.179  21.476  0.00  0.00    +0.000 N 
ATOM      5  C   UNL     1      -3.741  12.650  20.296  0.00  0.00    +0.000 A 
ATOM      6  C   UNL     1      -5.166  12.430  20.186  0.00  0.00    +0.000 A 
ATOM      7  O   UNL     1      -5.708  11.621  19.448  0.00  0.00    +0.000 OA
ATOM      8  N   UNL     1      -5.880  13.430  20.943  0.00  0.00    +0.000 N 
ATOM      9  C   UNL     1      -5.442  13.425  22.330  0.00  0.00    +0.000 A 
ATOM     10  C   UNL     1      -6.356  13.223  23.358  0.00  0.00    +0.000 A 
ATOM     11  C   UNL     1      -5.933  12.632  24.559  0.00  0.00    +0.000 A 
ATOM     12  C   UNL     1      -4.588  12.251  24.743  0.00  0.00    +0.000 A 
ATOM     13  C   UNL     1      -3.637  12.569  23.775  0.00  0.00    +0.000 A 
ATOM     14  C   UNL     1      -4.082  13.174  22.593  0.00  0.00    +0.000 A 
ENDROOT
BRANCH   1  19
ATOM     15  C   UNL     1      -3.096  10.632  16.372  0.00  0.00    +0.000 A 
ATOM     16  C   UNL     1      -2.086   9.677  16.515  0.00  0.00    +0.000 A 
ATOM     17  C   UNL     1      -1.171   9.762  17.564  0.00  0.00    +0.000 A 
ATOM     18  C   UNL     1      -1.288  10.777  18.496  0.00  0.00    +0.000 A 
ATOM     19  C   UNL     1      -2.323  11.717  18.396  0.00  0.00    +0.000 A 
ATOM     20  C   UNL     1      -3.204  11.657  17.307  0.00  0.00    +0.000 A 
BRANCH  15  22
ATOM     21  C   UNL     1      -3.350  10.044  14.084  0.00  0.00    +0.000 C 
ATOM     22  O   UNL     1      -3.948  10.418  15.321  0.00  0.00    +0.000 OA
ENDBRANCH  15  22
ENDBRANCH   1  19
BRANCH   8  23
ATOM     23  C   UNL     1      -5.779  14.698  20.158  0.00  0.00    +0.000 C 
ATOM     24  C   UNL     1      -6.969  14.815  19.200  0.00  0.00    +0.000 C 
ATOM     25  C   UNL     1      -5.532  16.018  20.887  0.00  0.00    +0.000 C 
ENDBRANCH   8  23
TORSDOF 3
ENDMDL
MODEL 4
REMARK VINA RESULT:      -6.4      9.301     12.187
REMARK  Name = 
REMARK  6 active torsions:
REMARK  status: ('A' for Active; 'I' for Inactive)
REMARK    1  A    between atoms: C_1  and  O_2
REMARK    2  A    between atoms: O_2  and  C_3
REMARK    3  A    between atoms: C_7  and  C_8
REMARK    4  A    between atoms: N_15  and  C_16
REMARK    5  A    between atoms: C_16  and  C_17
REMARK    6  A    between atoms: C_16  and  C_18
REMARK                            x       y       z     vdW  Elec       q    Type
REMARK                         _______ _______ _______ _____ _____    ______ ____
ROOT
ATOM      1  C   UNL     1       6.987  15.111  19.695  0.00  0.00    +0.000 A 
ATOM      2  N   UNL     1       7.490  15.746  20.833  0.00  0.00    +0.000 NA
ATOM      3  C   UNL     1       8.792  15.771  20.669  0.00  0.00    +0.000 A 
ATOM      4  N   UNL     1       9.109  15.271  19.452  0.00  0.00    +0.000 N 
ATOM      5  C   UNL     1       8.024  14.562  18.993  0.00  0.00    +0.000 A 
ATOM      6  C   UNL     1       8.277  13.504  18.040  0.00  0.00    +0.000 A 
ATOM      7  O   UNL     1       7.475  13.068  17.229  0.00  0.00    +0.000 OA
ATOM      8  N   UNL     1       9.564  12.903  18.299  0.00  0.00    +0.000 N 
ATOM      9  C   UNL     1      10.610  13.913  18.272  0.00  0.00    +0.000 A 
ATOM     10  C   UNL     1      11.685  13.791  17.397  0.00  0.00    +0.000 A 
ATOM     11  C   UNL     1      12.331  14.944  16.924  0.00  0.00    +0.000 A 
ATOM     12  C   UNL     1      11.914  16.227  17.334  0.00  0.00    +0.000 A 
ATOM     13  C   UNL     1      10.928  16.357  18.310  0.00  0.00    +0.000 A 
ATOM     14  C   UNL     1      10.311  15.191  18.779  0.00  0.00    +0.000 A 
ENDROOT
BRANCH   1  19
ATOM     15  C   UNL     1       3.344  14.312  19.892  0.00  0.00    +0.000 A 
ATOM     16  C   UNL     1       2.966  14.599  18.578  0.00  0.00    +0.000 A 
ATOM     17  C   UNL     1       3.870  15.185  17.691  0.00  0.00    +0.000 A 
ATOM     18  C   UNL     1       5.164  15.448  18.103  0.00  0.00    +0.000 A 
ATOM     19  C   UNL     1       5.574  15.124  19.405  0.00  0.00    +0.000 A 
ATOM     20  C   UNL     1       4.644  14.587  20.305  0.00  0.00    +0.000 A 
BRANCH  15  22
ATOM     21  C   UNL     1       1.631  12.670  20.025  0.00  0.00    +0.000 C 
ATOM     22  O   UNL     1       2.377  13.709  20.651  0.00  0.00    +0.000 OA
ENDBRANCH  15  22
ENDBRANCH   1  19
BRANCH   8  23
ATOM     23  C   UNL     1       9.395  12.072  19.531  0.00  0.00    +0.000 C 
ATOM     24  C   UNL     1       9.184  10.605  19.144  0.00  0.00    +0.000 C 
ATOM     25  C   UNL     1      10.407  12.198  20.669  0.00  0.00    +0.000 C 
ENDBRANCH   8  23
TORSDOF 3
ENDMDL
MODEL 5
REMARK VINA RESULT:      -6.4     10.015     12.993
REMARK  Name = 
REMARK  6 active torsions:
REMARK  status: ('A' for Active; 'I' for Inactive)
REMARK    1  A    between atoms: C_1  and  O_2
REMARK    2  A    between atoms: O_2  and  C_3
REMARK    3  A    between atoms: C_7  and  C_8
REMARK    4  A    between atoms: N_15  and  C_16
REMARK    5  A    between atoms: C_16  and  C_17
REMARK    6  A    between atoms: C_16  and  C_18
REMARK                            x       y       z     vdW  Elec       q    Type
REMARK                         _______ _______ _______ _____ _____    ______ ____
ROOT
ATOM      1  C   UNL     1      -4.918  11.999  19.438  0.00  0.00    +0.000 A 
ATOM      2  N   UNL     1      -6.102  11.285  19.636  0.00  0.00    +0.000 NA
ATOM      3  C   UNL     1      -6.785  11.986  20.512  0.00  0.00    +0.000 A 
ATOM      4  N   UNL     1      -6.129  13.136  20.790  0.00  0.00    +0.000 N 
ATOM      5  C   UNL     1      -4.825  12.985  20.380  0.00  0.00    +0.000 A 
ATOM      6  C   UNL     1      -3.824  13.791  21.042  0.00  0.00    +0.000 A 
ATOM      7  O   UNL     1      -2.744  14.115  20.573  0.00  0.00    +0.000 OA
ATOM      8  N   UNL     1      -4.200  14.015  22.417  0.00  0.00    +0.000 N 
ATOM      9  C   UNL     1      -5.517  14.629  22.489  0.00  0.00    +0.000 A 
ATOM     10  C   UNL     1      -5.693  15.848  23.136  0.00  0.00    +0.000 A 
ATOM     11  C   UNL     1      -6.721  16.712  22.725  0.00  0.00    +0.000 A 
ATOM     12  C   UNL     1      -7.588  16.355  21.672  0.00  0.00    +0.000 A 
ATOM     13  C   UNL     1      -7.506  15.084  21.106  0.00  0.00    +0.000 A 
ATOM     14  C   UNL     1      -6.484  14.234  21.545  0.00  0.00    +0.000 A 
ENDROOT
BRANCH   1  19
ATOM     15  C   UNL     1      -3.713  10.809  16.108  0.00  0.00    +0.000 A 
ATOM     16  C   UNL     1      -2.411  10.432  16.448  0.00  0.00    +0.000 A 
ATOM     17  C   UNL     1      -1.900  10.707  17.716  0.00  0.00    +0.000 A 
ATOM     18  C   UNL     1      -2.702  11.321  18.662  0.00  0.00    +0.000 A 
ATOM     19  C   UNL     1      -4.026  11.664  18.354  0.00  0.00    +0.000 A 
ATOM     20  C   UNL     1      -4.512  11.435  17.060  0.00  0.00    +0.000 A 
BRANCH  15  22
ATOM     21  C   UNL     1      -3.075  10.047  13.950  0.00  0.00    +0.000 C 
ATOM     22  O   UNL     1      -4.105  10.455  14.845  0.00  0.00    +0.000 OA
ENDBRANCH  15  22
ENDBRANCH   1  19
BRANCH   8  23
ATOM     23  C   UNL     1      -3.967  12.722  23.130  0.00  0.00    +0.000 C 
ATOM     24  C   UNL     1      -2.463  12.456  23.249  0.00  0.00    +0.000 C 
ATOM     25  C   UNL     1      -4.677  12.454  24.456  0.00  0.00    +0.000 C 
ENDBRANCH   8  23
TORSDOF 3
ENDMDL
MODEL 6
REMARK VINA RESULT:      -6.4      9.334     11.180
REMARK  Name = 
REMARK  6 active torsions:
REMARK  status: ('A' for Active; 'I' for Inactive)
REMARK    1  A    between atoms: C_1  and  O_2
REMARK    2  A    between atoms: O_2  and  C_3
REMARK    3  A    between atoms: C_7  and  C_8
REMARK    4  A    between atoms: N_15  and  C_16
REMARK    5  A    between atoms: C_16  and  C_17
REMARK    6  A    between atoms: C_16  and  C_18
REMARK                            x       y       z     vdW  Elec       q    Type
REMARK                         _______ _______ _______ _____ _____    ______ ____
ROOT
ATOM      1  C   UNL     1       0.909  13.571  19.087  0.00  0.00    +0.000 A 
ATOM      2  N   UNL     1       1.306  12.248  18.882  0.00  0.00    +0.000 NA
ATOM      3  C   UNL     1       0.219  11.531  19.044  0.00  0.00    +0.000 A 
ATOM      4  N   UNL     1      -0.842  12.348  19.244  0.00  0.00    +0.000 N 
ATOM      5  C   UNL     1      -0.358  13.585  19.600  0.00  0.00    +0.000 A 
ATOM      6  C   UNL     1      -1.223  14.434  20.388  0.00  0.00    +0.000 A 
ATOM      7  O   UNL     1      -1.171  15.654  20.440  0.00  0.00    +0.000 OA
ATOM      8  N   UNL     1      -2.051  13.629  21.254  0.00  0.00    +0.000 N 
ATOM      9  C   UNL     1      -2.811  12.664  20.475  0.00  0.00    +0.000 A 
ATOM     10  C   UNL     1      -4.200  12.639  20.543  0.00  0.00    +0.000 A 
ATOM     11  C   UNL     1      -4.943  12.195  19.438  0.00  0.00    +0.000 A 
ATOM     12  C   UNL     1      -4.300  11.760  18.261  0.00  0.00    +0.000 A 
ATOM     13  C   UNL     1      -2.910  11.655  18.228  0.00  0.00    +0.000 A 
ATOM     14  C   UNL     1      -2.192  12.087  19.349  0.00  0.00    +0.000 A 
ENDROOT
BRANCH   1  19
ATOM     15  C   UNL     1       2.056  16.958  18.006  0.00  0.00    +0.000 A 
ATOM     16  C   UNL     1       3.319  16.632  17.506  0.00  0.00    +0.000 A 
ATOM     17  C   UNL     1       3.835  15.346  17.661  0.00  0.00    +0.000 A 
ATOM     18  C   UNL     1       3.073  14.371  18.281  0.00  0.00    +0.000 A 
ATOM     19  C   UNL     1       1.784  14.667  18.747  0.00  0.00    +0.000 A 
ATOM     20  C   UNL     1       1.297  15.976  18.637  0.00  0.00    +0.000 A 
BRANCH  15  22
ATOM     21  C   UNL     1       0.915  18.460  16.562  0.00  0.00    +0.000 C 
ATOM     22  O   UNL     1       1.652  18.243  17.761  0.00  0.00    +0.000 OA
ENDBRANCH  15  22
ENDBRANCH   1  19
BRANCH   8  23
ATOM     23  C   UNL     1      -1.156  13.133  22.344  0.00  0.00    +0.000 C 
ATOM     24  C   UNL     1      -1.189  14.104  23.528  0.00  0.00    +0.000 C 
ATOM     25  C   UNL     1      -1.278  11.686  22.818  0.00  0.00    +0.000 C 
ENDBRANCH   8  23
TORSDOF 3
ENDMDL
MODEL 7
REMARK VINA RESULT:      -6.3      9.777     12.638
REMARK  Name = 
REMARK  6 active torsions:
REMARK  status: ('A' for Active; 'I' for Inactive)
REMARK    1  A    between atoms: C_1  and  O_2
REMARK    2  A    between atoms: O_2  and  C_3
REMARK    3  A    between atoms: C_7  and  C_8
REMARK    4  A    between atoms: N_15  and  C_16
REMARK    5  A    between atoms: C_16  and  C_17
REMARK    6  A    between atoms: C_16  and  C_18
REMARK                            x       y       z     vdW  Elec       q    Type
REMARK                         _______ _______ _______ _____ _____    ______ ____
ROOT
ATOM      1  C   UNL     1       6.612  15.020  19.608  0.00  0.00    +0.000 A 
ATOM      2  N   UNL     1       6.021  14.863  18.352  0.00  0.00    +0.000 NA
ATOM      3  C   UNL     1       6.934  14.282  17.610  0.00  0.00    +0.000 A 
ATOM      4  N   UNL     1       8.019  13.988  18.364  0.00  0.00    +0.000 N 
ATOM      5  C   UNL     1       7.948  14.741  19.512  0.00  0.00    +0.000 A 
ATOM      6  C   UNL     1       9.191  15.043  20.187  0.00  0.00    +0.000 A 
ATOM      7  O   UNL     1       9.313  15.306  21.373  0.00  0.00    +0.000 OA
ATOM      8  N   UNL     1      10.258  15.168  19.223  0.00  0.00    +0.000 N 
ATOM      9  C   UNL     1      10.361  13.958  18.421  0.00  0.00    +0.000 A 
ATOM     10  C   UNL     1      11.554  13.243  18.373  0.00  0.00    +0.000 A 
ATOM     11  C   UNL     1      11.525  11.858  18.146  0.00  0.00    +0.000 A 
ATOM     12  C   UNL     1      10.303  11.182  17.952  0.00  0.00    +0.000 A 
ATOM     13  C   UNL     1       9.115  11.905  17.865  0.00  0.00    +0.000 A 
ATOM     14  C   UNL     1       9.172  13.288  18.078  0.00  0.00    +0.000 A 
ENDROOT
BRANCH   1  19
ATOM     15  C   UNL     1       4.918  14.835  22.932  0.00  0.00    +0.000 A 
ATOM     16  C   UNL     1       3.877  15.741  22.718  0.00  0.00    +0.000 A 
ATOM     17  C   UNL     1       3.827  16.505  21.552  0.00  0.00    +0.000 A 
ATOM     18  C   UNL     1       4.796  16.335  20.578  0.00  0.00    +0.000 A 
ATOM     19  C   UNL     1       5.823  15.397  20.755  0.00  0.00    +0.000 A 
ATOM     20  C   UNL     1       5.896  14.675  21.954  0.00  0.00    +0.000 A 
BRANCH  15  22
ATOM     21  C   UNL     1       5.887  13.201  24.359  0.00  0.00    +0.000 C 
ATOM     22  O   UNL     1       4.834  14.124  24.099  0.00  0.00    +0.000 OA
ENDBRANCH  15  22
ENDBRANCH   1  19
BRANCH   8  23
ATOM     23  C   UNL     1      10.045  16.476  18.532  0.00  0.00    +0.000 C 
ATOM     24  C   UNL     1      10.792  17.587  19.277  0.00  0.00    +0.000 C 
ATOM     25  C   UNL     1      10.273  16.578  17.025  0.00  0.00    +0.000 C 
ENDBRANCH   8  23
TORSDOF 3
ENDMDL
MODEL 8
REMARK VINA RESULT:      -6.3      4.525      7.727
REMARK  Name = 
REMARK  6 active torsions:
REMARK  status: ('A' for Active; 'I' for Inactive)
REMARK    1  A    between atoms: C_1  and  O_2
REMARK    2  A    between atoms: O_2  and  C_3
REMARK    3  A    between atoms: C_7  and  C_8
REMARK    4  A    between atoms: N_15  and  C_16
REMARK    5  A    between atoms: C_16  and  C_17
REMARK    6  A    between atoms: C_16  and  C_18
REMARK                            x       y       z     vdW  Elec       q    Type
REMARK                         _______ _______ _______ _____ _____    ______ ____
ROOT
ATOM      1  C   UNL     1       1.829   9.054  18.733  0.00  0.00    +0.000 A 
ATOM      2  N   UNL     1       2.519   9.725  17.721  0.00  0.00    +0.000 NA
ATOM      3  C   UNL     1       2.184  10.987  17.852  0.00  0.00    +0.000 A 
ATOM      4  N   UNL     1       1.402  11.143  18.946  0.00  0.00    +0.000 N 
ATOM      5  C   UNL     1       0.916   9.904  19.293  0.00  0.00    +0.000 A 
ATOM      6  C   UNL     1      -0.330   9.862  20.025  0.00  0.00    +0.000 A 
ATOM      7  O   UNL     1      -0.694   8.958  20.762  0.00  0.00    +0.000 OA
ATOM      8  N   UNL     1      -1.176  10.960  19.624  0.00  0.00    +0.000 N 
ATOM      9  C   UNL     1      -0.486  12.227  19.812  0.00  0.00    +0.000 A 
ATOM     10  C   UNL     1      -1.036  13.217  20.620  0.00  0.00    +0.000 A 
ATOM     11  C   UNL     1      -0.191  14.123  21.282  0.00  0.00    +0.000 A 
ATOM     12  C   UNL     1       1.209  14.051  21.129  0.00  0.00    +0.000 A 
ATOM     13  C   UNL     1       1.763  13.151  20.221  0.00  0.00    +0.000 A 
ATOM     14  C   UNL     1       0.899  12.270  19.560  0.00  0.00    +0.000 A 
ENDROOT
BRANCH   1  19
ATOM     15  C   UNL     1       2.456   5.394  18.332  0.00  0.00    +0.000 A 
ATOM     16  C   UNL     1       2.135   4.956  19.620  0.00  0.00    +0.000 A 
ATOM     17  C   UNL     1       1.862   5.872  20.635  0.00  0.00    +0.000 A 
ATOM     18  C   UNL     1       1.869   7.227  20.357  0.00  0.00    +0.000 A 
ATOM     19  C   UNL     1       2.143   7.684  19.059  0.00  0.00    +0.000 A 
ATOM     20  C   UNL     1       2.471   6.759  18.060  0.00  0.00    +0.000 A 
BRANCH  15  22
ATOM     21  C   UNL     1       2.201   3.099  17.773  0.00  0.00    +0.000 C 
ATOM     22  O   UNL     1       2.671   4.396  17.420  0.00  0.00    +0.000 OA
ENDBRANCH  15  22
ENDBRANCH   1  19
BRANCH   8  23
ATOM     23  C   UNL     1      -1.693  10.614  18.265  0.00  0.00    +0.000 C 
ATOM     24  C   UNL     1      -2.959   9.761  18.390  0.00  0.00    +0.000 C 
ATOM     25  C   UNL     1      -1.878  11.719  17.226  0.00  0.00    +0.000 C 
ENDBRANCH   8  23
TORSDOF 3
ENDMDL
MODEL 9
REMARK VINA RESULT:      -6.3      9.544     12.329
REMARK  Name = 
REMARK  6 active torsions:
REMARK  status: ('A' for Active; 'I' for Inactive)
REMARK    1  A    between atoms: C_1  and  O_2
REMARK    2  A    between atoms: O_2  and  C_3
REMARK    3  A    between atoms: C_7  and  C_8
REMARK    4  A    between atoms: N_15  and  C_16
REMARK    5  A    between atoms: C_16  and  C_17
REMARK    6  A    between atoms: C_16  and  C_18
REMARK                            x       y       z     vdW  Elec       q    Type
REMARK                         _______ _______ _______ _____ _____    ______ ____
ROOT
ATOM      1  C   UNL     1      -4.148  12.041  19.108  0.00  0.00    +0.000 A 
ATOM      2  N   UNL     1      -5.469  11.681  19.382  0.00  0.00    +0.000 NA
ATOM      3  C   UNL     1      -5.880  12.536  20.289  0.00  0.00    +0.000 A 
ATOM      4  N   UNL     1      -4.917  13.459  20.518  0.00  0.00    +0.000 N 
ATOM      5  C   UNL     1      -3.732  12.957  20.034  0.00  0.00    +0.000 A 
ATOM      6  C   UNL     1      -2.510  13.450  20.630  0.00  0.00    +0.000 A 
ATOM      7  O   UNL     1      -1.412  13.467  20.096  0.00  0.00    +0.000 OA
ATOM      8  N   UNL     1      -2.729  13.760  22.023  0.00  0.00    +0.000 N 
ATOM      9  C   UNL     1      -3.819  14.713  22.165  0.00  0.00    +0.000 A 
ATOM     10  C   UNL     1      -3.614  15.928  22.810  0.00  0.00    +0.000 A 
ATOM     11  C   UNL     1      -4.386  17.045  22.451  0.00  0.00    +0.000 A 
ATOM     12  C   UNL     1      -5.377  16.949  21.453  0.00  0.00    +0.000 A 
ATOM     13  C   UNL     1      -5.683  15.708  20.895  0.00  0.00    +0.000 A 
ATOM     14  C   UNL     1      -4.911  14.606  21.282  0.00  0.00    +0.000 A 
ENDROOT
BRANCH   1  19
ATOM     15  C   UNL     1      -3.477  10.754  15.666  0.00  0.00    +0.000 A 
ATOM     16  C   UNL     1      -2.418   9.885  15.940  0.00  0.00    +0.000 A 
ATOM     17  C   UNL     1      -1.845   9.841  17.211  0.00  0.00    +0.000 A 
ATOM     18  C   UNL     1      -2.355  10.636  18.222  0.00  0.00    +0.000 A 
ATOM     19  C   UNL     1      -3.448  11.481  17.978  0.00  0.00    +0.000 A 
ATOM     20  C   UNL     1      -3.980  11.559  16.684  0.00  0.00    +0.000 A 
BRANCH  15  22
ATOM     21  C   UNL     1      -3.273   9.827  13.489  0.00  0.00    +0.000 C 
ATOM     22  O   UNL     1      -3.970  10.679  14.391  0.00  0.00    +0.000 OA
ENDBRANCH  15  22
ENDBRANCH   1  19
BRANCH   8  23
ATOM     23  C   UNL     1      -2.821  12.447  22.733  0.00  0.00    +0.000 C 
ATOM     24  C   UNL     1      -1.416  11.933  23.061  0.00  0.00    +0.000 C 
ATOM     25  C   UNL     1      -3.751  12.305  23.936  0.00  0.00    +0.000 C 
ENDBRANCH   8  23
TORSDOF 3
ENDMDL
