MODEL 1
REMARK VINA RESULT:      -8.7      0.000      0.000
REMARK  Name = 
REMARK  8 active torsions:
REMARK  status: ('A' for Active; 'I' for Inactive)
REMARK    1  A    between atoms: C_1  and  C_2
REMARK    2  A    between atoms: C_4  and  C_5
REMARK    3  A    between atoms: C_8  and  C_9
REMARK    4  A    between atoms: C_9  and  C_10
REMARK    5  A    between atoms: C_10  and  C_11
REMARK    6  A    between atoms: N_16  and  C_17
REMARK    7  A    between atoms: C_17  and  C_18
REMARK    8  A    between atoms: C_28  and  C_29
REMARK                            x       y       z     vdW  Elec       q    Type
REMARK                         _______ _______ _______ _____ _____    ______ ____
ROOT
ATOM      1  C   UNL     1       2.244   7.734  19.140  0.00  0.00    +0.000 C 
ATOM      2  O   UNL     1       2.530   8.004  17.975  0.00  0.00    +0.000 OA
ATOM      3  N   UNL     1       1.516   8.598  19.940  0.00  0.00    +0.000 N 
ATOM      4  C   UNL     1       1.022   9.865  19.382  0.00  0.00    +0.000 C 
ATOM      5  C   UNL     1      -0.446  10.133  19.803  0.00  0.00    +0.000 C 
ATOM      6  N   UNL     1      -0.717   9.997  21.260  0.00  0.00    +0.000 NA
ATOM      7  C   UNL     1      -0.228   8.669  21.688  0.00  0.00    +0.000 C 
ATOM      8  C   UNL     1       1.253   8.424  21.376  0.00  0.00    +0.000 C 
ENDROOT
BRANCH   1   9
ATOM      9  C   UNL     1       2.603   6.381  19.727  0.00  0.00    +0.000 C 
BRANCH   9  10
ATOM     10  C   UNL     1       1.865   5.251  19.017  0.00  0.00    +0.000 C 
BRANCH  10  14
ATOM     11  C   UNL     1       4.457   4.158  16.861  0.00  0.00    +0.000 A 
ATOM     12  N   UNL     1       3.814   3.009  16.959  0.00  0.00    +0.000 NA
ATOM     13  N   UNL     1       2.749   3.211  17.813  0.00  0.00    +0.000 NA
ATOM     14  C   UNL     1       2.806   4.472  18.177  0.00  0.00    +0.000 A 
ATOM     15  O   UNL     1       3.870   5.134  17.635  0.00  0.00    +0.000 OA
BRANCH  11  19
ATOM     16  C   UNL     1       7.581   5.002  12.890  0.00  0.00    +0.000 C 
ATOM     17  C   UNL     1       6.921   4.745  14.187  0.00  0.00    +0.000 A 
ATOM     18  C   UNL     1       5.631   4.430  14.557  0.00  0.00    +0.000 A 
ATOM     19  C   UNL     1       5.627   4.381  15.974  0.00  0.00    +0.000 A 
ATOM     20  C   UNL     1       6.926   4.601  16.380  0.00  0.00    +0.000 A 
ATOM     21  C   UNL     1       7.626   4.622  17.680  0.00  0.00    +0.000 C 
ATOM     22  O   UNL     1       7.713   4.838  15.290  0.00  0.00    +0.000 OA
ENDBRANCH  11  19
ENDBRANCH  10  14
ENDBRANCH   9  10
ENDBRANCH   1   9
BRANCH   6  23
ATOM     23  C   UNL     1      -0.098  11.117  22.000  0.00  0.00    +0.000 C 
BRANCH  23  24
ATOM     24  C   UNL     1      -1.073  12.095  22.622  0.00  0.00    +0.000 A 
ATOM     25  C   UNL     1      -0.832  13.477  22.599  0.00  0.00    +0.000 A 
ATOM     26  C   UNL     1      -1.710  14.364  23.227  0.00  0.00    +0.000 A 
ATOM     27  C   UNL     1      -2.850  13.881  23.873  0.00  0.00    +0.000 A 
ATOM     28  C   UNL     1      -3.098  12.515  23.885  0.00  0.00    +0.000 A 
ATOM     29  F   UNL     1      -4.197  12.048  24.493  0.00  0.00    +0.000 F 
ATOM     30  C   UNL     1      -2.224  11.623  23.275  0.00  0.00    +0.000 A 
ENDBRANCH  23  24
ENDBRANCH   6  23
TORSDOF 6
ENDMDL
MODEL 2
REMARK VINA RESULT:      -8.3      2.975      4.122
REMARK  Name = 
REMARK  8 active torsions:
REMARK  status: ('A' for Active; 'I' for Inactive)
REMARK    1  A    between atoms: C_1  and  C_2
REMARK    2  A    between atoms: C_4  and  C_5
REMARK    3  A    between atoms: C_8  and  C_9
REMARK    4  A    between atoms: C_9  and  C_10
REMARK    5  A    between atoms: C_10  and  C_11
REMARK    6  A    between atoms: N_16  and  C_17
REMARK    7  A    between atoms: C_17  and  C_18
REMARK    8  A    between atoms: C_28  and  C_29
REMARK                            x       y       z     vdW  Elec       q    Type
REMARK                         _______ _______ _______ _____ _____    ______ ____
ROOT
ATOM      1  C   UNL     1       1.294   3.403  19.771  0.00  0.00    +0.000 C 
ATOM      2  O   UNL     1       0.952   3.087  20.909  0.00  0.00    +0.000 OA
ATOM      3  N   UNL     1       1.422   4.726  19.381  0.00  0.00    +0.000 N 
ATOM      4  C   UNL     1       1.185   5.799  20.355  0.00  0.00    +0.000 C 
ATOM      5  C   UNL     1       2.269   6.903  20.253  0.00  0.00    +0.000 C 
ATOM      6  N   UNL     1       2.518   7.415  18.878  0.00  0.00    +0.000 NA
ATOM      7  C   UNL     1       2.796   6.252  18.007  0.00  0.00    +0.000 C 
ATOM      8  C   UNL     1       1.684   5.196  18.012  0.00  0.00    +0.000 C 
ENDROOT
BRANCH   1   9
ATOM      9  C   UNL     1       1.689   2.340  18.762  0.00  0.00    +0.000 C 
BRANCH   9  10
ATOM     10  C   UNL     1       3.033   1.709  19.113  0.00  0.00    +0.000 C 
BRANCH  10  14
ATOM     11  C   UNL     1       5.495   3.835  17.706  0.00  0.00    +0.000 A 
ATOM     12  N   UNL     1       5.852   3.966  18.971  0.00  0.00    +0.000 NA
ATOM     13  N   UNL     1       4.967   3.218  19.722  0.00  0.00    +0.000 NA
ATOM     14  C   UNL     1       4.132   2.673  18.867  0.00  0.00    +0.000 A 
ATOM     15  O   UNL     1       4.385   3.031  17.575  0.00  0.00    +0.000 OA
BRANCH  11  19
ATOM     16  C   UNL     1       7.468   4.959  13.115  0.00  0.00    +0.000 C 
ATOM     17  C   UNL     1       7.063   4.848  14.531  0.00  0.00    +0.000 A 
ATOM     18  C   UNL     1       6.347   3.916  15.251  0.00  0.00    +0.000 A 
ATOM     19  C   UNL     1       6.243   4.428  16.569  0.00  0.00    +0.000 A 
ATOM     20  C   UNL     1       6.957   5.608  16.592  0.00  0.00    +0.000 A 
ATOM     21  C   UNL     1       7.308   6.598  17.628  0.00  0.00    +0.000 C 
ATOM     22  O   UNL     1       7.446   5.871  15.345  0.00  0.00    +0.000 OA
ENDBRANCH  11  19
ENDBRANCH  10  14
ENDBRANCH   9  10
ENDBRANCH   1   9
BRANCH   6  23
ATOM     23  C   UNL     1       1.372   8.229  18.422  0.00  0.00    +0.000 C 
BRANCH  23  24
ATOM     24  C   UNL     1       1.447   9.701  18.771  0.00  0.00    +0.000 A 
ATOM     25  C   UNL     1       2.102  10.615  17.933  0.00  0.00    +0.000 A 
ATOM     26  C   UNL     1       2.214  11.961  18.294  0.00  0.00    +0.000 A 
ATOM     27  C   UNL     1       1.659  12.411  19.493  0.00  0.00    +0.000 A 
ATOM     28  C   UNL     1       0.998  11.511  20.319  0.00  0.00    +0.000 A 
ATOM     29  F   UNL     1       0.453  11.942  21.464  0.00  0.00    +0.000 F 
ATOM     30  C   UNL     1       0.893  10.168  19.975  0.00  0.00    +0.000 A 
ENDBRANCH  23  24
ENDBRANCH   6  23
TORSDOF 6
ENDMDL
MODEL 3
REMARK VINA RESULT:      -8.2      4.503     10.644
REMARK  Name = 
REMARK  8 active torsions:
REMARK  status: ('A' for Active; 'I' for Inactive)
REMARK    1  A    between atoms: C_1  and  C_2
REMARK    2  A    between atoms: C_4  and  C_5
REMARK    3  A    between atoms: C_8  and  C_9
REMARK    4  A    between atoms: C_9  and  C_10
REMARK    5  A    between atoms: C_10  and  C_11
REMARK    6  A    between atoms: N_16  and  C_17
REMARK    7  A    between atoms: C_17  and  C_18
REMARK    8  A    between atoms: C_28  and  C_29
REMARK                            x       y       z     vdW  Elec       q    Type
REMARK                         _______ _______ _______ _____ _____    ______ ____
ROOT
ATOM      1  C   UNL     1       1.405   7.868  20.488  0.00  0.00    +0.000 C 
ATOM      2  O   UNL     1       0.774   7.813  21.541  0.00  0.00    +0.000 OA
ATOM      3  N   UNL     1       2.090   6.776  19.981  0.00  0.00    +0.000 N 
ATOM      4  C   UNL     1       2.039   5.490  20.690  0.00  0.00    +0.000 C 
ATOM      5  C   UNL     1       1.824   4.312  19.706  0.00  0.00    +0.000 C 
ATOM      6  N   UNL     1       2.745   4.291  18.538  0.00  0.00    +0.000 NA
ATOM      7  C   UNL     1       2.668   5.613  17.879  0.00  0.00    +0.000 C 
ATOM      8  C   UNL     1       2.982   6.789  18.812  0.00  0.00    +0.000 C 
ENDROOT
BRANCH   1   9
ATOM      9  C   UNL     1       1.378   9.125  19.639  0.00  0.00    +0.000 C 
BRANCH   9  10
ATOM     10  C   UNL     1       0.895  10.330  20.440  0.00  0.00    +0.000 C 
BRANCH  10  14
ATOM     11  C   UNL     1      -1.846  11.633  18.609  0.00  0.00    +0.000 A 
ATOM     12  N   UNL     1      -0.962  12.558  18.284  0.00  0.00    +0.000 NA
ATOM     13  N   UNL     1       0.211  12.249  18.943  0.00  0.00    +0.000 NA
ATOM     14  C   UNL     1      -0.031  11.151  19.622  0.00  0.00    +0.000 A 
ATOM     15  O   UNL     1      -1.315  10.710  19.482  0.00  0.00    +0.000 OA
BRANCH  11  19
ATOM     16  C   UNL     1      -6.882  12.026  17.759  0.00  0.00    +0.000 C 
ATOM     17  C   UNL     1      -5.427  11.772  17.757  0.00  0.00    +0.000 A 
ATOM     18  C   UNL     1      -4.430  11.918  18.697  0.00  0.00    +0.000 A 
ATOM     19  C   UNL     1      -3.220  11.565  18.048  0.00  0.00    +0.000 A 
ATOM     20  C   UNL     1      -3.558  11.161  16.773  0.00  0.00    +0.000 A 
ATOM     21  C   UNL     1      -2.819  10.618  15.617  0.00  0.00    +0.000 C 
ATOM     22  O   UNL     1      -4.904  11.301  16.591  0.00  0.00    +0.000 OA
ENDBRANCH  11  19
ENDBRANCH  10  14
ENDBRANCH   9  10
ENDBRANCH   1   9
BRANCH   6  23
ATOM     23  C   UNL     1       4.111   3.931  18.973  0.00  0.00    +0.000 C 
BRANCH  23  24
ATOM     24  C   UNL     1       5.201   4.184  17.952  0.00  0.00    +0.000 A 
ATOM     25  C   UNL     1       6.345   4.928  18.276  0.00  0.00    +0.000 A 
ATOM     26  C   UNL     1       7.315   5.203  17.308  0.00  0.00    +0.000 A 
ATOM     27  C   UNL     1       7.160   4.723  16.007  0.00  0.00    +0.000 A 
ATOM     28  C   UNL     1       6.036   3.973  15.686  0.00  0.00    +0.000 A 
ATOM     29  F   UNL     1       5.889   3.500  14.442  0.00  0.00    +0.000 F 
ATOM     30  C   UNL     1       5.058   3.706  16.638  0.00  0.00    +0.000 A 
ENDBRANCH  23  24
ENDBRANCH   6  23
TORSDOF 6
ENDMDL
MODEL 4
REMARK VINA RESULT:      -7.9      1.337      1.598
REMARK  Name = 
REMARK  8 active torsions:
REMARK  status: ('A' for Active; 'I' for Inactive)
REMARK    1  A    between atoms: C_1  and  C_2
REMARK    2  A    between atoms: C_4  and  C_5
REMARK    3  A    between atoms: C_8  and  C_9
REMARK    4  A    between atoms: C_9  and  C_10
REMARK    5  A    between atoms: C_10  and  C_11
REMARK    6  A    between atoms: N_16  and  C_17
REMARK    7  A    between atoms: C_17  and  C_18
REMARK    8  A    between atoms: C_28  and  C_29
REMARK                            x       y       z     vdW  Elec       q    Type
REMARK                         _______ _______ _______ _____ _____    ______ ____
ROOT
ATOM      1  C   UNL     1       1.945   7.578  19.835  0.00  0.00    +0.000 C 
ATOM      2  O   UNL     1       2.315   7.696  18.669  0.00  0.00    +0.000 OA
ATOM      3  N   UNL     1       1.241   8.575  20.490  0.00  0.00    +0.000 N 
ATOM      4  C   UNL     1       0.880   9.804  19.770  0.00  0.00    +0.000 C 
ATOM      5  C   UNL     1      -0.584  10.221  20.065  0.00  0.00    +0.000 C 
ATOM      6  N   UNL     1      -0.947  10.267  21.507  0.00  0.00    +0.000 NA
ATOM      7  C   UNL     1      -0.587   8.963  22.105  0.00  0.00    +0.000 C 
ATOM      8  C   UNL     1       0.885   8.580  21.917  0.00  0.00    +0.000 C 
ENDROOT
BRANCH   1   9
ATOM      9  C   UNL     1       2.163   6.276  20.585  0.00  0.00    +0.000 C 
BRANCH   9  10
ATOM     10  C   UNL     1       2.068   5.072  19.654  0.00  0.00    +0.000 C 
BRANCH  10  14
ATOM     11  C   UNL     1       5.049   4.621  17.790  0.00  0.00    +0.000 A 
ATOM     12  N   UNL     1       5.334   3.795  18.781  0.00  0.00    +0.000 NA
ATOM     13  N   UNL     1       4.280   3.848  19.670  0.00  0.00    +0.000 NA
ATOM     14  C   UNL     1       3.416   4.697  19.161  0.00  0.00    +0.000 A 
ATOM     15  O   UNL     1       3.837   5.245  17.985  0.00  0.00    +0.000 OA
BRANCH  11  19
ATOM     16  C   UNL     1       7.169   4.372  13.134  0.00  0.00    +0.000 C 
ATOM     17  C   UNL     1       6.770   4.625  14.533  0.00  0.00    +0.000 A 
ATOM     18  C   UNL     1       5.860   4.040  15.388  0.00  0.00    +0.000 A 
ATOM     19  C   UNL     1       5.901   4.797  16.587  0.00  0.00    +0.000 A 
ATOM     20  C   UNL     1       6.880   5.754  16.416  0.00  0.00    +0.000 A 
ATOM     21  C   UNL     1       7.474   6.805  17.265  0.00  0.00    +0.000 C 
ATOM     22  O   UNL     1       7.400   5.658  15.158  0.00  0.00    +0.000 OA
ENDBRANCH  11  19
ENDBRANCH  10  14
ENDBRANCH   9  10
ENDBRANCH   1   9
BRANCH   6  23
ATOM     23  C   UNL     1      -0.285  11.415  22.162  0.00  0.00    +0.000 C 
BRANCH  23  24
ATOM     24  C   UNL     1      -1.217  12.381  22.863  0.00  0.00    +0.000 A 
ATOM     25  C   UNL     1      -2.496  11.985  23.283  0.00  0.00    +0.000 A 
ATOM     26  C   UNL     1      -3.367  12.902  23.877  0.00  0.00    +0.000 A 
ATOM     27  C   UNL     1      -2.965  14.224  24.072  0.00  0.00    +0.000 A 
ATOM     28  C   UNL     1      -1.694  14.616  23.671  0.00  0.00    +0.000 A 
ATOM     29  F   UNL     1      -1.299  15.881  23.867  0.00  0.00    +0.000 F 
ATOM     30  C   UNL     1      -0.825  13.715  23.066  0.00  0.00    +0.000 A 
ENDBRANCH  23  24
ENDBRANCH   6  23
TORSDOF 6
ENDMDL
MODEL 5
REMARK VINA RESULT:      -7.9      1.153      1.195
REMARK  Name = 
REMARK  8 active torsions:
REMARK  status: ('A' for Active; 'I' for Inactive)
REMARK    1  A    between atoms: C_1  and  C_2
REMARK    2  A    between atoms: C_4  and  C_5
REMARK    3  A    between atoms: C_8  and  C_9
REMARK    4  A    between atoms: C_9  and  C_10
REMARK    5  A    between atoms: C_10  and  C_11
REMARK    6  A    between atoms: N_16  and  C_17
REMARK    7  A    between atoms: C_17  and  C_18
REMARK    8  A    between atoms: C_28  and  C_29
REMARK                            x       y       z     vdW  Elec       q    Type
REMARK                         _______ _______ _______ _____ _____    ______ ____
ROOT
ATOM      1  C   UNL     1       1.799   8.434  19.653  0.00  0.00    +0.000 C 
ATOM      2  O   UNL     1       1.958   8.532  18.438  0.00  0.00    +0.000 OA
ATOM      3  N   UNL     1       1.064   9.358  20.376  0.00  0.00    +0.000 N 
ATOM      4  C   UNL     1       0.409  10.475  19.680  0.00  0.00    +0.000 C 
ATOM      5  C   UNL     1      -1.036  10.693  20.197  0.00  0.00    +0.000 C 
ATOM      6  N   UNL     1      -1.169  10.776  21.676  0.00  0.00    +0.000 NA
ATOM      7  C   UNL     1      -0.525   9.578  22.256  0.00  0.00    +0.000 C 
ATOM      8  C   UNL     1       0.941   9.402  21.841  0.00  0.00    +0.000 C 
ENDROOT
BRANCH   1   9
ATOM      9  C   UNL     1       2.330   7.228  20.405  0.00  0.00    +0.000 C 
BRANCH   9  10
ATOM     10  C   UNL     1       1.965   5.925  19.700  0.00  0.00    +0.000 C 
BRANCH  10  14
ATOM     11  C   UNL     1       4.782   4.875  17.822  0.00  0.00    +0.000 A 
ATOM     12  N   UNL     1       4.829   3.937  18.750  0.00  0.00    +0.000 NA
ATOM     13  N   UNL     1       3.801   4.189  19.636  0.00  0.00    +0.000 NA
ATOM     14  C   UNL     1       3.188   5.261  19.188  0.00  0.00    +0.000 A 
ATOM     15  O   UNL     1       3.760   5.768  18.057  0.00  0.00    +0.000 OA
BRANCH  11  19
ATOM     16  C   UNL     1       6.967   4.265  13.230  0.00  0.00    +0.000 C 
ATOM     17  C   UNL     1       6.568   4.595  14.613  0.00  0.00    +0.000 A 
ATOM     18  C   UNL     1       5.571   4.148  15.453  0.00  0.00    +0.000 A 
ATOM     19  C   UNL     1       5.679   4.918  16.639  0.00  0.00    +0.000 A 
ATOM     20  C   UNL     1       6.775   5.739  16.479  0.00  0.00    +0.000 A 
ATOM     21  C   UNL     1       7.477   6.724  17.325  0.00  0.00    +0.000 C 
ATOM     22  O   UNL     1       7.309   5.553  15.237  0.00  0.00    +0.000 OA
ENDBRANCH  11  19
ENDBRANCH  10  14
ENDBRANCH   9  10
ENDBRANCH   1   9
BRANCH   6  23
ATOM     23  C   UNL     1      -0.596  12.047  22.168  0.00  0.00    +0.000 C 
BRANCH  23  24
ATOM     24  C   UNL     1      -1.514  12.870  23.048  0.00  0.00    +0.000 A 
ATOM     25  C   UNL     1      -1.102  14.102  23.579  0.00  0.00    +0.000 A 
ATOM     26  C   UNL     1      -1.938  14.824  24.435  0.00  0.00    +0.000 A 
ATOM     27  C   UNL     1      -3.203  14.331  24.759  0.00  0.00    +0.000 A 
ATOM     28  C   UNL     1      -3.619  13.119  24.223  0.00  0.00    +0.000 A 
ATOM     29  F   UNL     1      -4.837  12.648  24.521  0.00  0.00    +0.000 F 
ATOM     30  C   UNL     1      -2.790  12.386  23.381  0.00  0.00    +0.000 A 
ENDBRANCH  23  24
ENDBRANCH   6  23
TORSDOF 6
ENDMDL
MODEL 6
REMARK VINA RESULT:      -7.7      4.531     10.548
REMARK  Name = 
REMARK  8 active torsions:
REMARK  status: ('A' for Active; 'I' for Inactive)
REMARK    1  A    between atoms: C_1  and  C_2
REMARK    2  A    between atoms: C_4  and  C_5
REMARK    3  A    between atoms: C_8  and  C_9
REMARK    4  A    between atoms: C_9  and  C_10
REMARK    5  A    between atoms: C_10  and  C_11
REMARK    6  A    between atoms: N_16  and  C_17
REMARK    7  A    between atoms: C_17  and  C_18
REMARK    8  A    between atoms: C_28  and  C_29
REMARK                            x       y       z     vdW  Elec       q    Type
REMARK                         _______ _______ _______ _____ _____    ______ ____
ROOT
ATOM      1  C   UNL     1       1.387   8.054  20.756  0.00  0.00    +0.000 C 
ATOM      2  O   UNL     1       0.679   7.984  21.758  0.00  0.00    +0.000 OA
ATOM      3  N   UNL     1       1.958   6.932  20.178  0.00  0.00    +0.000 N 
ATOM      4  C   UNL     1       1.685   5.603  20.741  0.00  0.00    +0.000 C 
ATOM      5  C   UNL     1       1.390   4.567  19.626  0.00  0.00    +0.000 C 
ATOM      6  N   UNL     1       2.384   4.533  18.520  0.00  0.00    +0.000 NA
ATOM      7  C   UNL     1       2.531   5.911  18.002  0.00  0.00    +0.000 C 
ATOM      8  C   UNL     1       2.928   6.935  19.072  0.00  0.00    +0.000 C 
ENDROOT
BRANCH   1   9
ATOM      9  C   UNL     1       1.589   9.380  20.046  0.00  0.00    +0.000 C 
BRANCH   9  10
ATOM     10  C   UNL     1       0.920   9.387  18.675  0.00  0.00    +0.000 C 
BRANCH  10  14
ATOM     11  C   UNL     1      -2.047  11.283  18.269  0.00  0.00    +0.000 A 
ATOM     12  N   UNL     1      -1.227  12.290  18.510  0.00  0.00    +0.000 NA
ATOM     13  N   UNL     1       0.023  11.750  18.739  0.00  0.00    +0.000 NA
ATOM     14  C   UNL     1      -0.114  10.449  18.616  0.00  0.00    +0.000 A 
ATOM     15  O   UNL     1      -1.396  10.072  18.341  0.00  0.00    +0.000 OA
BRANCH  11  19
ATOM     16  C   UNL     1      -7.056  12.350  18.187  0.00  0.00    +0.000 C 
ATOM     17  C   UNL     1      -5.658  11.939  17.950  0.00  0.00    +0.000 A 
ATOM     18  C   UNL     1      -4.541  11.839  18.752  0.00  0.00    +0.000 A 
ATOM     19  C   UNL     1      -3.476  11.448  17.901  0.00  0.00    +0.000 A 
ATOM     20  C   UNL     1      -4.019  11.268  16.646  0.00  0.00    +0.000 A 
ATOM     21  C   UNL     1      -3.504  10.816  15.339  0.00  0.00    +0.000 C 
ATOM     22  O   UNL     1      -5.348  11.582  16.673  0.00  0.00    +0.000 OA
ENDBRANCH  11  19
ENDBRANCH  10  14
ENDBRANCH   9  10
ENDBRANCH   1   9
BRANCH   6  23
ATOM     23  C   UNL     1       3.655   3.947  18.995  0.00  0.00    +0.000 C 
BRANCH  23  24
ATOM     24  C   UNL     1       4.857   4.210  18.111  0.00  0.00    +0.000 A 
ATOM     25  C   UNL     1       4.893   3.764  16.781  0.00  0.00    +0.000 A 
ATOM     26  C   UNL     1       6.031   3.963  15.993  0.00  0.00    +0.000 A 
ATOM     27  C   UNL     1       7.141   4.624  16.522  0.00  0.00    +0.000 A 
ATOM     28  C   UNL     1       7.102   5.079  17.833  0.00  0.00    +0.000 A 
ATOM     29  F   UNL     1       8.160   5.725  18.341  0.00  0.00    +0.000 F 
ATOM     30  C   UNL     1       5.980   4.874  18.630  0.00  0.00    +0.000 A 
ENDBRANCH  23  24
ENDBRANCH   6  23
TORSDOF 6
ENDMDL
MODEL 7
REMARK VINA RESULT:      -7.6      2.701      3.096
REMARK  Name = 
REMARK  8 active torsions:
REMARK  status: ('A' for Active; 'I' for Inactive)
REMARK    1  A    between atoms: C_1  and  C_2
REMARK    2  A    between atoms: C_4  and  C_5
REMARK    3  A    between atoms: C_8  and  C_9
REMARK    4  A    between atoms: C_9  and  C_10
REMARK    5  A    between atoms: C_10  and  C_11
REMARK    6  A    between atoms: N_16  and  C_17
REMARK    7  A    between atoms: C_17  and  C_18
REMARK    8  A    between atoms: C_28  and  C_29
REMARK                            x       y       z     vdW  Elec       q    Type
REMARK                         _______ _______ _______ _____ _____    ______ ____
ROOT
ATOM      1  C   UNL     1       1.600  10.335  18.190  0.00  0.00    +0.000 C 
ATOM      2  O   UNL     1       2.604  11.007  17.961  0.00  0.00    +0.000 OA
ATOM      3  N   UNL     1       0.429  10.899  18.667  0.00  0.00    +0.000 N 
ATOM      4  C   UNL     1       0.351  12.352  18.873  0.00  0.00    +0.000 C 
ATOM      5  C   UNL     1      -0.988  12.926  18.341  0.00  0.00    +0.000 C 
ATOM      6  N   UNL     1      -2.207  12.209  18.803  0.00  0.00    +0.000 NA
ATOM      7  C   UNL     1      -2.033  10.774  18.494  0.00  0.00    +0.000 C 
ATOM      8  C   UNL     1      -0.766  10.159  19.101  0.00  0.00    +0.000 C 
ENDROOT
BRANCH   1   9
ATOM      9  C   UNL     1       1.574   8.853  17.862  0.00  0.00    +0.000 C 
BRANCH   9  10
ATOM     10  C   UNL     1       1.988   8.009  19.063  0.00  0.00    +0.000 C 
BRANCH  10  14
ATOM     11  C   UNL     1       4.350   5.887  17.488  0.00  0.00    +0.000 A 
ATOM     12  N   UNL     1       3.714   4.959  18.180  0.00  0.00    +0.000 NA
ATOM     13  N   UNL     1       2.739   5.599  18.918  0.00  0.00    +0.000 NA
ATOM     14  C   UNL     1       2.838   6.876  18.624  0.00  0.00    +0.000 A 
ATOM     15  O   UNL     1       3.847   7.143  17.744  0.00  0.00    +0.000 OA
BRANCH  11  19
ATOM     16  C   UNL     1       7.084   4.431  13.409  0.00  0.00    +0.000 C 
ATOM     17  C   UNL     1       6.548   4.927  14.692  0.00  0.00    +0.000 A 
ATOM     18  C   UNL     1       5.317   4.850  15.308  0.00  0.00    +0.000 A 
ATOM     19  C   UNL     1       5.428   5.597  16.508  0.00  0.00    +0.000 A 
ATOM     20  C   UNL     1       6.735   6.029  16.586  0.00  0.00    +0.000 A 
ATOM     21  C   UNL     1       7.531   6.780  17.575  0.00  0.00    +0.000 C 
ATOM     22  O   UNL     1       7.415   5.632  15.471  0.00  0.00    +0.000 OA
ENDBRANCH  11  19
ENDBRANCH  10  14
ENDBRANCH   9  10
ENDBRANCH   1   9
BRANCH   6  23
ATOM     23  C   UNL     1      -2.441  12.476  20.238  0.00  0.00    +0.000 C 
BRANCH  23  24
ATOM     24  C   UNL     1      -3.854  12.887  20.595  0.00  0.00    +0.000 A 
ATOM     25  C   UNL     1      -4.110  13.769  21.656  0.00  0.00    +0.000 A 
ATOM     26  C   UNL     1      -5.422  14.095  22.012  0.00  0.00    +0.000 A 
ATOM     27  C   UNL     1      -6.494  13.555  21.300  0.00  0.00    +0.000 A 
ATOM     28  C   UNL     1      -6.244  12.693  20.241  0.00  0.00    +0.000 A 
ATOM     29  F   UNL     1      -7.270  12.181  19.548  0.00  0.00    +0.000 F 
ATOM     30  C   UNL     1      -4.943  12.351  19.887  0.00  0.00    +0.000 A 
ENDBRANCH  23  24
ENDBRANCH   6  23
TORSDOF 6
ENDMDL
MODEL 8
REMARK VINA RESULT:      -7.6      4.144     10.662
REMARK  Name = 
REMARK  8 active torsions:
REMARK  status: ('A' for Active; 'I' for Inactive)
REMARK    1  A    between atoms: C_1  and  C_2
REMARK    2  A    between atoms: C_4  and  C_5
REMARK    3  A    between atoms: C_8  and  C_9
REMARK    4  A    between atoms: C_9  and  C_10
REMARK    5  A    between atoms: C_10  and  C_11
REMARK    6  A    between atoms: N_16  and  C_17
REMARK    7  A    between atoms: C_17  and  C_18
REMARK    8  A    between atoms: C_28  and  C_29
REMARK                            x       y       z     vdW  Elec       q    Type
REMARK                         _______ _______ _______ _____ _____    ______ ____
ROOT
ATOM      1  C   UNL     1       2.752   3.972  18.764  0.00  0.00    +0.000 C 
ATOM      2  O   UNL     1       1.687   3.803  18.174  0.00  0.00    +0.000 OA
ATOM      3  N   UNL     1       3.935   4.226  18.091  0.00  0.00    +0.000 N 
ATOM      4  C   UNL     1       3.930   4.344  16.627  0.00  0.00    +0.000 C 
ATOM      5  C   UNL     1       4.786   5.546  16.154  0.00  0.00    +0.000 C 
ATOM      6  N   UNL     1       6.155   5.610  16.734  0.00  0.00    +0.000 NA
ATOM      7  C   UNL     1       6.026   5.538  18.205  0.00  0.00    +0.000 C 
ATOM      8  C   UNL     1       5.272   4.299  18.701  0.00  0.00    +0.000 C 
ENDROOT
BRANCH   1   9
ATOM      9  C   UNL     1       2.796   4.004  20.281  0.00  0.00    +0.000 C 
BRANCH   9  10
ATOM     10  C   UNL     1       1.578   4.717  20.860  0.00  0.00    +0.000 C 
BRANCH  10  14
ATOM     11  C   UNL     1       1.011   8.206  20.599  0.00  0.00    +0.000 A 
ATOM     12  N   UNL     1       2.049   8.135  19.786  0.00  0.00    +0.000 NA
ATOM     13  N   UNL     1       2.465   6.819  19.771  0.00  0.00    +0.000 NA
ATOM     14  C   UNL     1       1.648   6.169  20.570  0.00  0.00    +0.000 A 
ATOM     15  O   UNL     1       0.714   6.979  21.149  0.00  0.00    +0.000 OA
BRANCH  11  19
ATOM     16  C   UNL     1      -1.850  12.429  20.127  0.00  0.00    +0.000 C 
ATOM     17  C   UNL     1      -1.021  11.277  20.540  0.00  0.00    +0.000 A 
ATOM     18  C   UNL     1      -0.293  10.329  19.854  0.00  0.00    +0.000 A 
ATOM     19  C   UNL     1       0.224   9.444  20.833  0.00  0.00    +0.000 A 
ATOM     20  C   UNL     1      -0.162   9.942  22.060  0.00  0.00    +0.000 A 
ATOM     21  C   UNL     1       0.078   9.562  23.466  0.00  0.00    +0.000 C 
ATOM     22  O   UNL     1      -0.935  11.053  21.880  0.00  0.00    +0.000 OA
ENDBRANCH  11  19
ENDBRANCH  10  14
ENDBRANCH   9  10
ENDBRANCH   1   9
BRANCH   6  23
ATOM     23  C   UNL     1       6.999   4.538  16.166  0.00  0.00    +0.000 C 
BRANCH  23  24
ATOM     24  C   UNL     1       7.039   4.481  14.653  0.00  0.00    +0.000 A 
ATOM     25  C   UNL     1       7.842   5.361  13.912  0.00  0.00    +0.000 A 
ATOM     26  C   UNL     1       7.825   5.336  12.514  0.00  0.00    +0.000 A 
ATOM     27  C   UNL     1       7.016   4.420  11.841  0.00  0.00    +0.000 A 
ATOM     28  C   UNL     1       6.231   3.538  12.572  0.00  0.00    +0.000 A 
ATOM     29  F   UNL     1       5.462   2.649  11.929  0.00  0.00    +0.000 F 
ATOM     30  C   UNL     1       6.229   3.564  13.962  0.00  0.00    +0.000 A 
ENDBRANCH  23  24
ENDBRANCH   6  23
TORSDOF 6
ENDMDL
MODEL 9
REMARK VINA RESULT:      -7.5      2.066      2.493
REMARK  Name = 
REMARK  8 active torsions:
REMARK  status: ('A' for Active; 'I' for Inactive)
REMARK    1  A    between atoms: C_1  and  C_2
REMARK    2  A    between atoms: C_4  and  C_5
REMARK    3  A    between atoms: C_8  and  C_9
REMARK    4  A    between atoms: C_9  and  C_10
REMARK    5  A    between atoms: C_10  and  C_11
REMARK    6  A    between atoms: N_16  and  C_17
REMARK    7  A    between atoms: C_17  and  C_18
REMARK    8  A    between atoms: C_28  and  C_29
REMARK                            x       y       z     vdW  Elec       q    Type
REMARK                         _______ _______ _______ _____ _____    ______ ____
ROOT
ATOM      1  C   UNL     1       1.418   8.304  20.651  0.00  0.00    +0.000 C 
ATOM      2  O   UNL     1       1.256   8.044  21.841  0.00  0.00    +0.000 OA
ATOM      3  N   UNL     1       1.021   9.511  20.099  0.00  0.00    +0.000 N 
ATOM      4  C   UNL     1       0.423  10.543  20.957  0.00  0.00    +0.000 C 
ATOM      5  C   UNL     1       1.002  11.945  20.640  0.00  0.00    +0.000 C 
ATOM      6  N   UNL     1       0.997  12.317  19.200  0.00  0.00    +0.000 NA
ATOM      7  C   UNL     1       1.670  11.234  18.451  0.00  0.00    +0.000 C 
ATOM      8  C   UNL     1       1.045   9.850  18.669  0.00  0.00    +0.000 C 
ENDROOT
BRANCH   1   9
ATOM      9  C   UNL     1       2.158   7.337  19.745  0.00  0.00    +0.000 C 
BRANCH   9  10
ATOM     10  C   UNL     1       1.972   5.893  20.199  0.00  0.00    +0.000 C 
BRANCH  10  14
ATOM     11  C   UNL     1       4.590   4.461  18.287  0.00  0.00    +0.000 A 
ATOM     12  N   UNL     1       4.407   3.450  19.118  0.00  0.00    +0.000 NA
ATOM     13  N   UNL     1       3.416   3.827  20.002  0.00  0.00    +0.000 NA
ATOM     14  C   UNL     1       3.053   5.040  19.650  0.00  0.00    +0.000 A 
ATOM     15  O   UNL     1       3.763   5.520  18.588  0.00  0.00    +0.000 OA
BRANCH  11  19
ATOM     16  C   UNL     1       6.720   4.248  13.634  0.00  0.00    +0.000 C 
ATOM     17  C   UNL     1       6.375   4.320  15.068  0.00  0.00    +0.000 A 
ATOM     18  C   UNL     1       5.206   4.152  15.779  0.00  0.00    +0.000 A 
ATOM     19  C   UNL     1       5.525   4.426  17.134  0.00  0.00    +0.000 A 
ATOM     20  C   UNL     1       6.880   4.678  17.177  0.00  0.00    +0.000 A 
ATOM     21  C   UNL     1       7.857   4.963  18.246  0.00  0.00    +0.000 C 
ATOM     22  O   UNL     1       7.396   4.627  15.915  0.00  0.00    +0.000 OA
ENDBRANCH  11  19
ENDBRANCH  10  14
ENDBRANCH   9  10
ENDBRANCH   1   9
BRANCH   6  23
ATOM     23  C   UNL     1      -0.386  12.573  18.745  0.00  0.00    +0.000 C 
BRANCH  23  24
ATOM     24  C   UNL     1      -1.163  13.574  19.575  0.00  0.00    +0.000 A 
ATOM     25  C   UNL     1      -0.718  14.896  19.725  0.00  0.00    +0.000 A 
ATOM     26  C   UNL     1      -1.413  15.794  20.541  0.00  0.00    +0.000 A 
ATOM     27  C   UNL     1      -2.571  15.384  21.204  0.00  0.00    +0.000 A 
ATOM     28  C   UNL     1      -3.022  14.080  21.045  0.00  0.00    +0.000 A 
ATOM     29  F   UNL     1      -4.139  13.686  21.670  0.00  0.00    +0.000 F 
ATOM     30  C   UNL     1      -2.330  13.175  20.248  0.00  0.00    +0.000 A 
ENDBRANCH  23  24
ENDBRANCH   6  23
TORSDOF 6
ENDMDL
