MODEL 1
REMARK VINA RESULT:      -7.8      0.000      0.000
REMARK  Name = 
REMARK  9 active torsions:
REMARK  status: ('A' for Active; 'I' for Inactive)
REMARK    1  A    between atoms: C_1  and  C_2
REMARK    2  A    between atoms: C_2  and  O_3
REMARK    3  A    between atoms: O_3  and  C_4
REMARK    4  A    between atoms: C_7  and  C_8
REMARK    5  A    between atoms: C_13  and  C_15
REMARK    6  A    between atoms: C_16  and  O_17
REMARK    7  A    between atoms: O_17  and  C_18
REMARK    8  A    between atoms: C_22  and  O_23
REMARK    9  A    between atoms: O_23  and  C_24
REMARK                            x       y       z     vdW  Elec       q    Type
REMARK                         _______ _______ _______ _____ _____    ______ ____
ROOT
ATOM      1  C   UNL     1       3.149   6.579  18.472  0.00  0.00    +0.000 A 
ATOM      2  N   UNL     1       2.743   6.101  19.635  0.00  0.00    +0.000 NA
ATOM      3  N   UNL     1       1.896   6.973  20.291  0.00  0.00    +0.000 NA
ATOM      4  C   UNL     1       1.697   8.079  19.609  0.00  0.00    +0.000 A 
ATOM      5  N   UNL     1       0.853   9.069  20.040  0.00  0.00    +0.000 N 
ATOM      6  C   UNL     1       0.674  10.324  19.510  0.00  0.00    +0.000 C 
ATOM      7  O   UNL     1       1.346  10.811  18.604  0.00  0.00    +0.000 OA
ATOM      8  S   UNL     1       2.499   8.133  18.111  0.00  0.00    +0.000 S 
ATOM      9  H   UNL     1       0.394   8.846  20.916  0.00  0.00    +0.000 HD
ENDROOT
BRANCH   1  13
ATOM     10  C   UNL     1       5.514   4.401  15.634  0.00  0.00    +0.000 A 
ATOM     11  C   UNL     1       4.813   3.736  16.639  0.00  0.00    +0.000 A 
ATOM     12  C   UNL     1       4.060   4.457  17.570  0.00  0.00    +0.000 A 
ATOM     13  C   UNL     1       3.999   5.857  17.514  0.00  0.00    +0.000 A 
ATOM     14  C   UNL     1       4.753   6.515  16.530  0.00  0.00    +0.000 A 
ATOM     15  C   UNL     1       5.511   5.792  15.600  0.00  0.00    +0.000 A 
BRANCH  10  16
ATOM     16  O   UNL     1       6.176   3.593  14.753  0.00  0.00    +0.000 OA
BRANCH  16  18
ATOM     17  C   UNL     1       5.701   3.405  12.429  0.00  0.00    +0.000 C 
ATOM     18  C   UNL     1       6.478   4.172  13.483  0.00  0.00    +0.000 C 
ENDBRANCH  16  18
ENDBRANCH  10  16
ENDBRANCH   1  13
BRANCH   6  19
ATOM     19  C   UNL     1      -0.447  11.124  20.144  0.00  0.00    +0.000 A 
ATOM     20  C   UNL     1      -1.405  11.807  19.346  0.00  0.00    +0.000 A 
ATOM     21  C   UNL     1      -2.402  12.578  19.955  0.00  0.00    +0.000 A 
ATOM     22  C   UNL     1      -2.443  12.718  21.334  0.00  0.00    +0.000 A 
ATOM     23  C   UNL     1      -1.514  12.055  22.125  0.00  0.00    +0.000 A 
ATOM     24  C   UNL     1      -0.528  11.238  21.555  0.00  0.00    +0.000 A 
BRANCH  20  25
ATOM     25  O   UNL     1      -1.335  11.670  17.977  0.00  0.00    +0.000 OA
ATOM     26  C   UNL     1      -2.544  11.307  17.309  0.00  0.00    +0.000 C 
ENDBRANCH  20  25
BRANCH  24  27
ATOM     27  O   UNL     1       0.418  10.620  22.336  0.00  0.00    +0.000 OA
ATOM     28  C   UNL     1      -0.054   9.648  23.270  0.00  0.00    +0.000 C 
ENDBRANCH  24  27
ENDBRANCH   6  19
TORSDOF 6
ENDMDL
MODEL 2
REMARK VINA RESULT:      -7.7      0.250      2.411
REMARK  Name = 
REMARK  9 active torsions:
REMARK  status: ('A' for Active; 'I' for Inactive)
REMARK    1  A    between atoms: C_1  and  C_2
REMARK    2  A    between atoms: C_2  and  O_3
REMARK    3  A    between atoms: O_3  and  C_4
REMARK    4  A    between atoms: C_7  and  C_8
REMARK    5  A    between atoms: C_13  and  C_15
REMARK    6  A    between atoms: C_16  and  O_17
REMARK    7  A    between atoms: O_17  and  C_18
REMARK    8  A    between atoms: C_22  and  O_23
REMARK    9  A    between atoms: O_23  and  C_24
REMARK                            x       y       z     vdW  Elec       q    Type
REMARK                         _______ _______ _______ _____ _____    ______ ____
ROOT
ATOM      1  C   UNL     1       3.028   6.747  18.559  0.00  0.00    +0.000 A 
ATOM      2  N   UNL     1       2.629   6.292  19.734  0.00  0.00    +0.000 NA
ATOM      3  N   UNL     1       1.786   7.177  20.377  0.00  0.00    +0.000 NA
ATOM      4  C   UNL     1       1.585   8.270  19.674  0.00  0.00    +0.000 A 
ATOM      5  N   UNL     1       0.744   9.270  20.090  0.00  0.00    +0.000 N 
ATOM      6  C   UNL     1       0.564  10.513  19.537  0.00  0.00    +0.000 C 
ATOM      7  O   UNL     1       1.231  10.982  18.618  0.00  0.00    +0.000 OA
ATOM      8  S   UNL     1       2.378   8.293  18.172  0.00  0.00    +0.000 S 
ATOM      9  H   UNL     1       0.290   9.064  20.974  0.00  0.00    +0.000 HD
ENDROOT
BRANCH   1  13
ATOM     10  C   UNL     1       5.374   4.517  15.744  0.00  0.00    +0.000 A 
ATOM     11  C   UNL     1       4.616   3.866  16.717  0.00  0.00    +0.000 A 
ATOM     12  C   UNL     1       3.870   4.602  17.641  0.00  0.00    +0.000 A 
ATOM     13  C   UNL     1       3.872   6.005  17.611  0.00  0.00    +0.000 A 
ATOM     14  C   UNL     1       4.682   6.646  16.661  0.00  0.00    +0.000 A 
ATOM     15  C   UNL     1       5.433   5.908  15.738  0.00  0.00    +0.000 A 
BRANCH  10  16
ATOM     16  O   UNL     1       6.024   3.697  14.866  0.00  0.00    +0.000 OA
BRANCH  16  18
ATOM     17  C   UNL     1       6.192   3.521  12.499  0.00  0.00    +0.000 C 
ATOM     18  C   UNL     1       6.587   4.334  13.718  0.00  0.00    +0.000 C 
ENDBRANCH  16  18
ENDBRANCH  10  16
ENDBRANCH   1  13
BRANCH   6  19
ATOM     19  C   UNL     1      -0.553  11.327  20.162  0.00  0.00    +0.000 A 
ATOM     20  C   UNL     1      -0.692  11.422  21.573  0.00  0.00    +0.000 A 
ATOM     21  C   UNL     1      -1.759  12.140  22.125  0.00  0.00    +0.000 A 
ATOM     22  C   UNL     1      -2.712  12.730  21.309  0.00  0.00    +0.000 A 
ATOM     23  C   UNL     1      -2.587  12.646  19.928  0.00  0.00    +0.000 A 
ATOM     24  C   UNL     1      -1.507  11.974  19.337  0.00  0.00    +0.000 A 
BRANCH  20  25
ATOM     25  O   UNL     1       0.254  10.813  22.368  0.00  0.00    +0.000 OA
ATOM     26  C   UNL     1      -0.214   9.787  23.245  0.00  0.00    +0.000 C 
ENDBRANCH  20  25
BRANCH  24  27
ATOM     27  O   UNL     1      -1.410  11.853  17.972  0.00  0.00    +0.000 OA
ATOM     28  C   UNL     1      -2.385  11.033  17.328  0.00  0.00    +0.000 C 
ENDBRANCH  24  27
ENDBRANCH   6  19
TORSDOF 6
ENDMDL
MODEL 3
REMARK VINA RESULT:      -7.6      1.105      2.549
REMARK  Name = 
REMARK  9 active torsions:
REMARK  status: ('A' for Active; 'I' for Inactive)
REMARK    1  A    between atoms: C_1  and  C_2
REMARK    2  A    between atoms: C_2  and  O_3
REMARK    3  A    between atoms: O_3  and  C_4
REMARK    4  A    between atoms: C_7  and  C_8
REMARK    5  A    between atoms: C_13  and  C_15
REMARK    6  A    between atoms: C_16  and  O_17
REMARK    7  A    between atoms: O_17  and  C_18
REMARK    8  A    between atoms: C_22  and  O_23
REMARK    9  A    between atoms: O_23  and  C_24
REMARK                            x       y       z     vdW  Elec       q    Type
REMARK                         _______ _______ _______ _____ _____    ______ ____
ROOT
ATOM      1  C   UNL     1       2.910   6.820  18.580  0.00  0.00    +0.000 A 
ATOM      2  N   UNL     1       2.512   6.481  19.795  0.00  0.00    +0.000 NA
ATOM      3  N   UNL     1       1.753   7.470  20.389  0.00  0.00    +0.000 NA
ATOM      4  C   UNL     1       1.610   8.521  19.612  0.00  0.00    +0.000 A 
ATOM      5  N   UNL     1       0.855   9.607  19.971  0.00  0.00    +0.000 N 
ATOM      6  C   UNL     1       0.748  10.817  19.331  0.00  0.00    +0.000 C 
ATOM      7  O   UNL     1       1.421  11.168  18.364  0.00  0.00    +0.000 OA
ATOM      8  S   UNL     1       2.361   8.377  18.094  0.00  0.00    +0.000 S 
ATOM      9  H   UNL     1       0.412   9.499  20.877  0.00  0.00    +0.000 HD
ENDROOT
BRANCH   1  13
ATOM     10  C   UNL     1       5.255   4.331  15.991  0.00  0.00    +0.000 A 
ATOM     11  C   UNL     1       5.420   5.715  15.993  0.00  0.00    +0.000 A 
ATOM     12  C   UNL     1       4.638   6.519  16.827  0.00  0.00    +0.000 A 
ATOM     13  C   UNL     1       3.673   5.951  17.672  0.00  0.00    +0.000 A 
ATOM     14  C   UNL     1       3.481   4.562  17.619  0.00  0.00    +0.000 A 
ATOM     15  C   UNL     1       4.262   3.757  16.780  0.00  0.00    +0.000 A 
BRANCH  10  16
ATOM     16  O   UNL     1       6.106   3.643  15.172  0.00  0.00    +0.000 OA
BRANCH  16  18
ATOM     17  C   UNL     1       5.972   3.562  12.799  0.00  0.00    +0.000 C 
ATOM     18  C   UNL     1       6.521   4.326  13.989  0.00  0.00    +0.000 C 
ENDBRANCH  16  18
ENDBRANCH  10  16
ENDBRANCH   1  13
BRANCH   6  19
ATOM     19  C   UNL     1      -0.290  11.753  19.918  0.00  0.00    +0.000 A 
ATOM     20  C   UNL     1       0.050  12.676  20.944  0.00  0.00    +0.000 A 
ATOM     21  C   UNL     1      -0.937  13.497  21.503  0.00  0.00    +0.000 A 
ATOM     22  C   UNL     1      -2.258  13.392  21.096  0.00  0.00    +0.000 A 
ATOM     23  C   UNL     1      -2.603  12.495  20.093  0.00  0.00    +0.000 A 
ATOM     24  C   UNL     1      -1.636  11.688  19.477  0.00  0.00    +0.000 A 
BRANCH  20  25
ATOM     25  O   UNL     1       1.364  12.752  21.350  0.00  0.00    +0.000 OA
ATOM     26  C   UNL     1       2.088  13.918  20.956  0.00  0.00    +0.000 C 
ENDBRANCH  20  25
BRANCH  24  27
ATOM     27  O   UNL     1      -1.986  10.770  18.517  0.00  0.00    +0.000 OA
ATOM     28  C   UNL     1      -2.323  11.284  17.228  0.00  0.00    +0.000 C 
ENDBRANCH  24  27
ENDBRANCH   6  19
TORSDOF 6
ENDMDL
MODEL 4
REMARK VINA RESULT:      -7.5      1.124      1.617
REMARK  Name = 
REMARK  9 active torsions:
REMARK  status: ('A' for Active; 'I' for Inactive)
REMARK    1  A    between atoms: C_1  and  C_2
REMARK    2  A    between atoms: C_2  and  O_3
REMARK    3  A    between atoms: O_3  and  C_4
REMARK    4  A    between atoms: C_7  and  C_8
REMARK    5  A    between atoms: C_13  and  C_15
REMARK    6  A    between atoms: C_16  and  O_17
REMARK    7  A    between atoms: O_17  and  C_18
REMARK    8  A    between atoms: C_22  and  O_23
REMARK    9  A    between atoms: O_23  and  C_24
REMARK                            x       y       z     vdW  Elec       q    Type
REMARK                         _______ _______ _______ _____ _____    ______ ____
ROOT
ATOM      1  C   UNL     1       3.039   6.709  18.486  0.00  0.00    +0.000 A 
ATOM      2  N   UNL     1       2.601   6.331  19.674  0.00  0.00    +0.000 NA
ATOM      3  N   UNL     1       1.838   7.307  20.285  0.00  0.00    +0.000 NA
ATOM      4  C   UNL     1       1.732   8.388  19.544  0.00  0.00    +0.000 A 
ATOM      5  N   UNL     1       0.980   9.470  19.923  0.00  0.00    +0.000 N 
ATOM      6  C   UNL     1       0.907  10.705  19.328  0.00  0.00    +0.000 C 
ATOM      7  O   UNL     1       1.612  11.083  18.395  0.00  0.00    +0.000 OA
ATOM      8  S   UNL     1       2.524   8.292  18.044  0.00  0.00    +0.000 S 
ATOM      9  H   UNL     1       0.510   9.334  20.812  0.00  0.00    +0.000 HD
ENDROOT
BRANCH   1  13
ATOM     10  C   UNL     1       5.425   4.301  15.859  0.00  0.00    +0.000 A 
ATOM     11  C   UNL     1       5.506   5.692  15.823  0.00  0.00    +0.000 A 
ATOM     12  C   UNL     1       4.711   6.468  16.670  0.00  0.00    +0.000 A 
ATOM     13  C   UNL     1       3.816   5.865  17.566  0.00  0.00    +0.000 A 
ATOM     14  C   UNL     1       3.706   4.466  17.552  0.00  0.00    +0.000 A 
ATOM     15  C   UNL     1       4.500   3.689  16.700  0.00  0.00    +0.000 A 
BRANCH  10  16
ATOM     16  O   UNL     1       6.283   3.645  15.021  0.00  0.00    +0.000 OA
BRANCH  16  18
ATOM     17  C   UNL     1       5.843   3.482  12.689  0.00  0.00    +0.000 C 
ATOM     18  C   UNL     1       6.544   4.283  13.771  0.00  0.00    +0.000 C 
ENDBRANCH  16  18
ENDBRANCH  10  16
ENDBRANCH   1  13
BRANCH   6  19
ATOM     19  C   UNL     1      -0.135  11.633  19.921  0.00  0.00    +0.000 A 
ATOM     20  C   UNL     1      -1.498  11.558  19.522  0.00  0.00    +0.000 A 
ATOM     21  C   UNL     1      -2.432  12.457  20.049  0.00  0.00    +0.000 A 
ATOM     22  C   UNL     1      -2.037  13.452  20.930  0.00  0.00    +0.000 A 
ATOM     23  C   UNL     1      -0.709  13.535  21.328  0.00  0.00    +0.000 A 
ATOM     24  C   UNL     1       0.248  12.625  20.857  0.00  0.00    +0.000 A 
BRANCH  20  25
ATOM     25  O   UNL     1      -1.868  10.574  18.632  0.00  0.00    +0.000 OA
ATOM     26  C   UNL     1      -2.868  10.923  17.674  0.00  0.00    +0.000 C 
ENDBRANCH  20  25
BRANCH  24  27
ATOM     27  O   UNL     1       1.569  12.738  21.217  0.00  0.00    +0.000 OA
ATOM     28  C   UNL     1       2.156  14.035  21.115  0.00  0.00    +0.000 C 
ENDBRANCH  24  27
ENDBRANCH   6  19
TORSDOF 6
ENDMDL
MODEL 5
REMARK VINA RESULT:      -7.5      2.410      9.835
REMARK  Name = 
REMARK  9 active torsions:
REMARK  status: ('A' for Active; 'I' for Inactive)
REMARK    1  A    between atoms: C_1  and  C_2
REMARK    2  A    between atoms: C_2  and  O_3
REMARK    3  A    between atoms: O_3  and  C_4
REMARK    4  A    between atoms: C_7  and  C_8
REMARK    5  A    between atoms: C_13  and  C_15
REMARK    6  A    between atoms: C_16  and  O_17
REMARK    7  A    between atoms: O_17  and  C_18
REMARK    8  A    between atoms: C_22  and  O_23
REMARK    9  A    between atoms: O_23  and  C_24
REMARK                            x       y       z     vdW  Elec       q    Type
REMARK                         _______ _______ _______ _____ _____    ______ ____
ROOT
ATOM      1  C   UNL     1       0.999   9.766  19.695  0.00  0.00    +0.000 A 
ATOM      2  N   UNL     1       1.157  10.301  18.497  0.00  0.00    +0.000 NA
ATOM      3  N   UNL     1       1.971   9.534  17.686  0.00  0.00    +0.000 NA
ATOM      4  C   UNL     1       2.405   8.455  18.299  0.00  0.00    +0.000 A 
ATOM      5  N   UNL     1       3.188   7.518  17.675  0.00  0.00    +0.000 N 
ATOM      6  C   UNL     1       3.829   6.439  18.233  0.00  0.00    +0.000 C 
ATOM      7  O   UNL     1       3.894   6.199  19.436  0.00  0.00    +0.000 OA
ATOM      8  S   UNL     1       1.838   8.275  19.891  0.00  0.00    +0.000 S 
ATOM      9  H   UNL     1       3.372   7.739  16.703  0.00  0.00    +0.000 HD
ENDROOT
BRANCH   1  13
ATOM     10  C   UNL     1      -1.633  11.330  22.699  0.00  0.00    +0.000 A 
ATOM     11  C   UNL     1      -1.561  11.917  21.436  0.00  0.00    +0.000 A 
ATOM     12  C   UNL     1      -0.687  11.411  20.471  0.00  0.00    +0.000 A 
ATOM     13  C   UNL     1       0.135  10.310  20.753  0.00  0.00    +0.000 A 
ATOM     14  C   UNL     1       0.091   9.764  22.046  0.00  0.00    +0.000 A 
ATOM     15  C   UNL     1      -0.782  10.275  23.015  0.00  0.00    +0.000 A 
BRANCH  10  16
ATOM     16  O   UNL     1      -2.556  11.877  23.545  0.00  0.00    +0.000 OA
BRANCH  16  18
ATOM     17  C   UNL     1      -4.017  13.740  23.777  0.00  0.00    +0.000 C 
ATOM     18  C   UNL     1      -3.658  12.538  22.923  0.00  0.00    +0.000 C 
ENDBRANCH  16  18
ENDBRANCH  10  16
ENDBRANCH   1  13
BRANCH   6  19
ATOM     19  C   UNL     1       4.499   5.516  17.233  0.00  0.00    +0.000 A 
ATOM     20  C   UNL     1       4.004   4.205  16.997  0.00  0.00    +0.000 A 
ATOM     21  C   UNL     1       4.668   3.356  16.105  0.00  0.00    +0.000 A 
ATOM     22  C   UNL     1       5.834   3.764  15.475  0.00  0.00    +0.000 A 
ATOM     23  C   UNL     1       6.328   5.043  15.696  0.00  0.00    +0.000 A 
ATOM     24  C   UNL     1       5.666   5.939  16.548  0.00  0.00    +0.000 A 
BRANCH  20  25
ATOM     25  O   UNL     1       2.856   3.810  17.647  0.00  0.00    +0.000 OA
ATOM     26  C   UNL     1       2.590   2.407  17.679  0.00  0.00    +0.000 C 
ENDBRANCH  20  25
BRANCH  24  27
ATOM     27  O   UNL     1       6.180   7.187  16.800  0.00  0.00    +0.000 OA
ATOM     28  C   UNL     1       7.456   7.240  17.440  0.00  0.00    +0.000 C 
ENDBRANCH  24  27
ENDBRANCH   6  19
TORSDOF 6
ENDMDL
MODEL 6
REMARK VINA RESULT:      -7.4      1.061      2.349
REMARK  Name = 
REMARK  9 active torsions:
REMARK  status: ('A' for Active; 'I' for Inactive)
REMARK    1  A    between atoms: C_1  and  C_2
REMARK    2  A    between atoms: C_2  and  O_3
REMARK    3  A    between atoms: O_3  and  C_4
REMARK    4  A    between atoms: C_7  and  C_8
REMARK    5  A    between atoms: C_13  and  C_15
REMARK    6  A    between atoms: C_16  and  O_17
REMARK    7  A    between atoms: O_17  and  C_18
REMARK    8  A    between atoms: C_22  and  O_23
REMARK    9  A    between atoms: O_23  and  C_24
REMARK                            x       y       z     vdW  Elec       q    Type
REMARK                         _______ _______ _______ _____ _____    ______ ____
ROOT
ATOM      1  C   UNL     1       3.002   6.954  18.483  0.00  0.00    +0.000 A 
ATOM      2  N   UNL     1       2.598   6.594  19.689  0.00  0.00    +0.000 NA
ATOM      3  N   UNL     1       1.753   7.527  20.257  0.00  0.00    +0.000 NA
ATOM      4  C   UNL     1       1.554   8.560  19.468  0.00  0.00    +0.000 A 
ATOM      5  N   UNL     1       0.711   9.589  19.799  0.00  0.00    +0.000 N 
ATOM      6  C   UNL     1       0.531  10.784  19.147  0.00  0.00    +0.000 C 
ATOM      7  O   UNL     1       1.201  11.178  18.196  0.00  0.00    +0.000 OA
ATOM      8  S   UNL     1       2.352   8.463  17.971  0.00  0.00    +0.000 S 
ATOM      9  H   UNL     1       0.254   9.454  20.695  0.00  0.00    +0.000 HD
ENDROOT
BRANCH   1  13
ATOM     10  C   UNL     1       5.358   4.525  15.847  0.00  0.00    +0.000 A 
ATOM     11  C   UNL     1       4.439   3.947  16.721  0.00  0.00    +0.000 A 
ATOM     12  C   UNL     1       3.690   4.745  17.589  0.00  0.00    +0.000 A 
ATOM     13  C   UNL     1       3.849   6.139  17.601  0.00  0.00    +0.000 A 
ATOM     14  C   UNL     1       4.816   6.702  16.753  0.00  0.00    +0.000 A 
ATOM     15  C   UNL     1       5.570   5.901  15.886  0.00  0.00    +0.000 A 
BRANCH  10  16
ATOM     16  O   UNL     1       5.998   3.654  15.012  0.00  0.00    +0.000 OA
BRANCH  16  18
ATOM     17  C   UNL     1       5.829   3.443  12.648  0.00  0.00    +0.000 C 
ATOM     18  C   UNL     1       6.482   4.205  13.787  0.00  0.00    +0.000 C 
ENDBRANCH  16  18
ENDBRANCH  10  16
ENDBRANCH   1  13
BRANCH   6  19
ATOM     19  C   UNL     1      -0.588  11.645  19.701  0.00  0.00    +0.000 A 
ATOM     20  C   UNL     1      -0.393  12.451  20.855  0.00  0.00    +0.000 A 
ATOM     21  C   UNL     1      -1.455  13.199  21.375  0.00  0.00    +0.000 A 
ATOM     22  C   UNL     1      -2.715  13.133  20.799  0.00  0.00    +0.000 A 
ATOM     23  C   UNL     1      -2.918  12.350  19.670  0.00  0.00    +0.000 A 
ATOM     24  C   UNL     1      -1.869  11.621  19.094  0.00  0.00    +0.000 A 
BRANCH  20  25
ATOM     25  O   UNL     1       0.861  12.489  21.425  0.00  0.00    +0.000 OA
ATOM     26  C   UNL     1       1.676  13.616  21.101  0.00  0.00    +0.000 C 
ENDBRANCH  20  25
BRANCH  24  27
ATOM     27  O   UNL     1      -2.083  10.812  18.004  0.00  0.00    +0.000 OA
ATOM     28  C   UNL     1      -3.417  10.346  17.802  0.00  0.00    +0.000 C 
ENDBRANCH  24  27
ENDBRANCH   6  19
TORSDOF 6
ENDMDL
MODEL 7
REMARK VINA RESULT:      -7.4      2.418      9.801
REMARK  Name = 
REMARK  9 active torsions:
REMARK  status: ('A' for Active; 'I' for Inactive)
REMARK    1  A    between atoms: C_1  and  C_2
REMARK    2  A    between atoms: C_2  and  O_3
REMARK    3  A    between atoms: O_3  and  C_4
REMARK    4  A    between atoms: C_7  and  C_8
REMARK    5  A    between atoms: C_13  and  C_15
REMARK    6  A    between atoms: C_16  and  O_17
REMARK    7  A    between atoms: O_17  and  C_18
REMARK    8  A    between atoms: C_22  and  O_23
REMARK    9  A    between atoms: O_23  and  C_24
REMARK                            x       y       z     vdW  Elec       q    Type
REMARK                         _______ _______ _______ _____ _____    ______ ____
ROOT
ATOM      1  C   UNL     1       1.061   9.614  19.719  0.00  0.00    +0.000 A 
ATOM      2  N   UNL     1       1.187  10.160  18.522  0.00  0.00    +0.000 NA
ATOM      3  N   UNL     1       2.011   9.420  17.695  0.00  0.00    +0.000 NA
ATOM      4  C   UNL     1       2.483   8.350  18.295  0.00  0.00    +0.000 A 
ATOM      5  N   UNL     1       3.283   7.439  17.655  0.00  0.00    +0.000 N 
ATOM      6  C   UNL     1       3.961   6.375  18.197  0.00  0.00    +0.000 C 
ATOM      7  O   UNL     1       4.050   6.131  19.398  0.00  0.00    +0.000 OA
ATOM      8  S   UNL     1       1.944   8.146  19.894  0.00  0.00    +0.000 S 
ATOM      9  H   UNL     1       3.448   7.671  16.682  0.00  0.00    +0.000 HD
ENDROOT
BRANCH   1  13
ATOM     10  C   UNL     1      -1.570  11.096  22.765  0.00  0.00    +0.000 A 
ATOM     11  C   UNL     1      -1.477  11.734  21.529  0.00  0.00    +0.000 A 
ATOM     12  C   UNL     1      -0.603  11.254  20.550  0.00  0.00    +0.000 A 
ATOM     13  C   UNL     1       0.198  10.128  20.792  0.00  0.00    +0.000 A 
ATOM     14  C   UNL     1       0.132   9.528  22.059  0.00  0.00    +0.000 A 
ATOM     15  C   UNL     1      -0.741  10.012  23.042  0.00  0.00    +0.000 A 
BRANCH  10  16
ATOM     16  O   UNL     1      -2.491  11.623  23.626  0.00  0.00    +0.000 OA
BRANCH  16  18
ATOM     17  C   UNL     1      -4.468  12.942  23.729  0.00  0.00    +0.000 C 
ATOM     18  C   UNL     1      -3.023  12.898  23.267  0.00  0.00    +0.000 C 
ENDBRANCH  16  18
ENDBRANCH  10  16
ENDBRANCH   1  13
BRANCH   6  19
ATOM     19  C   UNL     1       4.643   5.477  17.183  0.00  0.00    +0.000 A 
ATOM     20  C   UNL     1       5.757   5.935  16.428  0.00  0.00    +0.000 A 
ATOM     21  C   UNL     1       6.339   5.103  15.464  0.00  0.00    +0.000 A 
ATOM     22  C   UNL     1       5.814   3.846  15.205  0.00  0.00    +0.000 A 
ATOM     23  C   UNL     1       4.727   3.387  15.937  0.00  0.00    +0.000 A 
ATOM     24  C   UNL     1       4.145   4.172  16.942  0.00  0.00    +0.000 A 
BRANCH  20  25
ATOM     25  O   UNL     1       6.252   7.194  16.686  0.00  0.00    +0.000 OA
ATOM     26  C   UNL     1       7.460   7.263  17.445  0.00  0.00    +0.000 C 
ENDBRANCH  20  25
BRANCH  24  27
ATOM     27  O   UNL     1       3.041   3.734  17.633  0.00  0.00    +0.000 OA
ATOM     28  C   UNL     1       3.227   2.614  18.497  0.00  0.00    +0.000 C 
ENDBRANCH  24  27
ENDBRANCH   6  19
TORSDOF 6
ENDMDL
MODEL 8
REMARK VINA RESULT:      -7.3      2.405      9.765
REMARK  Name = 
REMARK  9 active torsions:
REMARK  status: ('A' for Active; 'I' for Inactive)
REMARK    1  A    between atoms: C_1  and  C_2
REMARK    2  A    between atoms: C_2  and  O_3
REMARK    3  A    between atoms: O_3  and  C_4
REMARK    4  A    between atoms: C_7  and  C_8
REMARK    5  A    between atoms: C_13  and  C_15
REMARK    6  A    between atoms: C_16  and  O_17
REMARK    7  A    between atoms: O_17  and  C_18
REMARK    8  A    between atoms: C_22  and  O_23
REMARK    9  A    between atoms: O_23  and  C_24
REMARK                            x       y       z     vdW  Elec       q    Type
REMARK                         _______ _______ _______ _____ _____    ______ ____
ROOT
ATOM      1  C   UNL     1       0.941   9.712  19.564  0.00  0.00    +0.000 A 
ATOM      2  N   UNL     1       1.130  10.227  18.361  0.00  0.00    +0.000 NA
ATOM      3  N   UNL     1       1.978   9.457  17.591  0.00  0.00    +0.000 NA
ATOM      4  C   UNL     1       2.407   8.395  18.237  0.00  0.00    +0.000 A 
ATOM      5  N   UNL     1       3.222   7.458  17.656  0.00  0.00    +0.000 N 
ATOM      6  C   UNL     1       3.859   6.398  18.253  0.00  0.00    +0.000 C 
ATOM      7  O   UNL     1       3.890   6.181  19.462  0.00  0.00    +0.000 OA
ATOM      8  S   UNL     1       1.793   8.237  19.813  0.00  0.00    +0.000 S 
ATOM      9  H   UNL     1       3.433   7.664  16.685  0.00  0.00    +0.000 HD
ENDROOT
BRANCH   1  13
ATOM     10  C   UNL     1      -1.580  11.354  22.621  0.00  0.00    +0.000 A 
ATOM     11  C   UNL     1      -0.742  10.273  22.890  0.00  0.00    +0.000 A 
ATOM     12  C   UNL     1       0.061   9.733  21.883  0.00  0.00    +0.000 A 
ATOM     13  C   UNL     1       0.038  10.264  20.584  0.00  0.00    +0.000 A 
ATOM     14  C   UNL     1      -0.849  11.318  20.316  0.00  0.00    +0.000 A 
ATOM     15  C   UNL     1      -1.658  11.856  21.325  0.00  0.00    +0.000 A 
BRANCH  10  16
ATOM     16  O   UNL     1      -2.283  11.829  23.692  0.00  0.00    +0.000 OA
BRANCH  16  18
ATOM     17  C   UNL     1      -4.417  12.575  24.431  0.00  0.00    +0.000 C 
ATOM     18  C   UNL     1      -3.326  12.756  23.392  0.00  0.00    +0.000 C 
ENDBRANCH  16  18
ENDBRANCH  10  16
ENDBRANCH   1  13
BRANCH   6  19
ATOM     19  C   UNL     1       4.572   5.466  17.292  0.00  0.00    +0.000 A 
ATOM     20  C   UNL     1       4.212   4.094  17.196  0.00  0.00    +0.000 A 
ATOM     21  C   UNL     1       4.918   3.244  16.337  0.00  0.00    +0.000 A 
ATOM     22  C   UNL     1       5.995   3.716  15.603  0.00  0.00    +0.000 A 
ATOM     23  C   UNL     1       6.355   5.054  15.686  0.00  0.00    +0.000 A 
ATOM     24  C   UNL     1       5.646   5.947  16.502  0.00  0.00    +0.000 A 
BRANCH  20  25
ATOM     25  O   UNL     1       3.152   3.640  17.948  0.00  0.00    +0.000 OA
ATOM     26  C   UNL     1       1.856   3.747  17.355  0.00  0.00    +0.000 C 
ENDBRANCH  20  25
BRANCH  24  27
ATOM     27  O   UNL     1       6.032   7.260  16.618  0.00  0.00    +0.000 OA
ATOM     28  C   UNL     1       7.243   7.514  17.329  0.00  0.00    +0.000 C 
ENDBRANCH  24  27
ENDBRANCH   6  19
TORSDOF 6
ENDMDL
MODEL 9
REMARK VINA RESULT:      -7.3      2.251      9.752
REMARK  Name = 
REMARK  9 active torsions:
REMARK  status: ('A' for Active; 'I' for Inactive)
REMARK    1  A    between atoms: C_1  and  C_2
REMARK    2  A    between atoms: C_2  and  O_3
REMARK    3  A    between atoms: O_3  and  C_4
REMARK    4  A    between atoms: C_7  and  C_8
REMARK    5  A    between atoms: C_13  and  C_15
REMARK    6  A    between atoms: C_16  and  O_17
REMARK    7  A    between atoms: O_17  and  C_18
REMARK    8  A    between atoms: C_22  and  O_23
REMARK    9  A    between atoms: O_23  and  C_24
REMARK                            x       y       z     vdW  Elec       q    Type
REMARK                         _______ _______ _______ _____ _____    ______ ____
ROOT
ATOM      1  C   UNL     1       0.950   8.301  20.868  0.00  0.00    +0.000 A 
ATOM      2  N   UNL     1       0.993   7.087  21.388  0.00  0.00    +0.000 NA
ATOM      3  N   UNL     1       1.820   6.242  20.674  0.00  0.00    +0.000 NA
ATOM      4  C   UNL     1       2.364   6.840  19.638  0.00  0.00    +0.000 A 
ATOM      5  N   UNL     1       3.260   6.213  18.811  0.00  0.00    +0.000 N 
ATOM      6  C   UNL     1       3.780   6.664  17.622  0.00  0.00    +0.000 C 
ATOM      7  O   UNL     1       3.426   7.687  17.039  0.00  0.00    +0.000 OA
ATOM      8  S   UNL     1       1.938   8.477  19.469  0.00  0.00    +0.000 S 
ATOM      9  H   UNL     1       3.464   5.262  19.096  0.00  0.00    +0.000 HD
ENDROOT
BRANCH   1  13
ATOM     10  C   UNL     1      -1.288  11.607  22.435  0.00  0.00    +0.000 A 
ATOM     11  C   UNL     1      -0.725  11.666  21.161  0.00  0.00    +0.000 A 
ATOM     12  C   UNL     1       0.019  10.591  20.667  0.00  0.00    +0.000 A 
ATOM     13  C   UNL     1       0.215   9.438  21.442  0.00  0.00    +0.000 A 
ATOM     14  C   UNL     1      -0.313   9.415  22.742  0.00  0.00    +0.000 A 
ATOM     15  C   UNL     1      -1.054  10.494  23.238  0.00  0.00    +0.000 A 
BRANCH  10  16
ATOM     16  O   UNL     1      -2.033  12.695  22.794  0.00  0.00    +0.000 OA
BRANCH  16  18
ATOM     17  C   UNL     1      -3.819  13.038  24.329  0.00  0.00    +0.000 C 
ATOM     18  C   UNL     1      -3.430  12.460  22.981  0.00  0.00    +0.000 C 
ENDBRANCH  16  18
ENDBRANCH  10  16
ENDBRANCH   1  13
BRANCH   6  19
ATOM     19  C   UNL     1       4.860   5.781  17.029  0.00  0.00    +0.000 A 
ATOM     20  C   UNL     1       6.153   6.296  16.740  0.00  0.00    +0.000 A 
ATOM     21  C   UNL     1       7.118   5.473  16.149  0.00  0.00    +0.000 A 
ATOM     22  C   UNL     1       6.816   4.166  15.800  0.00  0.00    +0.000 A 
ATOM     23  C   UNL     1       5.556   3.651  16.078  0.00  0.00    +0.000 A 
ATOM     24  C   UNL     1       4.577   4.430  16.711  0.00  0.00    +0.000 A 
BRANCH  20  25
ATOM     25  O   UNL     1       6.429   7.603  17.076  0.00  0.00    +0.000 OA
ATOM     26  C   UNL     1       7.717   7.861  17.638  0.00  0.00    +0.000 C 
ENDBRANCH  20  25
BRANCH  24  27
ATOM     27  O   UNL     1       3.318   3.932  16.943  0.00  0.00    +0.000 OA
ATOM     28  C   UNL     1       3.233   2.724  17.700  0.00  0.00    +0.000 C 
ENDBRANCH  24  27
ENDBRANCH   6  19
TORSDOF 6
ENDMDL
