MODEL 1
REMARK VINA RESULT:      -8.2      0.000      0.000
REMARK  Name = 
REMARK  5 active torsions:
REMARK  status: ('A' for Active; 'I' for Inactive)
REMARK    1  A    between atoms: C_1  and  C_2
REMARK    2  A    between atoms: C_2  and  S_3
REMARK    3  A    between atoms: C_2  and  C_22
REMARK    4  A    between atoms: S_3  and  C_4
REMARK    5  A    between atoms: N_24  and  C_25
REMARK                            x       y       z     vdW  Elec       q    Type
REMARK                         _______ _______ _______ _____ _____    ______ ____
ROOT
ATOM      1  C   UNL     1       3.837   7.100  17.890  0.00  0.00    +0.000 A 
ATOM      2  N   UNL     1       3.850   5.916  18.482  0.00  0.00    +0.000 NA
ATOM      3  C   UNL     1       2.978   5.760  19.466  0.00  0.00    +0.000 A 
ATOM      4  N   UNL     1       2.867   4.533  20.061  0.00  0.00    +0.000 N 
ATOM      5  C   UNL     1       3.564   3.360  19.539  0.00  0.00    +0.000 C 
ATOM      6  C   UNL     1       2.585   2.173  19.481  0.00  0.00    +0.000 C 
ATOM      7  O   UNL     1       1.936   1.947  20.745  0.00  0.00    +0.000 OA
ATOM      8  C   UNL     1       1.201   3.116  21.148  0.00  0.00    +0.000 C 
ATOM      9  C   UNL     1       2.128   4.331  21.303  0.00  0.00    +0.000 C 
ATOM     10  N   UNL     1       2.158   6.731  19.854  0.00  0.00    +0.000 NA
ATOM     11  C   UNL     1       2.188   7.880  19.188  0.00  0.00    +0.000 A 
ATOM     12  N   UNL     1       1.318   8.872  19.548  0.00  0.00    +0.000 N 
ATOM     13  C   UNL     1       1.204  10.115  18.792  0.00  0.00    +0.000 C 
ATOM     14  C   UNL     1       1.246  11.296  19.775  0.00  0.00    +0.000 C 
ATOM     15  O   UNL     1       0.238  11.170  20.793  0.00  0.00    +0.000 OA
ATOM     16  C   UNL     1       0.426   9.955  21.542  0.00  0.00    +0.000 C 
ATOM     17  C   UNL     1       0.354   8.713  20.636  0.00  0.00    +0.000 C 
ATOM     18  N   UNL     1       3.029   8.106  18.188  0.00  0.00    +0.000 NA
ENDROOT
BRANCH   1  19
ATOM     19  S   UNL     1       4.912   7.304  16.486  0.00  0.00    +0.000 S 
BRANCH  19  21
ATOM     20  C   UNL     1       7.501   7.280  17.521  0.00  0.00    +0.000 C 
ATOM     21  C   UNL     1       6.352   6.353  17.101  0.00  0.00    +0.000 C 
BRANCH  21  22
ATOM     22  C   UNL     1       6.863   5.412  15.999  0.00  0.00    +0.000 C 
ATOM     23  O   UNL     1       7.743   4.584  16.243  0.00  0.00    +0.000 OA
ATOM     24  N   UNL     1       6.239   5.535  14.767  0.00  0.00    +0.000 N 
ATOM     25  H   UNL     1       5.749   6.405  14.590  0.00  0.00    +0.000 HD
BRANCH  24  26
ATOM     26  C   UNL     1       6.432   4.664  13.668  0.00  0.00    +0.000 A 
ATOM     27  C   UNL     1       7.517   4.783  12.788  0.00  0.00    +0.000 A 
ATOM     28  C   UNL     1       7.659   3.927  11.695  0.00  0.00    +0.000 A 
ATOM     29  C   UNL     1       6.722   2.926  11.470  0.00  0.00    +0.000 A 
ATOM     30  C   UNL     1       5.655   2.771  12.354  0.00  0.00    +0.000 A 
ATOM     31  C   UNL     1       5.515   3.631  13.453  0.00  0.00    +0.000 A 
ENDBRANCH  24  26
ENDBRANCH  21  22
ENDBRANCH  19  21
ENDBRANCH   1  19
TORSDOF 4
ENDMDL
MODEL 2
REMARK VINA RESULT:      -7.7      0.308      4.679
REMARK  Name = 
REMARK  5 active torsions:
REMARK  status: ('A' for Active; 'I' for Inactive)
REMARK    1  A    between atoms: C_1  and  C_2
REMARK    2  A    between atoms: C_2  and  S_3
REMARK    3  A    between atoms: C_2  and  C_22
REMARK    4  A    between atoms: S_3  and  C_4
REMARK    5  A    between atoms: N_24  and  C_25
REMARK                            x       y       z     vdW  Elec       q    Type
REMARK                         _______ _______ _______ _____ _____    ______ ____
ROOT
ATOM      1  C   UNL     1       3.724   7.228  17.752  0.00  0.00    +0.000 A 
ATOM      2  N   UNL     1       2.917   8.247  18.003  0.00  0.00    +0.000 NA
ATOM      3  C   UNL     1       2.082   8.077  19.015  0.00  0.00    +0.000 A 
ATOM      4  N   UNL     1       1.285   9.122  19.396  0.00  0.00    +0.000 N 
ATOM      5  C   UNL     1       1.442  10.457  18.823  0.00  0.00    +0.000 C 
ATOM      6  C   UNL     1       1.429  11.499  19.956  0.00  0.00    +0.000 C 
ATOM      7  O   UNL     1       0.271  11.364  20.800  0.00  0.00    +0.000 OA
ATOM      8  C   UNL     1       0.234  10.054  21.394  0.00  0.00    +0.000 C 
ATOM      9  C   UNL     1       0.167   8.958  20.322  0.00  0.00    +0.000 C 
ATOM     10  N   UNL     1       2.034   6.953  19.721  0.00  0.00    +0.000 NA
ATOM     11  C   UNL     1       2.898   5.989  19.423  0.00  0.00    +0.000 A 
ATOM     12  N   UNL     1       2.889   4.843  20.170  0.00  0.00    +0.000 N 
ATOM     13  C   UNL     1       3.883   3.790  19.986  0.00  0.00    +0.000 C 
ATOM     14  C   UNL     1       3.158   2.438  19.898  0.00  0.00    +0.000 C 
ATOM     15  O   UNL     1       2.318   2.215  21.044  0.00  0.00    +0.000 OA
ATOM     16  C   UNL     1       1.325   3.251  21.151  0.00  0.00    +0.000 C 
ATOM     17  C   UNL     1       1.968   4.643  21.288  0.00  0.00    +0.000 C 
ATOM     18  N   UNL     1       3.768   6.090  18.428  0.00  0.00    +0.000 NA
ENDROOT
BRANCH   1  19
ATOM     19  S   UNL     1       4.941   7.468  16.476  0.00  0.00    +0.000 S 
BRANCH  19  21
ATOM     20  C   UNL     1       7.452   7.225  17.665  0.00  0.00    +0.000 C 
ATOM     21  C   UNL     1       6.265   6.398  17.153  0.00  0.00    +0.000 C 
BRANCH  21  22
ATOM     22  C   UNL     1       6.772   5.443  16.061  0.00  0.00    +0.000 C 
ATOM     23  O   UNL     1       7.604   4.574  16.328  0.00  0.00    +0.000 OA
ATOM     24  N   UNL     1       6.199   5.604  14.809  0.00  0.00    +0.000 N 
ATOM     25  H   UNL     1       5.756   6.497  14.623  0.00  0.00    +0.000 HD
BRANCH  24  26
ATOM     26  C   UNL     1       6.392   4.734  13.708  0.00  0.00    +0.000 A 
ATOM     27  C   UNL     1       7.482   4.846  12.836  0.00  0.00    +0.000 A 
ATOM     28  C   UNL     1       7.625   3.992  11.741  0.00  0.00    +0.000 A 
ATOM     29  C   UNL     1       6.682   2.999  11.508  0.00  0.00    +0.000 A 
ATOM     30  C   UNL     1       5.607   2.851  12.386  0.00  0.00    +0.000 A 
ATOM     31  C   UNL     1       5.468   3.709  13.486  0.00  0.00    +0.000 A 
ENDBRANCH  24  26
ENDBRANCH  21  22
ENDBRANCH  19  21
ENDBRANCH   1  19
TORSDOF 4
ENDMDL
MODEL 3
REMARK VINA RESULT:      -7.6      0.755      4.800
REMARK  Name = 
REMARK  5 active torsions:
REMARK  status: ('A' for Active; 'I' for Inactive)
REMARK    1  A    between atoms: C_1  and  C_2
REMARK    2  A    between atoms: C_2  and  S_3
REMARK    3  A    between atoms: C_2  and  C_22
REMARK    4  A    between atoms: S_3  and  C_4
REMARK    5  A    between atoms: N_24  and  C_25
REMARK                            x       y       z     vdW  Elec       q    Type
REMARK                         _______ _______ _______ _____ _____    ______ ____
ROOT
ATOM      1  C   UNL     1       4.143   7.310  17.886  0.00  0.00    +0.000 A 
ATOM      2  N   UNL     1       3.323   8.350  17.902  0.00  0.00    +0.000 NA
ATOM      3  C   UNL     1       2.209   8.187  18.596  0.00  0.00    +0.000 A 
ATOM      4  N   UNL     1       1.358   9.249  18.738  0.00  0.00    +0.000 N 
ATOM      5  C   UNL     1       1.721  10.589  18.282  0.00  0.00    +0.000 C 
ATOM      6  C   UNL     1       1.378  11.609  19.384  0.00  0.00    +0.000 C 
ATOM      7  O   UNL     1       0.011  11.495  19.819  0.00  0.00    +0.000 OA
ATOM      8  C   UNL     1      -0.243  10.175  20.333  0.00  0.00    +0.000 C 
ATOM      9  C   UNL     1       0.003   9.102  19.262  0.00  0.00    +0.000 C 
ATOM     10  N   UNL     1       1.914   7.050  19.219  0.00  0.00    +0.000 NA
ATOM     11  C   UNL     1       2.804   6.065  19.178  0.00  0.00    +0.000 A 
ATOM     12  N   UNL     1       2.534   4.906  19.851  0.00  0.00    +0.000 N 
ATOM     13  C   UNL     1       3.509   3.825  19.957  0.00  0.00    +0.000 C 
ATOM     14  C   UNL     1       2.815   2.499  19.607  0.00  0.00    +0.000 C 
ATOM     15  O   UNL     1       1.652   2.281  20.425  0.00  0.00    +0.000 OA
ATOM     16  C   UNL     1       0.702   3.346  20.246  0.00  0.00    +0.000 C 
ATOM     17  C   UNL     1       1.304   4.713  20.618  0.00  0.00    +0.000 C 
ATOM     18  N   UNL     1       3.945   6.158  18.509  0.00  0.00    +0.000 NA
ENDROOT
BRANCH   1  19
ATOM     19  S   UNL     1       5.705   7.536  17.063  0.00  0.00    +0.000 S 
BRANCH  19  21
ATOM     20  C   UNL     1       7.767   6.282  18.461  0.00  0.00    +0.000 C 
ATOM     21  C   UNL     1       6.528   5.991  17.604  0.00  0.00    +0.000 C 
BRANCH  21  22
ATOM     22  C   UNL     1       6.964   5.176  16.377  0.00  0.00    +0.000 C 
ATOM     23  O   UNL     1       7.792   4.270  16.490  0.00  0.00    +0.000 OA
ATOM     24  N   UNL     1       6.335   5.502  15.185  0.00  0.00    +0.000 N 
ATOM     25  H   UNL     1       5.900   6.417  15.136  0.00  0.00    +0.000 HD
BRANCH  24  26
ATOM     26  C   UNL     1       6.459   4.777  13.976  0.00  0.00    +0.000 A 
ATOM     27  C   UNL     1       5.589   3.736  13.623  0.00  0.00    +0.000 A 
ATOM     28  C   UNL     1       5.760   3.020  12.437  0.00  0.00    +0.000 A 
ATOM     29  C   UNL     1       6.801   3.342  11.575  0.00  0.00    +0.000 A 
ATOM     30  C   UNL     1       7.657   4.397  11.894  0.00  0.00    +0.000 A 
ATOM     31  C   UNL     1       7.482   5.117  13.084  0.00  0.00    +0.000 A 
ENDBRANCH  24  26
ENDBRANCH  21  22
ENDBRANCH  19  21
ENDBRANCH   1  19
TORSDOF 4
ENDMDL
MODEL 4
REMARK VINA RESULT:      -7.6      0.755      1.139
REMARK  Name = 
REMARK  5 active torsions:
REMARK  status: ('A' for Active; 'I' for Inactive)
REMARK    1  A    between atoms: C_1  and  C_2
REMARK    2  A    between atoms: C_2  and  S_3
REMARK    3  A    between atoms: C_2  and  C_22
REMARK    4  A    between atoms: S_3  and  C_4
REMARK    5  A    between atoms: N_24  and  C_25
REMARK                            x       y       z     vdW  Elec       q    Type
REMARK                         _______ _______ _______ _____ _____    ______ ____
ROOT
ATOM      1  C   UNL     1       3.802   6.935  17.641  0.00  0.00    +0.000 A 
ATOM      2  N   UNL     1       3.799   5.798  18.319  0.00  0.00    +0.000 NA
ATOM      3  C   UNL     1       2.975   5.753  19.353  0.00  0.00    +0.000 A 
ATOM      4  N   UNL     1       2.846   4.579  20.044  0.00  0.00    +0.000 N 
ATOM      5  C   UNL     1       3.467   3.341  19.578  0.00  0.00    +0.000 C 
ATOM      6  C   UNL     1       2.439   2.198  19.658  0.00  0.00    +0.000 C 
ATOM      7  O   UNL     1       1.850   2.092  20.966  0.00  0.00    +0.000 OA
ATOM      8  C   UNL     1       1.184   3.319  21.316  0.00  0.00    +0.000 C 
ATOM      9  C   UNL     1       2.166   4.500  21.333  0.00  0.00    +0.000 C 
ATOM     10  N   UNL     1       2.216   6.784  19.707  0.00  0.00    +0.000 NA
ATOM     11  C   UNL     1       2.257   7.879  18.957  0.00  0.00    +0.000 A 
ATOM     12  N   UNL     1       1.448   8.933  19.284  0.00  0.00    +0.000 N 
ATOM     13  C   UNL     1       1.344  10.121  18.443  0.00  0.00    +0.000 C 
ATOM     14  C   UNL     1       1.485  11.367  19.331  0.00  0.00    +0.000 C 
ATOM     15  O   UNL     1       0.527  11.360  20.405  0.00  0.00    +0.000 OA
ATOM     16  C   UNL     1       0.705  10.196  21.232  0.00  0.00    +0.000 C 
ATOM     17  C   UNL     1       0.536   8.895  20.427  0.00  0.00    +0.000 C 
ATOM     18  N   UNL     1       3.052   7.995  17.902  0.00  0.00    +0.000 NA
ENDROOT
BRANCH   1  19
ATOM     19  S   UNL     1       4.808   6.988  16.174  0.00  0.00    +0.000 S 
BRANCH  19  21
ATOM     20  C   UNL     1       7.468   6.306  16.662  0.00  0.00    +0.000 C 
ATOM     21  C   UNL     1       6.048   5.724  16.644  0.00  0.00    +0.000 C 
BRANCH  21  22
ATOM     22  C   UNL     1       6.011   4.561  15.640  0.00  0.00    +0.000 C 
ATOM     23  O   UNL     1       5.722   3.423  16.014  0.00  0.00    +0.000 OA
ATOM     24  N   UNL     1       6.273   4.897  14.321  0.00  0.00    +0.000 N 
ATOM     25  H   UNL     1       6.765   5.769  14.163  0.00  0.00    +0.000 HD
BRANCH  24  26
ATOM     26  C   UNL     1       6.129   4.024  13.216  0.00  0.00    +0.000 A 
ATOM     27  C   UNL     1       4.880   3.619  12.727  0.00  0.00    +0.000 A 
ATOM     28  C   UNL     1       4.775   2.730  11.655  0.00  0.00    +0.000 A 
ATOM     29  C   UNL     1       5.923   2.240  11.045  0.00  0.00    +0.000 A 
ATOM     30  C   UNL     1       7.174   2.658  11.497  0.00  0.00    +0.000 A 
ATOM     31  C   UNL     1       7.278   3.553  12.572  0.00  0.00    +0.000 A 
ENDBRANCH  24  26
ENDBRANCH  21  22
ENDBRANCH  19  21
ENDBRANCH   1  19
TORSDOF 4
ENDMDL
MODEL 5
REMARK VINA RESULT:      -7.1      0.861      4.813
REMARK  Name = 
REMARK  5 active torsions:
REMARK  status: ('A' for Active; 'I' for Inactive)
REMARK    1  A    between atoms: C_1  and  C_2
REMARK    2  A    between atoms: C_2  and  S_3
REMARK    3  A    between atoms: C_2  and  C_22
REMARK    4  A    between atoms: S_3  and  C_4
REMARK    5  A    between atoms: N_24  and  C_25
REMARK                            x       y       z     vdW  Elec       q    Type
REMARK                         _______ _______ _______ _____ _____    ______ ____
ROOT
ATOM      1  C   UNL     1       3.726   6.972  17.440  0.00  0.00    +0.000 A 
ATOM      2  N   UNL     1       2.980   8.047  17.640  0.00  0.00    +0.000 NA
ATOM      3  C   UNL     1       2.198   8.008  18.706  0.00  0.00    +0.000 A 
ATOM      4  N   UNL     1       1.469   9.120  19.031  0.00  0.00    +0.000 N 
ATOM      5  C   UNL     1       1.652  10.390  18.331  0.00  0.00    +0.000 C 
ATOM      6  C   UNL     1       1.748  11.528  19.364  0.00  0.00    +0.000 C 
ATOM      7  O   UNL     1       0.636  11.524  20.277  0.00  0.00    +0.000 OA
ATOM      8  C   UNL     1       0.576  10.275  20.989  0.00  0.00    +0.000 C 
ATOM      9  C   UNL     1       0.401   9.092  20.026  0.00  0.00    +0.000 C 
ATOM     10  N   UNL     1       2.142   6.954  19.513  0.00  0.00    +0.000 NA
ATOM     11  C   UNL     1       2.944   5.927  19.259  0.00  0.00    +0.000 A 
ATOM     12  N   UNL     1       2.929   4.854  20.107  0.00  0.00    +0.000 N 
ATOM     13  C   UNL     1       3.863   3.742  19.967  0.00  0.00    +0.000 C 
ATOM     14  C   UNL     1       3.077   2.424  20.041  0.00  0.00    +0.000 C 
ATOM     15  O   UNL     1       2.294   2.345  21.246  0.00  0.00    +0.000 OA
ATOM     16  C   UNL     1       1.355   3.433  21.310  0.00  0.00    +0.000 C 
ATOM     17  C   UNL     1       2.065   4.798  21.285  0.00  0.00    +0.000 C 
ATOM     18  N   UNL     1       3.760   5.898  18.214  0.00  0.00    +0.000 NA
ENDROOT
BRANCH   1  19
ATOM     19  S   UNL     1       4.878   7.038  16.085  0.00  0.00    +0.000 S 
BRANCH  19  21
ATOM     20  C   UNL     1       7.461   6.203  16.724  0.00  0.00    +0.000 C 
ATOM     21  C   UNL     1       6.014   5.705  16.622  0.00  0.00    +0.000 C 
BRANCH  21  22
ATOM     22  C   UNL     1       5.967   4.545  15.615  0.00  0.00    +0.000 C 
ATOM     23  O   UNL     1       5.661   3.409  15.984  0.00  0.00    +0.000 OA
ATOM     24  N   UNL     1       6.240   4.881  14.299  0.00  0.00    +0.000 N 
ATOM     25  H   UNL     1       6.744   5.747  14.145  0.00  0.00    +0.000 HD
BRANCH  24  26
ATOM     26  C   UNL     1       6.091   4.013  13.190  0.00  0.00    +0.000 A 
ATOM     27  C   UNL     1       4.839   3.631  12.689  0.00  0.00    +0.000 A 
ATOM     28  C   UNL     1       4.729   2.747  11.614  0.00  0.00    +0.000 A 
ATOM     29  C   UNL     1       5.873   2.238  11.013  0.00  0.00    +0.000 A 
ATOM     30  C   UNL     1       7.128   2.633  11.477  0.00  0.00    +0.000 A 
ATOM     31  C   UNL     1       7.237   3.524  12.555  0.00  0.00    +0.000 A 
ENDBRANCH  24  26
ENDBRANCH  21  22
ENDBRANCH  19  21
ENDBRANCH   1  19
TORSDOF 4
ENDMDL
MODEL 6
REMARK VINA RESULT:      -7.1      4.177      7.112
REMARK  Name = 
REMARK  5 active torsions:
REMARK  status: ('A' for Active; 'I' for Inactive)
REMARK    1  A    between atoms: C_1  and  C_2
REMARK    2  A    between atoms: C_2  and  S_3
REMARK    3  A    between atoms: C_2  and  C_22
REMARK    4  A    between atoms: S_3  and  C_4
REMARK    5  A    between atoms: N_24  and  C_25
REMARK                            x       y       z     vdW  Elec       q    Type
REMARK                         _______ _______ _______ _____ _____    ______ ____
ROOT
ATOM      1  C   UNL     1       0.037  11.113  19.857  0.00  0.00    +0.000 A 
ATOM      2  N   UNL     1      -0.801  10.637  18.949  0.00  0.00    +0.000 NA
ATOM      3  C   UNL     1      -1.999  11.198  18.930  0.00  0.00    +0.000 A 
ATOM      4  N   UNL     1      -2.886  10.826  17.957  0.00  0.00    +0.000 N 
ATOM      5  C   UNL     1      -2.495   9.952  16.854  0.00  0.00    +0.000 C 
ATOM      6  C   UNL     1      -3.016  10.542  15.531  0.00  0.00    +0.000 C 
ATOM      7  O   UNL     1      -4.428  10.814  15.581  0.00  0.00    +0.000 OA
ATOM      8  C   UNL     1      -4.721  11.748  16.635  0.00  0.00    +0.000 C 
ATOM      9  C   UNL     1      -4.298  11.195  18.004  0.00  0.00    +0.000 C 
ATOM     10  N   UNL     1      -2.352  12.158  19.778  0.00  0.00    +0.000 NA
ATOM     11  C   UNL     1      -1.443  12.599  20.640  0.00  0.00    +0.000 A 
ATOM     12  N   UNL     1      -1.779  13.617  21.489  0.00  0.00    +0.000 N 
ATOM     13  C   UNL     1      -0.803  14.238  22.379  0.00  0.00    +0.000 C 
ATOM     14  C   UNL     1      -1.408  14.326  23.789  0.00  0.00    +0.000 C 
ATOM     15  O   UNL     1      -2.671  15.015  23.779  0.00  0.00    +0.000 OA
ATOM     16  C   UNL     1      -3.611  14.335  22.929  0.00  0.00    +0.000 C 
ATOM     17  C   UNL     1      -3.101  14.241  21.479  0.00  0.00    +0.000 C 
ATOM     18  N   UNL     1      -0.220  12.090  20.712  0.00  0.00    +0.000 NA
ENDROOT
BRANCH   1  19
ATOM     19  S   UNL     1       1.695  10.465  19.832  0.00  0.00    +0.000 S 
BRANCH  19  21
ATOM     20  C   UNL     1       1.601   7.881  20.876  0.00  0.00    +0.000 C 
ATOM     21  C   UNL     1       1.295   8.691  19.609  0.00  0.00    +0.000 C 
BRANCH  21  22
ATOM     22  C   UNL     1       2.122   8.113  18.449  0.00  0.00    +0.000 C 
ATOM     23  O   UNL     1       2.289   8.764  17.417  0.00  0.00    +0.000 OA
ATOM     24  N   UNL     1       2.681   6.865  18.675  0.00  0.00    +0.000 N 
ATOM     25  H   UNL     1       2.265   6.306  19.410  0.00  0.00    +0.000 HD
BRANCH  24  26
ATOM     26  C   UNL     1       3.608   6.224  17.817  0.00  0.00    +0.000 A 
ATOM     27  C   UNL     1       4.677   6.900  17.214  0.00  0.00    +0.000 A 
ATOM     28  C   UNL     1       5.553   6.244  16.348  0.00  0.00    +0.000 A 
ATOM     29  C   UNL     1       5.381   4.891  16.080  0.00  0.00    +0.000 A 
ATOM     30  C   UNL     1       4.343   4.194  16.698  0.00  0.00    +0.000 A 
ATOM     31  C   UNL     1       3.465   4.855  17.570  0.00  0.00    +0.000 A 
ENDBRANCH  24  26
ENDBRANCH  21  22
ENDBRANCH  19  21
ENDBRANCH   1  19
TORSDOF 4
ENDMDL
MODEL 7
REMARK VINA RESULT:      -7.0      2.532      4.462
REMARK  Name = 
REMARK  5 active torsions:
REMARK  status: ('A' for Active; 'I' for Inactive)
REMARK    1  A    between atoms: C_1  and  C_2
REMARK    2  A    between atoms: C_2  and  S_3
REMARK    3  A    between atoms: C_2  and  C_22
REMARK    4  A    between atoms: S_3  and  C_4
REMARK    5  A    between atoms: N_24  and  C_25
REMARK                            x       y       z     vdW  Elec       q    Type
REMARK                         _______ _______ _______ _____ _____    ______ ____
ROOT
ATOM      1  C   UNL     1       4.262   6.683  17.413  0.00  0.00    +0.000 A 
ATOM      2  N   UNL     1       4.164   5.595  18.159  0.00  0.00    +0.000 NA
ATOM      3  C   UNL     1       3.260   5.645  19.124  0.00  0.00    +0.000 A 
ATOM      4  N   UNL     1       3.033   4.524  19.875  0.00  0.00    +0.000 N 
ATOM      5  C   UNL     1       3.642   3.239  19.541  0.00  0.00    +0.000 C 
ATOM      6  C   UNL     1       2.569   2.137  19.610  0.00  0.00    +0.000 C 
ATOM      7  O   UNL     1       1.875   2.137  20.870  0.00  0.00    +0.000 OA
ATOM      8  C   UNL     1       1.231   3.406  21.086  0.00  0.00    +0.000 C 
ATOM      9  C   UNL     1       2.251   4.553  21.108  0.00  0.00    +0.000 C 
ATOM     10  N   UNL     1       2.514   6.722  19.350  0.00  0.00    +0.000 NA
ATOM     11  C   UNL     1       2.655   7.762  18.536  0.00  0.00    +0.000 A 
ATOM     12  N   UNL     1       1.863   8.860  18.730  0.00  0.00    +0.000 N 
ATOM     13  C   UNL     1       1.870   9.993  17.810  0.00  0.00    +0.000 C 
ATOM     14  C   UNL     1       1.987  11.290  18.625  0.00  0.00    +0.000 C 
ATOM     15  O   UNL     1       0.948  11.385  19.616  0.00  0.00    +0.000 OA
ATOM     16  C   UNL     1       1.017  10.274  20.527  0.00  0.00    +0.000 C 
ATOM     17  C   UNL     1       0.864   8.929  19.795  0.00  0.00    +0.000 C 
ATOM     18  N   UNL     1       3.534   7.782  17.544  0.00  0.00    +0.000 NA
ENDROOT
BRANCH   1  19
ATOM     19  S   UNL     1       5.382   6.607  16.031  0.00  0.00    +0.000 S 
BRANCH  19  21
ATOM     20  C   UNL     1       6.454   4.681  17.740  0.00  0.00    +0.000 C 
ATOM     21  C   UNL     1       6.837   5.903  16.894  0.00  0.00    +0.000 C 
BRANCH  21  22
ATOM     22  C   UNL     1       7.456   6.962  17.820  0.00  0.00    +0.000 C 
ATOM     23  O   UNL     1       7.924   6.639  18.913  0.00  0.00    +0.000 OA
ATOM     24  N   UNL     1       7.486   8.254  17.318  0.00  0.00    +0.000 N 
ATOM     25  H   UNL     1       6.842   8.464  16.564  0.00  0.00    +0.000 HD
BRANCH  24  26
ATOM     26  C   UNL     1       8.154   9.345  17.925  0.00  0.00    +0.000 A 
ATOM     27  C   UNL     1       8.926   9.211  19.086  0.00  0.00    +0.000 A 
ATOM     28  C   UNL     1       9.545  10.315  19.676  0.00  0.00    +0.000 A 
ATOM     29  C   UNL     1       9.411  11.574  19.104  0.00  0.00    +0.000 A 
ATOM     30  C   UNL     1       8.674  11.721  17.929  0.00  0.00    +0.000 A 
ATOM     31  C   UNL     1       8.055  10.610  17.336  0.00  0.00    +0.000 A 
ENDBRANCH  24  26
ENDBRANCH  21  22
ENDBRANCH  19  21
ENDBRANCH   1  19
TORSDOF 4
ENDMDL
MODEL 8
REMARK VINA RESULT:      -7.0      4.625      8.728
REMARK  Name = 
REMARK  5 active torsions:
REMARK  status: ('A' for Active; 'I' for Inactive)
REMARK    1  A    between atoms: C_1  and  C_2
REMARK    2  A    between atoms: C_2  and  S_3
REMARK    3  A    between atoms: C_2  and  C_22
REMARK    4  A    between atoms: S_3  and  C_4
REMARK    5  A    between atoms: N_24  and  C_25
REMARK                            x       y       z     vdW  Elec       q    Type
REMARK                         _______ _______ _______ _____ _____    ______ ____
ROOT
ATOM      1  C   UNL     1      -0.604  11.944  20.468  0.00  0.00    +0.000 A 
ATOM      2  N   UNL     1      -1.166  12.802  21.305  0.00  0.00    +0.000 NA
ATOM      3  C   UNL     1      -2.434  13.091  21.059  0.00  0.00    +0.000 A 
ATOM      4  N   UNL     1      -3.109  13.895  21.936  0.00  0.00    +0.000 N 
ATOM      5  C   UNL     1      -2.521  14.310  23.207  0.00  0.00    +0.000 C 
ATOM      6  C   UNL     1      -3.556  14.119  24.331  0.00  0.00    +0.000 C 
ATOM      7  O   UNL     1      -4.804  14.769  24.031  0.00  0.00    +0.000 OA
ATOM      8  C   UNL     1      -5.362  14.245  22.813  0.00  0.00    +0.000 C 
ATOM      9  C   UNL     1      -4.415  14.469  21.625  0.00  0.00    +0.000 C 
ATOM     10  N   UNL     1      -3.097  12.576  20.030  0.00  0.00    +0.000 NA
ATOM     11  C   UNL     1      -2.469  11.700  19.254  0.00  0.00    +0.000 A 
ATOM     12  N   UNL     1      -3.154  11.128  18.217  0.00  0.00    +0.000 N 
ATOM     13  C   UNL     1      -2.576  10.070  17.396  0.00  0.00    +0.000 C 
ATOM     14  C   UNL     1      -2.798  10.417  15.915  0.00  0.00    +0.000 C 
ATOM     15  O   UNL     1      -4.191  10.644  15.631  0.00  0.00    +0.000 OA
ATOM     16  C   UNL     1      -4.698  11.729  16.429  0.00  0.00    +0.000 C 
ATOM     17  C   UNL     1      -4.554  11.443  17.934  0.00  0.00    +0.000 C 
ATOM     18  N   UNL     1      -1.203  11.356  19.443  0.00  0.00    +0.000 NA
ENDROOT
BRANCH   1  19
ATOM     19  S   UNL     1       1.063  11.441  20.838  0.00  0.00    +0.000 S 
BRANCH  19  21
ATOM     20  C   UNL     1       1.447   9.241  22.509  0.00  0.00    +0.000 C 
ATOM     21  C   UNL     1       0.741   9.678  21.218  0.00  0.00    +0.000 C 
BRANCH  21  22
ATOM     22  C   UNL     1       1.245   8.796  20.065  0.00  0.00    +0.000 C 
ATOM     23  O   UNL     1       1.194   9.200  18.902  0.00  0.00    +0.000 OA
ATOM     24  N   UNL     1       1.785   7.574  20.435  0.00  0.00    +0.000 N 
ATOM     25  H   UNL     1       1.528   7.222  21.350  0.00  0.00    +0.000 HD
BRANCH  24  26
ATOM     26  C   UNL     1       2.455   6.684  19.561  0.00  0.00    +0.000 A 
ATOM     27  C   UNL     1       3.191   7.121  18.452  0.00  0.00    +0.000 A 
ATOM     28  C   UNL     1       3.812   6.213  17.592  0.00  0.00    +0.000 A 
ATOM     29  C   UNL     1       3.717   4.849  17.836  0.00  0.00    +0.000 A 
ATOM     30  C   UNL     1       3.017   4.397  18.954  0.00  0.00    +0.000 A 
ATOM     31  C   UNL     1       2.396   5.311  19.819  0.00  0.00    +0.000 A 
ENDBRANCH  24  26
ENDBRANCH  21  22
ENDBRANCH  19  21
ENDBRANCH   1  19
TORSDOF 4
ENDMDL
MODEL 9
REMARK VINA RESULT:      -6.9      4.781      8.108
REMARK  Name = 
REMARK  5 active torsions:
REMARK  status: ('A' for Active; 'I' for Inactive)
REMARK    1  A    between atoms: C_1  and  C_2
REMARK    2  A    between atoms: C_2  and  S_3
REMARK    3  A    between atoms: C_2  and  C_22
REMARK    4  A    between atoms: S_3  and  C_4
REMARK    5  A    between atoms: N_24  and  C_25
REMARK                            x       y       z     vdW  Elec       q    Type
REMARK                         _______ _______ _______ _____ _____    ______ ____
ROOT
ATOM      1  C   UNL     1       0.642  11.144  19.485  0.00  0.00    +0.000 A 
ATOM      2  N   UNL     1      -0.124  11.254  20.559  0.00  0.00    +0.000 NA
ATOM      3  C   UNL     1      -0.054  12.413  21.194  0.00  0.00    +0.000 A 
ATOM      4  N   UNL     1      -0.888  12.635  22.256  0.00  0.00    +0.000 N 
ATOM      5  C   UNL     1      -1.954  11.699  22.605  0.00  0.00    +0.000 C 
ATOM      6  C   UNL     1      -3.253  12.484  22.861  0.00  0.00    +0.000 C 
ATOM      7  O   UNL     1      -3.067  13.536  23.826  0.00  0.00    +0.000 OA
ATOM      8  C   UNL     1      -2.065  14.462  23.370  0.00  0.00    +0.000 C 
ATOM      9  C   UNL     1      -0.713  13.765  23.164  0.00  0.00    +0.000 C 
ATOM     10  N   UNL     1       0.748  13.396  20.799  0.00  0.00    +0.000 NA
ATOM     11  C   UNL     1       1.463  13.216  19.695  0.00  0.00    +0.000 A 
ATOM     12  N   UNL     1       2.259  14.237  19.252  0.00  0.00    +0.000 N 
ATOM     13  C   UNL     1       2.981  14.164  17.986  0.00  0.00    +0.000 C 
ATOM     14  C   UNL     1       4.438  14.589  18.223  0.00  0.00    +0.000 C 
ATOM     15  O   UNL     1       4.515  15.890  18.833  0.00  0.00    +0.000 OA
ATOM     16  C   UNL     1       3.833  15.894  20.100  0.00  0.00    +0.000 C 
ATOM     17  C   UNL     1       2.348  15.520  19.948  0.00  0.00    +0.000 C 
ATOM     18  N   UNL     1       1.439  12.085  19.003  0.00  0.00    +0.000 NA
ENDROOT
BRANCH   1  19
ATOM     19  S   UNL     1       0.483   9.645  18.539  0.00  0.00    +0.000 S 
BRANCH  19  21
ATOM     20  C   UNL     1       2.862   8.427  17.740  0.00  0.00    +0.000 C 
ATOM     21  C   UNL     1       2.080   8.866  18.986  0.00  0.00    +0.000 C 
BRANCH  21  22
ATOM     22  C   UNL     1       1.828   7.630  19.864  0.00  0.00    +0.000 C 
ATOM     23  O   UNL     1       1.233   7.737  20.937  0.00  0.00    +0.000 OA
ATOM     24  N   UNL     1       2.268   6.423  19.342  0.00  0.00    +0.000 N 
ATOM     25  H   UNL     1       2.976   6.472  18.618  0.00  0.00    +0.000 HD
BRANCH  24  26
ATOM     26  C   UNL     1       1.995   5.150  19.898  0.00  0.00    +0.000 A 
ATOM     27  C   UNL     1       2.418   4.776  21.180  0.00  0.00    +0.000 A 
ATOM     28  C   UNL     1       2.160   3.500  21.685  0.00  0.00    +0.000 A 
ATOM     29  C   UNL     1       1.460   2.578  20.916  0.00  0.00    +0.000 A 
ATOM     30  C   UNL     1       1.003   2.944  19.650  0.00  0.00    +0.000 A 
ATOM     31  C   UNL     1       1.261   4.227  19.146  0.00  0.00    +0.000 A 
ENDBRANCH  24  26
ENDBRANCH  21  22
ENDBRANCH  19  21
ENDBRANCH   1  19
TORSDOF 4
ENDMDL
