MODEL 1
REMARK VINA RESULT:      -7.5      0.000      0.000
REMARK  Name = 
REMARK  8 active torsions:
REMARK  status: ('A' for Active; 'I' for Inactive)
REMARK    1  A    between atoms: C_1  and  C_2
REMARK    2  A    between atoms: C_2  and  S_3
REMARK    3  A    between atoms: S_3  and  C_6
REMARK    4  A    between atoms: C_6  and  N_7
REMARK    5  A    between atoms: C_6  and  C_11
REMARK    6  A    between atoms: C_8  and  C_9
REMARK    7  A    between atoms: N_13  and  C_14
REMARK    8  A    between atoms: C_14  and  C_15
REMARK                            x       y       z     vdW  Elec       q    Type
REMARK                         _______ _______ _______ _____ _____    ______ ____
ROOT
ATOM      1  C   UNL     1       6.356   6.013  17.225  0.00  0.00    +0.000 C 
ENDROOT
BRANCH   1   2
ATOM      2  N   UNL     1       6.872   7.402  17.227  0.00  0.00    +0.000 N 
ATOM      3  C   UNL     1       7.888   7.794  18.053  0.00  0.00    +0.000 C 
ATOM      4  C   UNL     1       8.249   9.257  17.951  0.00  0.00    +0.000 C 
ATOM      5  O   UNL     1       8.445   7.036  18.832  0.00  0.00    +0.000 OA
ATOM      6  H   UNL     1       6.327   8.090  16.716  0.00  0.00    +0.000 HD
ENDBRANCH   1   2
BRANCH   1   7
ATOM      7  C   UNL     1       5.271   5.918  18.310  0.00  0.00    +0.000 C 
ATOM      8  O   UNL     1       5.533   5.445  19.420  0.00  0.00    +0.000 OA
ATOM      9  N   UNL     1       4.009   6.389  18.000  0.00  0.00    +0.000 N 
ATOM     10  H   UNL     1       3.918   7.037  17.215  0.00  0.00    +0.000 HD
BRANCH   9  11
ATOM     11  C   UNL     1       2.996   6.505  19.031  0.00  0.00    +0.000 C 
BRANCH  11  12
ATOM     12  C   UNL     1       2.222   5.228  19.229  0.00  0.00    +0.000 A 
ATOM     13  C   UNL     1       1.931   4.410  18.129  0.00  0.00    +0.000 A 
ATOM     14  C   UNL     1       1.254   3.200  18.296  0.00  0.00    +0.000 A 
ATOM     15  C   UNL     1       0.853   2.797  19.567  0.00  0.00    +0.000 A 
ATOM     16  C   UNL     1       1.124   3.606  20.671  0.00  0.00    +0.000 A 
ATOM     17  C   UNL     1       1.802   4.816  20.503  0.00  0.00    +0.000 A 
ENDBRANCH  11  12
ENDBRANCH   9  11
ENDBRANCH   1   7
BRANCH   1  18
ATOM     18  S   UNL     1       5.615   5.450  15.668  0.00  0.00    +0.000 S 
ATOM     19  O   UNL     1       5.149   6.622  14.942  0.00  0.00    +0.000 OA
ATOM     20  O   UNL     1       4.694   4.359  15.937  0.00  0.00    +0.000 OA
BRANCH  18  22
ATOM     21  C   UNL     1       6.548   4.129  13.458  0.00  0.00    +0.000 C 
ATOM     22  C   UNL     1       6.993   4.760  14.762  0.00  0.00    +0.000 C 
ENDBRANCH  18  22
ENDBRANCH   1  18
TORSDOF 6
ENDMDL
MODEL 2
REMARK VINA RESULT:      -7.5      2.274      4.414
REMARK  Name = 
REMARK  8 active torsions:
REMARK  status: ('A' for Active; 'I' for Inactive)
REMARK    1  A    between atoms: C_1  and  C_2
REMARK    2  A    between atoms: C_2  and  S_3
REMARK    3  A    between atoms: S_3  and  C_6
REMARK    4  A    between atoms: C_6  and  N_7
REMARK    5  A    between atoms: C_6  and  C_11
REMARK    6  A    between atoms: C_8  and  C_9
REMARK    7  A    between atoms: N_13  and  C_14
REMARK    8  A    between atoms: C_14  and  C_15
REMARK                            x       y       z     vdW  Elec       q    Type
REMARK                         _______ _______ _______ _____ _____    ______ ____
ROOT
ATOM      1  C   UNL     1       5.877   5.391  16.696  0.00  0.00    +0.000 C 
ENDROOT
BRANCH   1   2
ATOM      2  N   UNL     1       5.812   4.532  15.490  0.00  0.00    +0.000 N 
ATOM      3  C   UNL     1       6.650   4.715  14.427  0.00  0.00    +0.000 C 
ATOM      4  C   UNL     1       6.407   3.778  13.268  0.00  0.00    +0.000 C 
ATOM      5  O   UNL     1       7.511   5.581  14.397  0.00  0.00    +0.000 OA
ATOM      6  H   UNL     1       5.008   3.916  15.414  0.00  0.00    +0.000 HD
ENDBRANCH   1   2
BRANCH   1   7
ATOM      7  C   UNL     1       4.502   5.335  17.383  0.00  0.00    +0.000 C 
ATOM      8  O   UNL     1       3.716   4.414  17.141  0.00  0.00    +0.000 OA
ATOM      9  N   UNL     1       4.192   6.339  18.281  0.00  0.00    +0.000 N 
ATOM     10  H   UNL     1       4.960   6.883  18.676  0.00  0.00    +0.000 HD
BRANCH   9  11
ATOM     11  C   UNL     1       3.000   6.245  19.101  0.00  0.00    +0.000 C 
BRANCH  11  12
ATOM     12  C   UNL     1       2.213   7.529  19.130  0.00  0.00    +0.000 A 
ATOM     13  C   UNL     1       1.636   7.968  20.330  0.00  0.00    +0.000 A 
ATOM     14  C   UNL     1       0.942   9.177  20.390  0.00  0.00    +0.000 A 
ATOM     15  C   UNL     1       0.807   9.960  19.246  0.00  0.00    +0.000 A 
ATOM     16  C   UNL     1       1.364   9.532  18.041  0.00  0.00    +0.000 A 
ATOM     17  C   UNL     1       2.061   8.321  17.982  0.00  0.00    +0.000 A 
ENDBRANCH  11  12
ENDBRANCH   9  11
ENDBRANCH   1   7
BRANCH   1  18
ATOM     18  S   UNL     1       7.119   4.921  17.932  0.00  0.00    +0.000 S 
ATOM     19  O   UNL     1       8.176   4.189  17.251  0.00  0.00    +0.000 OA
ATOM     20  O   UNL     1       6.458   4.327  19.081  0.00  0.00    +0.000 OA
BRANCH  18  22
ATOM     21  C   UNL     1       7.568   7.579  17.448  0.00  0.00    +0.000 C 
ATOM     22  C   UNL     1       7.798   6.485  18.472  0.00  0.00    +0.000 C 
ENDBRANCH  18  22
ENDBRANCH   1  18
TORSDOF 6
ENDMDL
MODEL 3
REMARK VINA RESULT:      -7.2      1.328      1.710
REMARK  Name = 
REMARK  8 active torsions:
REMARK  status: ('A' for Active; 'I' for Inactive)
REMARK    1  A    between atoms: C_1  and  C_2
REMARK    2  A    between atoms: C_2  and  S_3
REMARK    3  A    between atoms: S_3  and  C_6
REMARK    4  A    between atoms: C_6  and  N_7
REMARK    5  A    between atoms: C_6  and  C_11
REMARK    6  A    between atoms: C_8  and  C_9
REMARK    7  A    between atoms: N_13  and  C_14
REMARK    8  A    between atoms: C_14  and  C_15
REMARK                            x       y       z     vdW  Elec       q    Type
REMARK                         _______ _______ _______ _____ _____    ______ ____
ROOT
ATOM      1  C   UNL     1       6.513   6.359  17.411  0.00  0.00    +0.000 C 
ENDROOT
BRANCH   1   2
ATOM      2  N   UNL     1       7.107   7.710  17.272  0.00  0.00    +0.000 N 
ATOM      3  C   UNL     1       8.109   8.146  18.091  0.00  0.00    +0.000 C 
ATOM      4  C   UNL     1       8.556   9.565  17.834  0.00  0.00    +0.000 C 
ATOM      5  O   UNL     1       8.590   7.460  18.980  0.00  0.00    +0.000 OA
ATOM      6  H   UNL     1       6.622   8.358  16.658  0.00  0.00    +0.000 HD
ENDBRANCH   1   2
BRANCH   1   7
ATOM      7  C   UNL     1       5.005   6.483  17.139  0.00  0.00    +0.000 C 
ATOM      8  O   UNL     1       4.594   6.880  16.044  0.00  0.00    +0.000 OA
ATOM      9  N   UNL     1       4.137   6.124  18.154  0.00  0.00    +0.000 N 
ATOM     10  H   UNL     1       4.494   5.524  18.900  0.00  0.00    +0.000 HD
BRANCH   9  11
ATOM     11  C   UNL     1       2.712   6.035  17.903  0.00  0.00    +0.000 C 
BRANCH  11  12
ATOM     12  C   UNL     1       2.064   4.892  18.638  0.00  0.00    +0.000 A 
ATOM     13  C   UNL     1       1.713   3.725  17.945  0.00  0.00    +0.000 A 
ATOM     14  C   UNL     1       1.153   2.636  18.615  0.00  0.00    +0.000 A 
ATOM     15  C   UNL     1       0.928   2.703  19.987  0.00  0.00    +0.000 A 
ATOM     16  C   UNL     1       1.259   3.861  20.689  0.00  0.00    +0.000 A 
ATOM     17  C   UNL     1       1.821   4.951  20.019  0.00  0.00    +0.000 A 
ENDBRANCH  11  12
ENDBRANCH   9  11
ENDBRANCH   1   7
BRANCH   1  18
ATOM     18  S   UNL     1       7.163   5.092  16.287  0.00  0.00    +0.000 S 
ATOM     19  O   UNL     1       8.062   4.236  17.046  0.00  0.00    +0.000 OA
ATOM     20  O   UNL     1       7.633   5.723  15.065  0.00  0.00    +0.000 OA
BRANCH  18  22
ATOM     21  C   UNL     1       5.566   3.993  14.353  0.00  0.00    +0.000 C 
ATOM     22  C   UNL     1       5.723   4.124  15.854  0.00  0.00    +0.000 C 
ENDBRANCH  18  22
ENDBRANCH   1  18
TORSDOF 6
ENDMDL
MODEL 4
REMARK VINA RESULT:      -7.2      1.861      3.616
REMARK  Name = 
REMARK  8 active torsions:
REMARK  status: ('A' for Active; 'I' for Inactive)
REMARK    1  A    between atoms: C_1  and  C_2
REMARK    2  A    between atoms: C_2  and  S_3
REMARK    3  A    between atoms: S_3  and  C_6
REMARK    4  A    between atoms: C_6  and  N_7
REMARK    5  A    between atoms: C_6  and  C_11
REMARK    6  A    between atoms: C_8  and  C_9
REMARK    7  A    between atoms: N_13  and  C_14
REMARK    8  A    between atoms: C_14  and  C_15
REMARK                            x       y       z     vdW  Elec       q    Type
REMARK                         _______ _______ _______ _____ _____    ______ ____
ROOT
ATOM      1  C   UNL     1       6.135   5.235  16.463  0.00  0.00    +0.000 C 
ENDROOT
BRANCH   1   2
ATOM      2  N   UNL     1       6.185   4.239  15.367  0.00  0.00    +0.000 N 
ATOM      3  C   UNL     1       6.670   4.552  14.129  0.00  0.00    +0.000 C 
ATOM      4  C   UNL     1       6.599   3.426  13.125  0.00  0.00    +0.000 C 
ATOM      5  O   UNL     1       7.103   5.657  13.841  0.00  0.00    +0.000 OA
ATOM      6  H   UNL     1       5.686   3.368  15.521  0.00  0.00    +0.000 HD
ENDBRANCH   1   2
BRANCH   1   7
ATOM      7  C   UNL     1       4.666   5.379  16.896  0.00  0.00    +0.000 C 
ATOM      8  O   UNL     1       4.167   6.496  17.062  0.00  0.00    +0.000 OA
ATOM      9  N   UNL     1       3.934   4.220  17.077  0.00  0.00    +0.000 N 
ATOM     10  H   UNL     1       4.276   3.363  16.640  0.00  0.00    +0.000 HD
BRANCH   9  11
ATOM     11  C   UNL     1       2.502   4.285  17.297  0.00  0.00    +0.000 C 
BRANCH  11  12
ATOM     12  C   UNL     1       2.122   4.006  18.727  0.00  0.00    +0.000 A 
ATOM     13  C   UNL     1       1.104   3.085  19.012  0.00  0.00    +0.000 A 
ATOM     14  C   UNL     1       0.767   2.777  20.332  0.00  0.00    +0.000 A 
ATOM     15  C   UNL     1       1.438   3.394  21.384  0.00  0.00    +0.000 A 
ATOM     16  C   UNL     1       2.444   4.322  21.118  0.00  0.00    +0.000 A 
ATOM     17  C   UNL     1       2.783   4.629  19.797  0.00  0.00    +0.000 A 
ENDBRANCH  11  12
ENDBRANCH   9  11
ENDBRANCH   1   7
BRANCH   1  18
ATOM     18  S   UNL     1       7.098   4.826  17.945  0.00  0.00    +0.000 S 
ATOM     19  O   UNL     1       8.269   4.070  17.526  0.00  0.00    +0.000 OA
ATOM     20  O   UNL     1       6.215   4.277  18.960  0.00  0.00    +0.000 OA
BRANCH  18  22
ATOM     21  C   UNL     1       7.603   7.473  17.460  0.00  0.00    +0.000 C 
ATOM     22  C   UNL     1       7.659   6.415  18.544  0.00  0.00    +0.000 C 
ENDBRANCH  18  22
ENDBRANCH   1  18
TORSDOF 6
ENDMDL
MODEL 5
REMARK VINA RESULT:      -7.2      1.881      3.700
REMARK  Name = 
REMARK  8 active torsions:
REMARK  status: ('A' for Active; 'I' for Inactive)
REMARK    1  A    between atoms: C_1  and  C_2
REMARK    2  A    between atoms: C_2  and  S_3
REMARK    3  A    between atoms: S_3  and  C_6
REMARK    4  A    between atoms: C_6  and  N_7
REMARK    5  A    between atoms: C_6  and  C_11
REMARK    6  A    between atoms: C_8  and  C_9
REMARK    7  A    between atoms: N_13  and  C_14
REMARK    8  A    between atoms: C_14  and  C_15
REMARK                            x       y       z     vdW  Elec       q    Type
REMARK                         _______ _______ _______ _____ _____    ______ ____
ROOT
ATOM      1  C   UNL     1       6.189   5.565  16.345  0.00  0.00    +0.000 C 
ENDROOT
BRANCH   1   2
ATOM      2  N   UNL     1       5.923   4.668  15.196  0.00  0.00    +0.000 N 
ATOM      3  C   UNL     1       6.715   4.666  14.083  0.00  0.00    +0.000 C 
ATOM      4  C   UNL     1       6.263   3.722  12.994  0.00  0.00    +0.000 C 
ATOM      5  O   UNL     1       7.695   5.385  13.960  0.00  0.00    +0.000 OA
ATOM      6  H   UNL     1       5.031   4.182  15.196  0.00  0.00    +0.000 HD
ENDBRANCH   1   2
BRANCH   1   7
ATOM      7  C   UNL     1       4.832   6.024  16.903  0.00  0.00    +0.000 C 
ATOM      8  O   UNL     1       4.468   7.198  16.783  0.00  0.00    +0.000 OA
ATOM      9  N   UNL     1       4.039   5.076  17.525  0.00  0.00    +0.000 N 
ATOM     10  H   UNL     1       4.227   4.092  17.330  0.00  0.00    +0.000 HD
BRANCH   9  11
ATOM     11  C   UNL     1       2.676   5.395  17.902  0.00  0.00    +0.000 C 
BRANCH  11  12
ATOM     12  C   UNL     1       2.151   4.500  18.994  0.00  0.00    +0.000 A 
ATOM     13  C   UNL     1       2.543   4.717  20.322  0.00  0.00    +0.000 A 
ATOM     14  C   UNL     1       2.034   3.928  21.355  0.00  0.00    +0.000 A 
ATOM     15  C   UNL     1       1.132   2.906  21.072  0.00  0.00    +0.000 A 
ATOM     16  C   UNL     1       0.743   2.669  19.754  0.00  0.00    +0.000 A 
ATOM     17  C   UNL     1       1.251   3.459  18.719  0.00  0.00    +0.000 A 
ENDBRANCH  11  12
ENDBRANCH   9  11
ENDBRANCH   1   7
BRANCH   1  18
ATOM     18  S   UNL     1       7.118   4.830  17.720  0.00  0.00    +0.000 S 
ATOM     19  O   UNL     1       8.271   4.138  17.164  0.00  0.00    +0.000 OA
ATOM     20  O   UNL     1       6.204   4.116  18.595  0.00  0.00    +0.000 OA
BRANCH  18  22
ATOM     21  C   UNL     1       8.291   5.841  19.978  0.00  0.00    +0.000 C 
ATOM     22  C   UNL     1       7.720   6.244  18.634  0.00  0.00    +0.000 C 
ENDBRANCH  18  22
ENDBRANCH   1  18
TORSDOF 6
ENDMDL
MODEL 6
REMARK VINA RESULT:      -7.2      1.886      2.181
REMARK  Name = 
REMARK  8 active torsions:
REMARK  status: ('A' for Active; 'I' for Inactive)
REMARK    1  A    between atoms: C_1  and  C_2
REMARK    2  A    between atoms: C_2  and  S_3
REMARK    3  A    between atoms: S_3  and  C_6
REMARK    4  A    between atoms: C_6  and  N_7
REMARK    5  A    between atoms: C_6  and  C_11
REMARK    6  A    between atoms: C_8  and  C_9
REMARK    7  A    between atoms: N_13  and  C_14
REMARK    8  A    between atoms: C_14  and  C_15
REMARK                            x       y       z     vdW  Elec       q    Type
REMARK                         _______ _______ _______ _____ _____    ______ ____
ROOT
ATOM      1  C   UNL     1       5.772   4.496  16.783  0.00  0.00    +0.000 C 
ENDROOT
BRANCH   1   2
ATOM      2  N   UNL     1       6.372   5.207  17.936  0.00  0.00    +0.000 N 
ATOM      3  C   UNL     1       7.641   4.941  18.368  0.00  0.00    +0.000 C 
ATOM      4  C   UNL     1       8.067   5.728  19.585  0.00  0.00    +0.000 C 
ATOM      5  O   UNL     1       8.368   4.117  17.835  0.00  0.00    +0.000 OA
ATOM      6  H   UNL     1       5.744   5.773  18.498  0.00  0.00    +0.000 HD
ENDBRANCH   1   2
BRANCH   1   7
ATOM      7  C   UNL     1       4.247   4.494  16.979  0.00  0.00    +0.000 C 
ATOM      8  O   UNL     1       3.566   3.538  16.596  0.00  0.00    +0.000 OA
ATOM      9  N   UNL     1       3.679   5.588  17.606  0.00  0.00    +0.000 N 
ATOM     10  H   UNL     1       4.285   6.186  18.169  0.00  0.00    +0.000 HD
BRANCH   9  11
ATOM     11  C   UNL     1       2.281   5.567  17.991  0.00  0.00    +0.000 C 
BRANCH  11  12
ATOM     12  C   UNL     1       2.021   4.680  19.180  0.00  0.00    +0.000 A 
ATOM     13  C   UNL     1       1.186   3.562  19.047  0.00  0.00    +0.000 A 
ATOM     14  C   UNL     1       0.967   2.700  20.124  0.00  0.00    +0.000 A 
ATOM     15  C   UNL     1       1.574   2.953  21.351  0.00  0.00    +0.000 A 
ATOM     16  C   UNL     1       2.397   4.068  21.504  0.00  0.00    +0.000 A 
ATOM     17  C   UNL     1       2.617   4.929  20.426  0.00  0.00    +0.000 A 
ENDBRANCH  11  12
ENDBRANCH   9  11
ENDBRANCH   1   7
BRANCH   1  18
ATOM     18  S   UNL     1       6.107   5.215  15.151  0.00  0.00    +0.000 S 
ATOM     19  O   UNL     1       7.548   5.370  15.016  0.00  0.00    +0.000 OA
ATOM     20  O   UNL     1       5.238   6.360  14.939  0.00  0.00    +0.000 OA
BRANCH  18  22
ATOM     21  C   UNL     1       6.473   3.896  12.780  0.00  0.00    +0.000 C 
ATOM     22  C   UNL     1       5.586   3.943  14.007  0.00  0.00    +0.000 C 
ENDBRANCH  18  22
ENDBRANCH   1  18
TORSDOF 6
ENDMDL
MODEL 7
REMARK VINA RESULT:      -7.2      1.351      2.013
REMARK  Name = 
REMARK  8 active torsions:
REMARK  status: ('A' for Active; 'I' for Inactive)
REMARK    1  A    between atoms: C_1  and  C_2
REMARK    2  A    between atoms: C_2  and  S_3
REMARK    3  A    between atoms: S_3  and  C_6
REMARK    4  A    between atoms: C_6  and  N_7
REMARK    5  A    between atoms: C_6  and  C_11
REMARK    6  A    between atoms: C_8  and  C_9
REMARK    7  A    between atoms: N_13  and  C_14
REMARK    8  A    between atoms: C_14  and  C_15
REMARK                            x       y       z     vdW  Elec       q    Type
REMARK                         _______ _______ _______ _____ _____    ______ ____
ROOT
ATOM      1  C   UNL     1       6.548   6.316  17.364  0.00  0.00    +0.000 C 
ENDROOT
BRANCH   1   2
ATOM      2  N   UNL     1       7.074   7.692  17.208  0.00  0.00    +0.000 N 
ATOM      3  C   UNL     1       8.060   8.185  18.015  0.00  0.00    +0.000 C 
ATOM      4  C   UNL     1       8.436   9.622  17.741  0.00  0.00    +0.000 C 
ATOM      5  O   UNL     1       8.582   7.532  18.906  0.00  0.00    +0.000 OA
ATOM      6  H   UNL     1       6.554   8.311  16.592  0.00  0.00    +0.000 HD
ENDBRANCH   1   2
BRANCH   1   7
ATOM      7  C   UNL     1       5.029   6.369  17.132  0.00  0.00    +0.000 C 
ATOM      8  O   UNL     1       4.566   6.890  16.114  0.00  0.00    +0.000 OA
ATOM      9  N   UNL     1       4.213   5.803  18.095  0.00  0.00    +0.000 N 
ATOM     10  H   UNL     1       4.628   5.128  18.739  0.00  0.00    +0.000 HD
BRANCH   9  11
ATOM     11  C   UNL     1       2.792   5.648  17.852  0.00  0.00    +0.000 C 
BRANCH  11  12
ATOM     12  C   UNL     1       2.150   4.649  18.777  0.00  0.00    +0.000 A 
ATOM     13  C   UNL     1       2.250   4.818  20.165  0.00  0.00    +0.000 A 
ATOM     14  C   UNL     1       1.624   3.928  21.041  0.00  0.00    +0.000 A 
ATOM     15  C   UNL     1       0.898   2.852  20.539  0.00  0.00    +0.000 A 
ATOM     16  C   UNL     1       0.799   2.662  19.161  0.00  0.00    +0.000 A 
ATOM     17  C   UNL     1       1.424   3.553  18.284  0.00  0.00    +0.000 A 
ENDBRANCH  11  12
ENDBRANCH   9  11
ENDBRANCH   1   7
BRANCH   1  18
ATOM     18  S   UNL     1       7.226   5.079  16.223  0.00  0.00    +0.000 S 
ATOM     19  O   UNL     1       8.099   4.197  16.985  0.00  0.00    +0.000 OA
ATOM     20  O   UNL     1       7.734   5.742  15.035  0.00  0.00    +0.000 OA
BRANCH  18  22
ATOM     21  C   UNL     1       5.642   4.101  14.215  0.00  0.00    +0.000 C 
ATOM     22  C   UNL     1       5.796   4.129  15.722  0.00  0.00    +0.000 C 
ENDBRANCH  18  22
ENDBRANCH   1  18
TORSDOF 6
ENDMDL
MODEL 8
REMARK VINA RESULT:      -7.1      0.755      1.277
REMARK  Name = 
REMARK  8 active torsions:
REMARK  status: ('A' for Active; 'I' for Inactive)
REMARK    1  A    between atoms: C_1  and  C_2
REMARK    2  A    between atoms: C_2  and  S_3
REMARK    3  A    between atoms: S_3  and  C_6
REMARK    4  A    between atoms: C_6  and  N_7
REMARK    5  A    between atoms: C_6  and  C_11
REMARK    6  A    between atoms: C_8  and  C_9
REMARK    7  A    between atoms: N_13  and  C_14
REMARK    8  A    between atoms: C_14  and  C_15
REMARK                            x       y       z     vdW  Elec       q    Type
REMARK                         _______ _______ _______ _____ _____    ______ ____
ROOT
ATOM      1  C   UNL     1       6.787   5.694  16.854  0.00  0.00    +0.000 C 
ENDROOT
BRANCH   1   2
ATOM      2  N   UNL     1       7.117   7.131  16.993  0.00  0.00    +0.000 N 
ATOM      3  C   UNL     1       7.931   7.592  17.989  0.00  0.00    +0.000 C 
ATOM      4  C   UNL     1       8.116   9.091  18.004  0.00  0.00    +0.000 C 
ATOM      5  O   UNL     1       8.448   6.862  18.820  0.00  0.00    +0.000 OA
ATOM      6  H   UNL     1       6.577   7.778  16.426  0.00  0.00    +0.000 HD
ENDBRANCH   1   2
BRANCH   1   7
ATOM      7  C   UNL     1       6.036   5.263  18.125  0.00  0.00    +0.000 C 
ATOM      8  O   UNL     1       6.569   4.509  18.945  0.00  0.00    +0.000 OA
ATOM      9  N   UNL     1       4.759   5.758  18.315  0.00  0.00    +0.000 N 
ATOM     10  H   UNL     1       4.486   6.594  17.796  0.00  0.00    +0.000 HD
BRANCH   9  11
ATOM     11  C   UNL     1       4.071   5.547  19.574  0.00  0.00    +0.000 C 
BRANCH  11  12
ATOM     12  C   UNL     1       2.912   4.594  19.450  0.00  0.00    +0.000 A 
ATOM     13  C   UNL     1       1.883   4.617  20.402  0.00  0.00    +0.000 A 
ATOM     14  C   UNL     1       0.777   3.774  20.281  0.00  0.00    +0.000 A 
ATOM     15  C   UNL     1       0.690   2.889  19.209  0.00  0.00    +0.000 A 
ATOM     16  C   UNL     1       1.711   2.844  18.260  0.00  0.00    +0.000 A 
ATOM     17  C   UNL     1       2.818   3.690  18.381  0.00  0.00    +0.000 A 
ENDBRANCH  11  12
ENDBRANCH   9  11
ENDBRANCH   1   7
BRANCH   1  18
ATOM     18  S   UNL     1       5.744   5.257  15.435  0.00  0.00    +0.000 S 
ATOM     19  O   UNL     1       5.119   6.477  14.945  0.00  0.00    +0.000 OA
ATOM     20  O   UNL     1       4.916   4.113  15.776  0.00  0.00    +0.000 OA
BRANCH  18  22
ATOM     21  C   UNL     1       6.263   3.789  13.183  0.00  0.00    +0.000 C 
ATOM     22  C   UNL     1       6.912   4.708  14.198  0.00  0.00    +0.000 C 
ENDBRANCH  18  22
ENDBRANCH   1  18
TORSDOF 6
ENDMDL
MODEL 9
REMARK VINA RESULT:      -7.1      2.200      3.904
REMARK  Name = 
REMARK  8 active torsions:
REMARK  status: ('A' for Active; 'I' for Inactive)
REMARK    1  A    between atoms: C_1  and  C_2
REMARK    2  A    between atoms: C_2  and  S_3
REMARK    3  A    between atoms: S_3  and  C_6
REMARK    4  A    between atoms: C_6  and  N_7
REMARK    5  A    between atoms: C_6  and  C_11
REMARK    6  A    between atoms: C_8  and  C_9
REMARK    7  A    between atoms: N_13  and  C_14
REMARK    8  A    between atoms: C_14  and  C_15
REMARK                            x       y       z     vdW  Elec       q    Type
REMARK                         _______ _______ _______ _____ _____    ______ ____
ROOT
ATOM      1  C   UNL     1       5.392   4.700  16.446  0.00  0.00    +0.000 C 
ENDROOT
BRANCH   1   2
ATOM      2  N   UNL     1       5.742   3.945  15.221  0.00  0.00    +0.000 N 
ATOM      3  C   UNL     1       6.457   4.509  14.203  0.00  0.00    +0.000 C 
ATOM      4  C   UNL     1       6.678   3.605  13.014  0.00  0.00    +0.000 C 
ATOM      5  O   UNL     1       6.866   5.660  14.233  0.00  0.00    +0.000 OA
ATOM      6  H   UNL     1       5.282   3.048  15.093  0.00  0.00    +0.000 HD
ENDBRANCH   1   2
BRANCH   1   7
ATOM      7  C   UNL     1       4.131   4.058  17.046  0.00  0.00    +0.000 C 
ATOM      8  O   UNL     1       3.110   4.729  17.229  0.00  0.00    +0.000 OA
ATOM      9  N   UNL     1       4.181   2.711  17.356  0.00  0.00    +0.000 N 
ATOM     10  H   UNL     1       4.905   2.144  16.912  0.00  0.00    +0.000 HD
BRANCH   9  11
ATOM     11  C   UNL     1       2.977   2.003  17.743  0.00  0.00    +0.000 C 
BRANCH  11  12
ATOM     12  C   UNL     1       2.499   2.381  19.120  0.00  0.00    +0.000 A 
ATOM     13  C   UNL     1       3.364   2.261  20.217  0.00  0.00    +0.000 A 
ATOM     14  C   UNL     1       2.957   2.649  21.495  0.00  0.00    +0.000 A 
ATOM     15  C   UNL     1       1.675   3.154  21.694  0.00  0.00    +0.000 A 
ATOM     16  C   UNL     1       0.798   3.267  20.616  0.00  0.00    +0.000 A 
ATOM     17  C   UNL     1       1.206   2.880  19.336  0.00  0.00    +0.000 A 
ENDBRANCH  11  12
ENDBRANCH   9  11
ENDBRANCH   1   7
BRANCH   1  18
ATOM     18  S   UNL     1       6.658   4.724  17.746  0.00  0.00    +0.000 S 
ATOM     19  O   UNL     1       7.932   4.367  17.140  0.00  0.00    +0.000 OA
ATOM     20  O   UNL     1       6.179   3.984  18.901  0.00  0.00    +0.000 OA
BRANCH  18  22
ATOM     21  C   UNL     1       7.634   7.242  17.293  0.00  0.00    +0.000 C 
ATOM     22  C   UNL     1       6.746   6.444  18.226  0.00  0.00    +0.000 C 
ENDBRANCH  18  22
ENDBRANCH   1  18
TORSDOF 6
ENDMDL
