MODEL 1
REMARK VINA RESULT:      -7.0      0.000      0.000
REMARK  Name = 
REMARK  4 active torsions:
REMARK  status: ('A' for Active; 'I' for Inactive)
REMARK    1  A    between atoms: C_1  and  C_2
REMARK    2  A    between atoms: N_5  and  C_6
REMARK    3  A    between atoms: C_7  and  S_8
REMARK    4  A    between atoms: S_8  and  C_11
REMARK                            x       y       z     vdW  Elec       q    Type
REMARK                         _______ _______ _______ _____ _____    ______ ____
ROOT
ATOM      1  C   UNL     1       5.225   4.088  16.527  0.00  0.00    +0.000 A 
ATOM      2  C   UNL     1       6.037   4.789  17.449  0.00  0.00    +0.000 A 
ATOM      3  C   UNL     1       7.207   5.372  16.971  0.00  0.00    +0.000 A 
ATOM      4  N   UNL     1       7.619   5.353  15.682  0.00  0.00    +0.000 NA
ATOM      5  C   UNL     1       6.835   4.772  14.763  0.00  0.00    +0.000 A 
ATOM      6  C   UNL     1       7.208   4.796  13.408  0.00  0.00    +0.000 A 
ATOM      7  F   UNL     1       8.346   5.407  13.041  0.00  0.00    +0.000 F 
ATOM      8  C   UNL     1       6.444   4.215  12.394  0.00  0.00    +0.000 A 
ATOM      9  C   UNL     1       5.252   3.623  12.718  0.00  0.00    +0.000 A 
ATOM     10  C   UNL     1       4.845   3.628  14.051  0.00  0.00    +0.000 A 
ATOM     11  C   UNL     1       5.624   4.143  15.124  0.00  0.00    +0.000 A 
ENDROOT
BRANCH   1  16
ATOM     12  C   UNL     1       0.964   2.060  19.432  0.00  0.00    +0.000 C 
ATOM     13  C   UNL     1       1.763   2.194  18.141  0.00  0.00    +0.000 C 
ATOM     14  C   UNL     1       3.181   1.720  18.418  0.00  0.00    +0.000 C 
ATOM     15  C   UNL     1       4.102   1.980  17.255  0.00  0.00    +0.000 C 
ATOM     16  N   UNL     1       4.064   3.377  16.851  0.00  0.00    +0.000 N 
ATOM     17  C   UNL     1       2.730   3.856  16.456  0.00  0.00    +0.000 C 
ATOM     18  C   UNL     1       1.752   3.639  17.623  0.00  0.00    +0.000 C 
ENDBRANCH   1  16
BRANCH   2  19
ATOM     19  S   UNL     1       5.837   4.930  19.229  0.00  0.00    +0.000 S 
ATOM     20  O   UNL     1       5.883   3.571  19.763  0.00  0.00    +0.000 OA
ATOM     21  O   UNL     1       6.755   5.899  19.773  0.00  0.00    +0.000 OA
BRANCH  19  22
ATOM     22  C   UNL     1       4.175   5.453  19.613  0.00  0.00    +0.000 A 
ATOM     23  C   UNL     1       3.419   4.729  20.537  0.00  0.00    +0.000 A 
ATOM     24  C   UNL     1       2.155   5.193  20.898  0.00  0.00    +0.000 A 
ATOM     25  C   UNL     1       1.668   6.372  20.341  0.00  0.00    +0.000 A 
ATOM     26  F   UNL     1       0.459   6.821  20.706  0.00  0.00    +0.000 F 
ATOM     27  C   UNL     1       2.418   7.098  19.421  0.00  0.00    +0.000 A 
ATOM     28  C   UNL     1       3.681   6.635  19.045  0.00  0.00    +0.000 A 
ENDBRANCH  19  22
ENDBRANCH   2  19
TORSDOF 3
ENDMDL
MODEL 2
REMARK VINA RESULT:      -6.8      7.646     11.266
REMARK  Name = 
REMARK  4 active torsions:
REMARK  status: ('A' for Active; 'I' for Inactive)
REMARK    1  A    between atoms: C_1  and  C_2
REMARK    2  A    between atoms: N_5  and  C_6
REMARK    3  A    between atoms: C_7  and  S_8
REMARK    4  A    between atoms: S_8  and  C_11
REMARK                            x       y       z     vdW  Elec       q    Type
REMARK                         _______ _______ _______ _____ _____    ______ ____
ROOT
ATOM      1  C   UNL     1      -2.103  12.125  20.386  0.00  0.00    +0.000 A 
ATOM      2  C   UNL     1      -1.045  11.439  19.744  0.00  0.00    +0.000 A 
ATOM      3  C   UNL     1      -1.318  10.816  18.529  0.00  0.00    +0.000 A 
ATOM      4  N   UNL     1      -2.510  10.839  17.891  0.00  0.00    +0.000 NA
ATOM      5  C   UNL     1      -3.514  11.549  18.424  0.00  0.00    +0.000 A 
ATOM      6  C   UNL     1      -4.742  11.643  17.747  0.00  0.00    +0.000 A 
ATOM      7  F   UNL     1      -4.901  11.025  16.565  0.00  0.00    +0.000 F 
ATOM      8  C   UNL     1      -5.833  12.364  18.237  0.00  0.00    +0.000 A 
ATOM      9  C   UNL     1      -5.700  13.049  19.415  0.00  0.00    +0.000 A 
ATOM     10  C   UNL     1      -4.475  13.002  20.079  0.00  0.00    +0.000 A 
ATOM     11  C   UNL     1      -3.362  12.223  19.654  0.00  0.00    +0.000 A 
ENDROOT
BRANCH   1  16
ATOM     12  C   UNL     1      -3.401  15.220  24.794  0.00  0.00    +0.000 C 
ATOM     13  C   UNL     1      -2.475  14.259  24.057  0.00  0.00    +0.000 C 
ATOM     14  C   UNL     1      -2.070  14.915  22.747  0.00  0.00    +0.000 C 
ATOM     15  C   UNL     1      -1.299  13.974  21.858  0.00  0.00    +0.000 C 
ATOM     16  N   UNL     1      -2.026  12.733  21.643  0.00  0.00    +0.000 N 
ATOM     17  C   UNL     1      -2.340  11.995  22.878  0.00  0.00    +0.000 C 
ATOM     18  C   UNL     1      -3.154  12.905  23.814  0.00  0.00    +0.000 C 
ENDBRANCH   1  16
BRANCH   2  19
ATOM     19  S   UNL     1       0.619  11.138  20.351  0.00  0.00    +0.000 S 
ATOM     20  O   UNL     1       1.465  12.189  19.792  0.00  0.00    +0.000 OA
ATOM     21  O   UNL     1       0.618  10.965  21.782  0.00  0.00    +0.000 OA
BRANCH  19  22
ATOM     22  C   UNL     1       1.277   9.657  19.606  0.00  0.00    +0.000 A 
ATOM     23  C   UNL     1       1.725   9.689  18.284  0.00  0.00    +0.000 A 
ATOM     24  C   UNL     1       2.320   8.554  17.736  0.00  0.00    +0.000 A 
ATOM     25  C   UNL     1       2.467   7.409  18.514  0.00  0.00    +0.000 A 
ATOM     26  F   UNL     1       3.056   6.327  17.986  0.00  0.00    +0.000 F 
ATOM     27  C   UNL     1       2.025   7.373  19.833  0.00  0.00    +0.000 A 
ATOM     28  C   UNL     1       1.418   8.502  20.387  0.00  0.00    +0.000 A 
ENDBRANCH  19  22
ENDBRANCH   2  19
TORSDOF 3
ENDMDL
MODEL 3
REMARK VINA RESULT:      -6.8      7.799     10.512
REMARK  Name = 
REMARK  4 active torsions:
REMARK  status: ('A' for Active; 'I' for Inactive)
REMARK    1  A    between atoms: C_1  and  C_2
REMARK    2  A    between atoms: N_5  and  C_6
REMARK    3  A    between atoms: C_7  and  S_8
REMARK    4  A    between atoms: S_8  and  C_11
REMARK                            x       y       z     vdW  Elec       q    Type
REMARK                         _______ _______ _______ _____ _____    ______ ____
ROOT
ATOM      1  C   UNL     1      -1.101  10.998  19.448  0.00  0.00    +0.000 A 
ATOM      2  C   UNL     1      -1.570  11.768  20.538  0.00  0.00    +0.000 A 
ATOM      3  C   UNL     1      -2.794  12.416  20.398  0.00  0.00    +0.000 A 
ATOM      4  N   UNL     1      -3.595  12.343  19.310  0.00  0.00    +0.000 NA
ATOM      5  C   UNL     1      -3.227  11.556  18.290  0.00  0.00    +0.000 A 
ATOM      6  C   UNL     1      -4.073  11.412  17.176  0.00  0.00    +0.000 A 
ATOM      7  F   UNL     1      -5.249  12.061  17.144  0.00  0.00    +0.000 F 
ATOM      8  C   UNL     1      -3.761  10.610  16.077  0.00  0.00    +0.000 A 
ATOM      9  C   UNL     1      -2.594   9.894  16.089  0.00  0.00    +0.000 A 
ATOM     10  C   UNL     1      -1.763   9.991  17.203  0.00  0.00    +0.000 A 
ATOM     11  C   UNL     1      -2.006  10.850  18.312  0.00  0.00    +0.000 A 
ENDROOT
BRANCH   1  16
ATOM     12  C   UNL     1       2.858   7.384  18.049  0.00  0.00    +0.000 C 
ATOM     13  C   UNL     1       2.371   8.606  18.818  0.00  0.00    +0.000 C 
ATOM     14  C   UNL     1       1.204   8.173  19.692  0.00  0.00    +0.000 C 
ATOM     15  C   UNL     1       0.531   9.343  20.359  0.00  0.00    +0.000 C 
ATOM     16  N   UNL     1       0.138  10.352  19.388  0.00  0.00    +0.000 N 
ATOM     17  C   UNL     1       1.253  10.895  18.595  0.00  0.00    +0.000 C 
ATOM     18  C   UNL     1       1.961   9.738  17.867  0.00  0.00    +0.000 C 
ENDBRANCH   1  16
BRANCH   2  19
ATOM     19  S   UNL     1      -0.725  12.148  22.078  0.00  0.00    +0.000 S 
ATOM     20  O   UNL     1      -0.792  10.942  22.900  0.00  0.00    +0.000 OA
ATOM     21  O   UNL     1       0.574  12.716  21.824  0.00  0.00    +0.000 OA
BRANCH  19  22
ATOM     22  C   UNL     1      -1.681  13.324  23.019  0.00  0.00    +0.000 A 
ATOM     23  C   UNL     1      -2.824  12.900  23.700  0.00  0.00    +0.000 A 
ATOM     24  C   UNL     1      -3.514  13.805  24.505  0.00  0.00    +0.000 A 
ATOM     25  C   UNL     1      -3.053  15.113  24.626  0.00  0.00    +0.000 A 
ATOM     26  F   UNL     1      -3.713  15.971  25.415  0.00  0.00    +0.000 F 
ATOM     27  C   UNL     1      -1.913  15.539  23.951  0.00  0.00    +0.000 A 
ATOM     28  C   UNL     1      -1.220  14.643  23.135  0.00  0.00    +0.000 A 
ENDBRANCH  19  22
ENDBRANCH   2  19
TORSDOF 3
ENDMDL
MODEL 4
REMARK VINA RESULT:      -6.5      8.462     12.081
REMARK  Name = 
REMARK  4 active torsions:
REMARK  status: ('A' for Active; 'I' for Inactive)
REMARK    1  A    between atoms: C_1  and  C_2
REMARK    2  A    between atoms: N_5  and  C_6
REMARK    3  A    between atoms: C_7  and  S_8
REMARK    4  A    between atoms: S_8  and  C_11
REMARK                            x       y       z     vdW  Elec       q    Type
REMARK                         _______ _______ _______ _____ _____    ______ ____
ROOT
ATOM      1  C   UNL     1      -3.897  12.041  19.407  0.00  0.00    +0.000 A 
ATOM      2  C   UNL     1      -2.714  12.641  19.899  0.00  0.00    +0.000 A 
ATOM      3  C   UNL     1      -2.814  13.440  21.034  0.00  0.00    +0.000 A 
ATOM      4  N   UNL     1      -3.951  13.666  21.731  0.00  0.00    +0.000 NA
ATOM      5  C   UNL     1      -5.077  13.047  21.348  0.00  0.00    +0.000 A 
ATOM      6  C   UNL     1      -6.256  13.213  22.094  0.00  0.00    +0.000 A 
ATOM      7  F   UNL     1      -6.247  13.987  23.192  0.00  0.00    +0.000 F 
ATOM      8  C   UNL     1      -7.466  12.602  21.759  0.00  0.00    +0.000 A 
ATOM      9  C   UNL     1      -7.509  11.766  20.675  0.00  0.00    +0.000 A 
ATOM     10  C   UNL     1      -6.339  11.556  19.948  0.00  0.00    +0.000 A 
ATOM     11  C   UNL     1      -5.104  12.213  20.210  0.00  0.00    +0.000 A 
ENDROOT
BRANCH   1  16
ATOM     12  C   UNL     1      -2.780  10.018  14.371  0.00  0.00    +0.000 C 
ATOM     13  C   UNL     1      -3.619  10.059  15.642  0.00  0.00    +0.000 C 
ATOM     14  C   UNL     1      -4.151  11.475  15.805  0.00  0.00    +0.000 C 
ATOM     15  C   UNL     1      -4.845  11.670  17.127  0.00  0.00    +0.000 C 
ATOM     16  N   UNL     1      -3.991  11.279  18.237  0.00  0.00    +0.000 N 
ATOM     17  C   UNL     1      -3.544   9.877  18.192  0.00  0.00    +0.000 C 
ATOM     18  C   UNL     1      -2.801   9.630  16.867  0.00  0.00    +0.000 C 
ENDBRANCH   1  16
BRANCH   2  19
ATOM     19  S   UNL     1      -1.071  12.625  19.171  0.00  0.00    +0.000 S 
ATOM     20  O   UNL     1      -1.256  12.545  17.724  0.00  0.00    +0.000 OA
ATOM     21  O   UNL     1      -0.271  13.707  19.688  0.00  0.00    +0.000 OA
BRANCH  19  22
ATOM     22  C   UNL     1      -0.253  11.087  19.554  0.00  0.00    +0.000 A 
ATOM     23  C   UNL     1       0.587  10.496  18.608  0.00  0.00    +0.000 A 
ATOM     24  C   UNL     1       1.292   9.342  18.947  0.00  0.00    +0.000 A 
ATOM     25  C   UNL     1       1.156   8.800  20.222  0.00  0.00    +0.000 A 
ATOM     26  F   UNL     1       1.850   7.700  20.545  0.00  0.00    +0.000 F 
ATOM     27  C   UNL     1       0.322   9.386  21.168  0.00  0.00    +0.000 A 
ATOM     28  C   UNL     1      -0.396  10.536  20.835  0.00  0.00    +0.000 A 
ENDBRANCH  19  22
ENDBRANCH   2  19
TORSDOF 3
ENDMDL
MODEL 5
REMARK VINA RESULT:      -6.2      8.660     11.063
REMARK  Name = 
REMARK  4 active torsions:
REMARK  status: ('A' for Active; 'I' for Inactive)
REMARK    1  A    between atoms: C_1  and  C_2
REMARK    2  A    between atoms: N_5  and  C_6
REMARK    3  A    between atoms: C_7  and  S_8
REMARK    4  A    between atoms: S_8  and  C_11
REMARK                            x       y       z     vdW  Elec       q    Type
REMARK                         _______ _______ _______ _____ _____    ______ ____
ROOT
ATOM      1  C   UNL     1       0.571  13.665  20.027  0.00  0.00    +0.000 A 
ATOM      2  C   UNL     1       0.753  12.370  19.487  0.00  0.00    +0.000 A 
ATOM      3  C   UNL     1       1.733  12.205  18.513  0.00  0.00    +0.000 A 
ATOM      4  N   UNL     1       2.555  13.179  18.059  0.00  0.00    +0.000 NA
ATOM      5  C   UNL     1       2.471  14.400  18.605  0.00  0.00    +0.000 A 
ATOM      6  C   UNL     1       3.357  15.412  18.197  0.00  0.00    +0.000 A 
ATOM      7  F   UNL     1       4.288  15.147  17.265  0.00  0.00    +0.000 F 
ATOM      8  C   UNL     1       3.333  16.706  18.720  0.00  0.00    +0.000 A 
ATOM      9  C   UNL     1       2.433  17.006  19.707  0.00  0.00    +0.000 A 
ATOM     10  C   UNL     1       1.575  16.003  20.154  0.00  0.00    +0.000 A 
ATOM     11  C   UNL     1       1.515  14.693  19.601  0.00  0.00    +0.000 A 
ENDROOT
BRANCH   1  16
ATOM     12  C   UNL     1      -3.756  13.313  23.470  0.00  0.00    +0.000 C 
ATOM     13  C   UNL     1      -2.636  14.101  22.802  0.00  0.00    +0.000 C 
ATOM     14  C   UNL     1      -2.838  14.017  21.298  0.00  0.00    +0.000 C 
ATOM     15  C   UNL     1      -1.682  14.612  20.537  0.00  0.00    +0.000 C 
ATOM     16  N   UNL     1      -0.418  14.024  20.949  0.00  0.00    +0.000 N 
ATOM     17  C   UNL     1      -0.115  14.184  22.381  0.00  0.00    +0.000 C 
ATOM     18  C   UNL     1      -1.256  13.565  23.208  0.00  0.00    +0.000 C 
ENDBRANCH   1  16
BRANCH   2  19
ATOM     19  S   UNL     1      -0.215  10.888  19.795  0.00  0.00    +0.000 S 
ATOM     20  O   UNL     1       0.637   9.753  19.450  0.00  0.00    +0.000 OA
ATOM     21  O   UNL     1      -0.793  10.918  21.115  0.00  0.00    +0.000 OA
BRANCH  19  22
ATOM     22  C   UNL     1      -1.538  10.770  18.603  0.00  0.00    +0.000 A 
ATOM     23  C   UNL     1      -2.676  11.564  18.753  0.00  0.00    +0.000 A 
ATOM     24  C   UNL     1      -3.665  11.532  17.771  0.00  0.00    +0.000 A 
ATOM     25  C   UNL     1      -3.502  10.718  16.654  0.00  0.00    +0.000 A 
ATOM     26  F   UNL     1      -4.449  10.706  15.706  0.00  0.00    +0.000 F 
ATOM     27  C   UNL     1      -2.368   9.927  16.499  0.00  0.00    +0.000 A 
ATOM     28  C   UNL     1      -1.377   9.944  17.482  0.00  0.00    +0.000 A 
ENDBRANCH  19  22
ENDBRANCH   2  19
TORSDOF 3
ENDMDL
MODEL 6
REMARK VINA RESULT:      -6.1     10.648     13.594
REMARK  Name = 
REMARK  4 active torsions:
REMARK  status: ('A' for Active; 'I' for Inactive)
REMARK    1  A    between atoms: C_1  and  C_2
REMARK    2  A    between atoms: N_5  and  C_6
REMARK    3  A    between atoms: C_7  and  S_8
REMARK    4  A    between atoms: S_8  and  C_11
REMARK                            x       y       z     vdW  Elec       q    Type
REMARK                         _______ _______ _______ _____ _____    ______ ____
ROOT
ATOM      1  C   UNL     1      -3.690  12.926  20.098  0.00  0.00    +0.000 A 
ATOM      2  C   UNL     1      -4.893  12.827  19.361  0.00  0.00    +0.000 A 
ATOM      3  C   UNL     1      -4.913  11.971  18.264  0.00  0.00    +0.000 A 
ATOM      4  N   UNL     1      -3.881  11.195  17.860  0.00  0.00    +0.000 NA
ATOM      5  C   UNL     1      -2.752  11.196  18.581  0.00  0.00    +0.000 A 
ATOM      6  C   UNL     1      -1.689  10.351  18.221  0.00  0.00    +0.000 A 
ATOM      7  F   UNL     1      -1.814   9.540  17.157  0.00  0.00    +0.000 F 
ATOM      8  C   UNL     1      -0.484  10.295  18.923  0.00  0.00    +0.000 A 
ATOM      9  C   UNL     1      -0.331  11.069  20.042  0.00  0.00    +0.000 A 
ATOM     10  C   UNL     1      -1.391  11.882  20.439  0.00  0.00    +0.000 A 
ATOM     11  C   UNL     1      -2.607  12.025  19.715  0.00  0.00    +0.000 A 
ENDROOT
BRANCH   1  16
ATOM     12  C   UNL     1      -4.638  16.535  24.195  0.00  0.00    +0.000 C 
ATOM     13  C   UNL     1      -3.700  15.668  23.363  0.00  0.00    +0.000 C 
ATOM     14  C   UNL     1      -3.834  16.097  21.910  0.00  0.00    +0.000 C 
ATOM     15  C   UNL     1      -3.084  15.183  20.978  0.00  0.00    +0.000 C 
ATOM     16  N   UNL     1      -3.470  13.795  21.173  0.00  0.00    +0.000 N 
ATOM     17  C   UNL     1      -3.247  13.291  22.538  0.00  0.00    +0.000 C 
ATOM     18  C   UNL     1      -4.018  14.177  23.532  0.00  0.00    +0.000 C 
ENDBRANCH   1  16
BRANCH   2  19
ATOM     19  S   UNL     1      -6.407  13.773  19.566  0.00  0.00    +0.000 S 
ATOM     20  O   UNL     1      -6.045  15.179  19.403  0.00  0.00    +0.000 OA
ATOM     21  O   UNL     1      -7.457  13.248  18.730  0.00  0.00    +0.000 OA
BRANCH  19  22
ATOM     22  C   UNL     1      -6.946  13.694  21.265  0.00  0.00    +0.000 A 
ATOM     23  C   UNL     1      -6.875  12.484  21.957  0.00  0.00    +0.000 A 
ATOM     24  C   UNL     1      -7.214  12.449  23.309  0.00  0.00    +0.000 A 
ATOM     25  C   UNL     1      -7.609  13.620  23.951  0.00  0.00    +0.000 A 
ATOM     26  F   UNL     1      -7.916  13.582  25.255  0.00  0.00    +0.000 F 
ATOM     27  C   UNL     1      -7.679  14.829  23.266  0.00  0.00    +0.000 A 
ATOM     28  C   UNL     1      -7.351  14.871  21.909  0.00  0.00    +0.000 A 
ENDBRANCH  19  22
ENDBRANCH   2  19
TORSDOF 3
ENDMDL
MODEL 7
REMARK VINA RESULT:      -6.1     10.142     11.102
REMARK  Name = 
REMARK  4 active torsions:
REMARK  status: ('A' for Active; 'I' for Inactive)
REMARK    1  A    between atoms: C_1  and  C_2
REMARK    2  A    between atoms: N_5  and  C_6
REMARK    3  A    between atoms: C_7  and  S_8
REMARK    4  A    between atoms: S_8  and  C_11
REMARK                            x       y       z     vdW  Elec       q    Type
REMARK                         _______ _______ _______ _____ _____    ______ ____
ROOT
ATOM      1  C   UNL     1       8.342  14.051  19.845  0.00  0.00    +0.000 A 
ATOM      2  C   UNL     1       8.252  13.767  21.228  0.00  0.00    +0.000 A 
ATOM      3  C   UNL     1       9.190  12.895  21.774  0.00  0.00    +0.000 A 
ATOM      4  N   UNL     1      10.207  12.318  21.094  0.00  0.00    +0.000 NA
ATOM      5  C   UNL     1      10.378  12.628  19.802  0.00  0.00    +0.000 A 
ATOM      6  C   UNL     1      11.465  12.093  19.090  0.00  0.00    +0.000 A 
ATOM      7  F   UNL     1      12.333  11.278  19.713  0.00  0.00    +0.000 F 
ATOM      8  C   UNL     1      11.710  12.370  17.744  0.00  0.00    +0.000 A 
ATOM      9  C   UNL     1      10.878  13.234  17.083  0.00  0.00    +0.000 A 
ATOM     10  C   UNL     1       9.819  13.807  17.784  0.00  0.00    +0.000 A 
ATOM     11  C   UNL     1       9.490  13.498  19.133  0.00  0.00    +0.000 A 
ENDROOT
BRANCH   1  16
ATOM     12  C   UNL     1       3.661  16.604  18.335  0.00  0.00    +0.000 C 
ATOM     13  C   UNL     1       5.134  16.271  18.126  0.00  0.00    +0.000 C 
ATOM     14  C   UNL     1       5.259  14.760  18.013  0.00  0.00    +0.000 C 
ATOM     15  C   UNL     1       6.697  14.312  17.985  0.00  0.00    +0.000 C 
ATOM     16  N   UNL     1       7.438  14.836  19.121  0.00  0.00    +0.000 N 
ATOM     17  C   UNL     1       7.449  16.306  19.209  0.00  0.00    +0.000 C 
ATOM     18  C   UNL     1       5.999  16.816  19.270  0.00  0.00    +0.000 C 
ENDBRANCH   1  16
BRANCH   2  19
ATOM     19  S   UNL     1       6.985  14.285  22.392  0.00  0.00    +0.000 S 
ATOM     20  O   UNL     1       7.431  15.556  22.957  0.00  0.00    +0.000 OA
ATOM     21  O   UNL     1       5.680  14.241  21.782  0.00  0.00    +0.000 OA
BRANCH  19  22
ATOM     22  C   UNL     1       6.982  13.198  23.807  0.00  0.00    +0.000 A 
ATOM     23  C   UNL     1       7.708  13.547  24.947  0.00  0.00    +0.000 A 
ATOM     24  C   UNL     1       7.629  12.738  26.080  0.00  0.00    +0.000 A 
ATOM     25  C   UNL     1       6.824  11.602  26.063  0.00  0.00    +0.000 A 
ATOM     26  F   UNL     1       6.741  10.840  27.162  0.00  0.00    +0.000 F 
ATOM     27  C   UNL     1       6.097  11.253  24.930  0.00  0.00    +0.000 A 
ATOM     28  C   UNL     1       6.178  12.050  23.787  0.00  0.00    +0.000 A 
ENDBRANCH  19  22
ENDBRANCH   2  19
TORSDOF 3
ENDMDL
MODEL 8
REMARK VINA RESULT:      -6.1      6.958      9.926
REMARK  Name = 
REMARK  4 active torsions:
REMARK  status: ('A' for Active; 'I' for Inactive)
REMARK    1  A    between atoms: C_1  and  C_2
REMARK    2  A    between atoms: N_5  and  C_6
REMARK    3  A    between atoms: C_7  and  S_8
REMARK    4  A    between atoms: S_8  and  C_11
REMARK                            x       y       z     vdW  Elec       q    Type
REMARK                         _______ _______ _______ _____ _____    ______ ____
ROOT
ATOM      1  C   UNL     1      -0.119  12.298  19.784  0.00  0.00    +0.000 A 
ATOM      2  C   UNL     1       0.790  11.587  20.602  0.00  0.00    +0.000 A 
ATOM      3  C   UNL     1       1.986  12.213  20.940  0.00  0.00    +0.000 A 
ATOM      4  N   UNL     1       2.340  13.467  20.577  0.00  0.00    +0.000 NA
ATOM      5  C   UNL     1       1.470  14.205  19.873  0.00  0.00    +0.000 A 
ATOM      6  C   UNL     1       1.787  15.533  19.540  0.00  0.00    +0.000 A 
ATOM      7  F   UNL     1       2.959  16.058  19.934  0.00  0.00    +0.000 F 
ATOM      8  C   UNL     1       0.934  16.363  18.812  0.00  0.00    +0.000 A 
ATOM      9  C   UNL     1      -0.291  15.885  18.430  0.00  0.00    +0.000 A 
ATOM     10  C   UNL     1      -0.640  14.584  18.789  0.00  0.00    +0.000 A 
ATOM     11  C   UNL     1       0.225  13.680  19.467  0.00  0.00    +0.000 A 
ENDROOT
BRANCH   1  16
ATOM     12  C   UNL     1      -4.897  11.939  17.001  0.00  0.00    +0.000 C 
ATOM     13  C   UNL     1      -3.840  11.353  17.930  0.00  0.00    +0.000 C 
ATOM     14  C   UNL     1      -3.716  12.272  19.135  0.00  0.00    +0.000 C 
ATOM     15  C   UNL     1      -2.568  11.882  20.029  0.00  0.00    +0.000 C 
ATOM     16  N   UNL     1      -1.323  11.790  19.284  0.00  0.00    +0.000 N 
ATOM     17  C   UNL     1      -1.351  10.821  18.176  0.00  0.00    +0.000 C 
ATOM     18  C   UNL     1      -2.493  11.193  17.213  0.00  0.00    +0.000 C 
ENDBRANCH   1  16
BRANCH   2  19
ATOM     19  S   UNL     1       0.677   9.889  21.179  0.00  0.00    +0.000 S 
ATOM     20  O   UNL     1       1.570   9.778  22.330  0.00  0.00    +0.000 OA
ATOM     21  O   UNL     1      -0.699   9.498  21.356  0.00  0.00    +0.000 OA
BRANCH  19  22
ATOM     22  C   UNL     1       1.425   8.793  19.987  0.00  0.00    +0.000 A 
ATOM     23  C   UNL     1       1.661   9.242  18.687  0.00  0.00    +0.000 A 
ATOM     24  C   UNL     1       2.326   8.412  17.787  0.00  0.00    +0.000 A 
ATOM     25  C   UNL     1       2.754   7.152  18.197  0.00  0.00    +0.000 A 
ATOM     26  F   UNL     1       3.408   6.366  17.331  0.00  0.00    +0.000 F 
ATOM     27  C   UNL     1       2.523   6.700  19.492  0.00  0.00    +0.000 A 
ATOM     28  C   UNL     1       1.848   7.521  20.398  0.00  0.00    +0.000 A 
ENDBRANCH  19  22
ENDBRANCH   2  19
TORSDOF 3
ENDMDL
MODEL 9
REMARK VINA RESULT:      -6.1     10.307     13.253
REMARK  Name = 
REMARK  4 active torsions:
REMARK  status: ('A' for Active; 'I' for Inactive)
REMARK    1  A    between atoms: C_1  and  C_2
REMARK    2  A    between atoms: N_5  and  C_6
REMARK    3  A    between atoms: C_7  and  S_8
REMARK    4  A    between atoms: S_8  and  C_11
REMARK                            x       y       z     vdW  Elec       q    Type
REMARK                         _______ _______ _______ _____ _____    ______ ____
ROOT
ATOM      1  C   UNL     1      -3.590  12.719  20.131  0.00  0.00    +0.000 A 
ATOM      2  C   UNL     1      -4.781  12.615  19.374  0.00  0.00    +0.000 A 
ATOM      3  C   UNL     1      -4.748  11.842  18.216  0.00  0.00    +0.000 A 
ATOM      4  N   UNL     1      -3.675  11.149  17.770  0.00  0.00    +0.000 NA
ATOM      5  C   UNL     1      -2.554  11.153  18.504  0.00  0.00    +0.000 A 
ATOM      6  C   UNL     1      -1.447  10.389  18.097  0.00  0.00    +0.000 A 
ATOM      7  F   UNL     1      -1.522   9.653  16.975  0.00  0.00    +0.000 F 
ATOM      8  C   UNL     1      -0.247  10.341  18.808  0.00  0.00    +0.000 A 
ATOM      9  C   UNL     1      -0.144  11.037  19.983  0.00  0.00    +0.000 A 
ATOM     10  C   UNL     1      -1.246  11.767  20.425  0.00  0.00    +0.000 A 
ATOM     11  C   UNL     1      -2.461  11.902  19.697  0.00  0.00    +0.000 A 
ENDROOT
BRANCH   1  16
ATOM     12  C   UNL     1      -1.224  15.223  24.471  0.00  0.00    +0.000 C 
ATOM     13  C   UNL     1      -2.427  14.939  23.580  0.00  0.00    +0.000 C 
ATOM     14  C   UNL     1      -2.678  13.439  23.596  0.00  0.00    +0.000 C 
ATOM     15  C   UNL     1      -3.734  13.031  22.604  0.00  0.00    +0.000 C 
ATOM     16  N   UNL     1      -3.424  13.516  21.269  0.00  0.00    +0.000 N 
ATOM     17  C   UNL     1      -3.290  14.979  21.173  0.00  0.00    +0.000 C 
ATOM     18  C   UNL     1      -2.198  15.448  22.151  0.00  0.00    +0.000 C 
ENDBRANCH   1  16
BRANCH   2  19
ATOM     19  S   UNL     1      -6.341  13.469  19.627  0.00  0.00    +0.000 S 
ATOM     20  O   UNL     1      -6.103  14.876  19.313  0.00  0.00    +0.000 OA
ATOM     21  O   UNL     1      -7.412  12.797  18.935  0.00  0.00    +0.000 OA
BRANCH  19  22
ATOM     22  C   UNL     1      -6.734  13.510  21.367  0.00  0.00    +0.000 A 
ATOM     23  C   UNL     1      -6.739  14.730  22.046  0.00  0.00    +0.000 A 
ATOM     24  C   UNL     1      -7.133  14.766  23.382  0.00  0.00    +0.000 A 
ATOM     25  C   UNL     1      -7.523  13.591  24.019  0.00  0.00    +0.000 A 
ATOM     26  F   UNL     1      -7.917  13.637  25.299  0.00  0.00    +0.000 F 
ATOM     27  C   UNL     1      -7.522  12.373  23.346  0.00  0.00    +0.000 A 
ATOM     28  C   UNL     1      -7.119  12.325  22.010  0.00  0.00    +0.000 A 
ENDBRANCH  19  22
ENDBRANCH   2  19
TORSDOF 3
ENDMDL
