MODEL 1
REMARK VINA RESULT:      -6.7      0.000      0.000
REMARK  Name = 
REMARK  6 active torsions:
REMARK  status: ('A' for Active; 'I' for Inactive)
REMARK    1  A    between atoms: C_1  and  N_2
REMARK    2  A    between atoms: C_3  and  S_4
REMARK    3  A    between atoms: C_3  and  C_5
REMARK    4  A    between atoms: C_7  and  C_8
REMARK    5  A    between atoms: C_7  and  C_9
REMARK    6  A    between atoms: C_14  and  C_15
REMARK                            x       y       z     vdW  Elec       q    Type
REMARK                         _______ _______ _______ _____ _____    ______ ____
ROOT
ATOM      1  C   UNL     1       2.447   6.128  19.657  0.00  0.00    +0.000 C 
ATOM      2  C   UNL     1       1.512   5.180  19.829  0.00  0.00    +0.000 C 
ATOM      3  C   UNL     1       1.767   3.696  19.804  0.00  0.00    +0.000 C 
ATOM      4  C   UNL     1       1.176   3.091  18.530  0.00  0.00    +0.000 C 
ATOM      5  C   UNL     1       1.121   3.051  21.039  0.00  0.00    +0.000 C 
ATOM      6  O   UNL     1       3.154   3.345  19.876  0.00  0.00    +0.000 OA
ATOM      7  C   UNL     1       4.050   4.248  19.373  0.00  0.00    +0.000 A 
ATOM      8  C   UNL     1       5.278   3.685  18.999  0.00  0.00    +0.000 A 
ATOM      9  C   UNL     1       6.264   4.475  18.423  0.00  0.00    +0.000 A 
ATOM     10  C   UNL     1       6.043   5.841  18.260  0.00  0.00    +0.000 A 
ATOM     11  C   UNL     1       4.825   6.403  18.713  0.00  0.00    +0.000 A 
ATOM     12  C   UNL     1       3.789   5.624  19.255  0.00  0.00    +0.000 A 
ENDROOT
BRANCH  10  13
ATOM     13  C   UNL     1       7.059   6.723  17.572  0.00  0.00    +0.000 C 
ATOM     14  F   UNL     1       7.542   6.195  16.411  0.00  0.00    +0.000 F 
ATOM     15  F   UNL     1       6.546   7.940  17.241  0.00  0.00    +0.000 F 
ATOM     16  F   UNL     1       8.147   6.974  18.350  0.00  0.00    +0.000 F 
ENDBRANCH  10  13
BRANCH   1  19
ATOM     17  C   UNL     1       2.311   8.428  17.604  0.00  0.00    +0.000 C 
ATOM     18  N   UNL     1       1.897   8.524  18.991  0.00  0.00    +0.000 NA
ATOM     19  C   UNL     1       1.958   7.545  19.819  0.00  0.00    +0.000 C 
BRANCH  19  20
ATOM     20  S   UNL     1       1.420   8.036  21.415  0.00  0.00    +0.000 S 
ATOM     21  H   UNL     1       1.083   9.275  21.031  0.00  0.00    +0.000 HD
ENDBRANCH  19  20
ENDBRANCH   1  19
TORSDOF 3
ENDMDL
MODEL 2
REMARK VINA RESULT:      -6.6      4.451      5.927
REMARK  Name = 
REMARK  6 active torsions:
REMARK  status: ('A' for Active; 'I' for Inactive)
REMARK    1  A    between atoms: C_1  and  N_2
REMARK    2  A    between atoms: C_3  and  S_4
REMARK    3  A    between atoms: C_3  and  C_5
REMARK    4  A    between atoms: C_7  and  C_8
REMARK    5  A    between atoms: C_7  and  C_9
REMARK    6  A    between atoms: C_14  and  C_15
REMARK                            x       y       z     vdW  Elec       q    Type
REMARK                         _______ _______ _______ _____ _____    ______ ____
ROOT
ATOM      1  C   UNL     1       4.963   4.952  16.804  0.00  0.00    +0.000 C 
ATOM      2  C   UNL     1       5.857   5.240  17.764  0.00  0.00    +0.000 C 
ATOM      3  C   UNL     1       7.309   5.563  17.527  0.00  0.00    +0.000 C 
ATOM      4  C   UNL     1       8.182   4.402  18.008  0.00  0.00    +0.000 C 
ATOM      5  C   UNL     1       7.673   6.844  18.291  0.00  0.00    +0.000 C 
ATOM      6  O   UNL     1       7.626   5.837  16.158  0.00  0.00    +0.000 OA
ATOM      7  C   UNL     1       6.848   5.234  15.207  0.00  0.00    +0.000 A 
ATOM      8  C   UNL     1       7.471   5.106  13.958  0.00  0.00    +0.000 A 
ATOM      9  C   UNL     1       6.819   4.465  12.913  0.00  0.00    +0.000 A 
ATOM     10  C   UNL     1       5.523   3.987  13.100  0.00  0.00    +0.000 A 
ATOM     11  C   UNL     1       4.885   4.193  14.347  0.00  0.00    +0.000 A 
ATOM     12  C   UNL     1       5.533   4.794  15.438  0.00  0.00    +0.000 A 
ENDROOT
BRANCH  10  13
ATOM     13  C   UNL     1       4.806   3.220  12.014  0.00  0.00    +0.000 C 
ATOM     14  F   UNL     1       4.766   3.874  10.818  0.00  0.00    +0.000 F 
ATOM     15  F   UNL     1       5.393   2.017  11.758  0.00  0.00    +0.000 F 
ATOM     16  F   UNL     1       3.513   2.943  12.334  0.00  0.00    +0.000 F 
ENDBRANCH  10  13
BRANCH   1  19
ATOM     17  C   UNL     1       2.946   7.000  17.927  0.00  0.00    +0.000 C 
ATOM     18  N   UNL     1       2.691   5.581  17.768  0.00  0.00    +0.000 NA
ATOM     19  C   UNL     1       3.549   4.755  17.287  0.00  0.00    +0.000 C 
BRANCH  19  20
ATOM     20  S   UNL     1       2.915   3.120  17.284  0.00  0.00    +0.000 S 
ATOM     21  H   UNL     1       2.175   3.295  18.388  0.00  0.00    +0.000 HD
ENDBRANCH  19  20
ENDBRANCH   1  19
TORSDOF 3
ENDMDL
MODEL 3
REMARK VINA RESULT:      -6.5      1.479      1.830
REMARK  Name = 
REMARK  6 active torsions:
REMARK  status: ('A' for Active; 'I' for Inactive)
REMARK    1  A    between atoms: C_1  and  N_2
REMARK    2  A    between atoms: C_3  and  S_4
REMARK    3  A    between atoms: C_3  and  C_5
REMARK    4  A    between atoms: C_7  and  C_8
REMARK    5  A    between atoms: C_7  and  C_9
REMARK    6  A    between atoms: C_14  and  C_15
REMARK                            x       y       z     vdW  Elec       q    Type
REMARK                         _______ _______ _______ _____ _____    ______ ____
ROOT
ATOM      1  C   UNL     1       2.314   5.841  19.563  0.00  0.00    +0.000 C 
ATOM      2  C   UNL     1       1.530   4.998  20.253  0.00  0.00    +0.000 C 
ATOM      3  C   UNL     1       1.687   3.501  20.288  0.00  0.00    +0.000 C 
ATOM      4  C   UNL     1       0.548   2.843  19.507  0.00  0.00    +0.000 C 
ATOM      5  C   UNL     1       1.664   3.024  21.748  0.00  0.00    +0.000 C 
ATOM      6  O   UNL     1       2.934   3.037  19.759  0.00  0.00    +0.000 OA
ATOM      7  C   UNL     1       3.528   3.810  18.800  0.00  0.00    +0.000 A 
ATOM      8  C   UNL     1       4.419   3.111  17.974  0.00  0.00    +0.000 A 
ATOM      9  C   UNL     1       5.055   3.757  16.922  0.00  0.00    +0.000 A 
ATOM     10  C   UNL     1       4.835   5.119  16.719  0.00  0.00    +0.000 A 
ATOM     11  C   UNL     1       3.989   5.822  17.610  0.00  0.00    +0.000 A 
ATOM     12  C   UNL     1       3.294   5.188  18.653  0.00  0.00    +0.000 A 
ENDROOT
BRANCH  10  13
ATOM     13  C   UNL     1       5.448   5.844  15.544  0.00  0.00    +0.000 C 
ATOM     14  F   UNL     1       4.867   7.050  15.283  0.00  0.00    +0.000 F 
ATOM     15  F   UNL     1       6.772   6.104  15.732  0.00  0.00    +0.000 F 
ATOM     16  F   UNL     1       5.367   5.131  14.388  0.00  0.00    +0.000 F 
ENDBRANCH  10  13
BRANCH   1  19
ATOM     17  C   UNL     1       2.401   8.180  17.551  0.00  0.00    +0.000 C 
ATOM     18  N   UNL     1       2.047   8.300  18.953  0.00  0.00    +0.000 NA
ATOM     19  C   UNL     1       2.010   7.304  19.763  0.00  0.00    +0.000 C 
BRANCH  19  20
ATOM     20  S   UNL     1       1.588   7.827  21.383  0.00  0.00    +0.000 S 
ATOM     21  H   UNL     1       1.119   9.019  20.987  0.00  0.00    +0.000 HD
ENDBRANCH  19  20
ENDBRANCH   1  19
TORSDOF 3
ENDMDL
MODEL 4
REMARK VINA RESULT:      -6.5      1.039      1.560
REMARK  Name = 
REMARK  6 active torsions:
REMARK  status: ('A' for Active; 'I' for Inactive)
REMARK    1  A    between atoms: C_1  and  N_2
REMARK    2  A    between atoms: C_3  and  S_4
REMARK    3  A    between atoms: C_3  and  C_5
REMARK    4  A    between atoms: C_7  and  C_8
REMARK    5  A    between atoms: C_7  and  C_9
REMARK    6  A    between atoms: C_14  and  C_15
REMARK                            x       y       z     vdW  Elec       q    Type
REMARK                         _______ _______ _______ _____ _____    ______ ____
ROOT
ATOM      1  C   UNL     1       2.496   6.374  19.265  0.00  0.00    +0.000 C 
ATOM      2  C   UNL     1       1.545   5.440  19.425  0.00  0.00    +0.000 C 
ATOM      3  C   UNL     1       1.795   3.958  19.528  0.00  0.00    +0.000 C 
ATOM      4  C   UNL     1       1.309   3.262  18.256  0.00  0.00    +0.000 C 
ATOM      5  C   UNL     1       1.045   3.402  20.747  0.00  0.00    +0.000 C 
ATOM      6  O   UNL     1       3.168   3.615  19.742  0.00  0.00    +0.000 OA
ATOM      7  C   UNL     1       4.108   4.481  19.253  0.00  0.00    +0.000 A 
ATOM      8  C   UNL     1       5.360   3.895  19.024  0.00  0.00    +0.000 A 
ATOM      9  C   UNL     1       6.395   4.642  18.478  0.00  0.00    +0.000 A 
ATOM     10  C   UNL     1       6.195   5.993  18.199  0.00  0.00    +0.000 A 
ATOM     11  C   UNL     1       4.945   6.584  18.507  0.00  0.00    +0.000 A 
ATOM     12  C   UNL     1       3.864   5.844  19.014  0.00  0.00    +0.000 A 
ENDROOT
BRANCH  10  13
ATOM     13  C   UNL     1       7.269   6.824  17.537  0.00  0.00    +0.000 C 
ATOM     14  F   UNL     1       8.379   6.997  18.310  0.00  0.00    +0.000 F 
ATOM     15  F   UNL     1       7.709   6.268  16.374  0.00  0.00    +0.000 F 
ATOM     16  F   UNL     1       6.839   8.075  17.214  0.00  0.00    +0.000 F 
ENDBRANCH  10  13
BRANCH   1  19
ATOM     17  C   UNL     1       1.270   8.020  21.570  0.00  0.00    +0.000 C 
ATOM     18  N   UNL     1       1.478   8.506  20.218  0.00  0.00    +0.000 NA
ATOM     19  C   UNL     1       2.001   7.798  19.283  0.00  0.00    +0.000 C 
BRANCH  19  20
ATOM     20  S   UNL     1       2.056   8.691  17.775  0.00  0.00    +0.000 S 
ATOM     21  H   UNL     1       1.178   9.621  18.175  0.00  0.00    +0.000 HD
ENDBRANCH  19  20
ENDBRANCH   1  19
TORSDOF 3
ENDMDL
MODEL 5
REMARK VINA RESULT:      -6.4      1.911      2.326
REMARK  Name = 
REMARK  6 active torsions:
REMARK  status: ('A' for Active; 'I' for Inactive)
REMARK    1  A    between atoms: C_1  and  N_2
REMARK    2  A    between atoms: C_3  and  S_4
REMARK    3  A    between atoms: C_3  and  C_5
REMARK    4  A    between atoms: C_7  and  C_8
REMARK    5  A    between atoms: C_7  and  C_9
REMARK    6  A    between atoms: C_14  and  C_15
REMARK                            x       y       z     vdW  Elec       q    Type
REMARK                         _______ _______ _______ _____ _____    ______ ____
ROOT
ATOM      1  C   UNL     1       2.481   5.999  19.246  0.00  0.00    +0.000 C 
ATOM      2  C   UNL     1       1.720   5.249  20.057  0.00  0.00    +0.000 C 
ATOM      3  C   UNL     1       1.886   3.768  20.277  0.00  0.00    +0.000 C 
ATOM      4  C   UNL     1       0.731   3.014  19.614  0.00  0.00    +0.000 C 
ATOM      5  C   UNL     1       1.903   3.479  21.784  0.00  0.00    +0.000 C 
ATOM      6  O   UNL     1       3.121   3.243  19.777  0.00  0.00    +0.000 OA
ATOM      7  C   UNL     1       3.686   3.890  18.713  0.00  0.00    +0.000 A 
ATOM      8  C   UNL     1       4.559   3.094  17.959  0.00  0.00    +0.000 A 
ATOM      9  C   UNL     1       5.164   3.604  16.818  0.00  0.00    +0.000 A 
ATOM     10  C   UNL     1       4.932   4.928  16.451  0.00  0.00    +0.000 A 
ATOM     11  C   UNL     1       4.106   5.737  17.268  0.00  0.00    +0.000 A 
ATOM     12  C   UNL     1       3.442   5.238  18.400  0.00  0.00    +0.000 A 
ENDROOT
BRANCH  10  13
ATOM     13  C   UNL     1       5.511   5.501  15.178  0.00  0.00    +0.000 C 
ATOM     14  F   UNL     1       6.870   5.617  15.199  0.00  0.00    +0.000 F 
ATOM     15  F   UNL     1       5.221   4.736  14.089  0.00  0.00    +0.000 F 
ATOM     16  F   UNL     1       5.033   6.745  14.898  0.00  0.00    +0.000 F 
ENDBRANCH  10  13
BRANCH   1  19
ATOM     17  C   UNL     1       1.295   7.747  21.496  0.00  0.00    +0.000 C 
ATOM     18  N   UNL     1       1.675   8.227  20.180  0.00  0.00    +0.000 NA
ATOM     19  C   UNL     1       2.176   7.475  19.268  0.00  0.00    +0.000 C 
BRANCH  19  20
ATOM     20  S   UNL     1       2.470   8.383  17.796  0.00  0.00    +0.000 S 
ATOM     21  H   UNL     1       2.464   7.300  17.006  0.00  0.00    +0.000 HD
ENDBRANCH  19  20
ENDBRANCH   1  19
TORSDOF 3
ENDMDL
MODEL 6
REMARK VINA RESULT:      -6.3      4.379      5.981
REMARK  Name = 
REMARK  6 active torsions:
REMARK  status: ('A' for Active; 'I' for Inactive)
REMARK    1  A    between atoms: C_1  and  N_2
REMARK    2  A    between atoms: C_3  and  S_4
REMARK    3  A    between atoms: C_3  and  C_5
REMARK    4  A    between atoms: C_7  and  C_8
REMARK    5  A    between atoms: C_7  and  C_9
REMARK    6  A    between atoms: C_14  and  C_15
REMARK                            x       y       z     vdW  Elec       q    Type
REMARK                         _______ _______ _______ _____ _____    ______ ____
ROOT
ATOM      1  C   UNL     1       4.984   4.975  16.884  0.00  0.00    +0.000 C 
ATOM      2  C   UNL     1       5.888   5.261  17.833  0.00  0.00    +0.000 C 
ATOM      3  C   UNL     1       7.339   5.576  17.581  0.00  0.00    +0.000 C 
ATOM      4  C   UNL     1       8.212   4.412  18.056  0.00  0.00    +0.000 C 
ATOM      5  C   UNL     1       7.718   6.857  18.337  0.00  0.00    +0.000 C 
ATOM      6  O   UNL     1       7.643   5.845  16.208  0.00  0.00    +0.000 OA
ATOM      7  C   UNL     1       6.854   5.243  15.267  0.00  0.00    +0.000 A 
ATOM      8  C   UNL     1       7.462   5.108  14.011  0.00  0.00    +0.000 A 
ATOM      9  C   UNL     1       6.797   4.468  12.975  0.00  0.00    +0.000 A 
ATOM     10  C   UNL     1       5.500   3.997  13.177  0.00  0.00    +0.000 A 
ATOM     11  C   UNL     1       4.876   4.210  14.430  0.00  0.00    +0.000 A 
ATOM     12  C   UNL     1       5.539   4.811  15.513  0.00  0.00    +0.000 A 
ENDROOT
BRANCH  10  13
ATOM     13  C   UNL     1       4.769   3.230  12.100  0.00  0.00    +0.000 C 
ATOM     14  F   UNL     1       3.472   2.948  12.416  0.00  0.00    +0.000 F 
ATOM     15  F   UNL     1       4.723   3.911  10.921  0.00  0.00    +0.000 F 
ATOM     16  F   UNL     1       5.355   2.034  11.819  0.00  0.00    +0.000 F 
ENDBRANCH  10  13
BRANCH   1  19
ATOM     17  C   UNL     1       3.362   2.386  17.319  0.00  0.00    +0.000 C 
ATOM     18  N   UNL     1       2.869   3.728  17.564  0.00  0.00    +0.000 NA
ATOM     19  C   UNL     1       3.573   4.786  17.382  0.00  0.00    +0.000 C 
BRANCH  19  20
ATOM     20  S   UNL     1       2.642   6.230  17.735  0.00  0.00    +0.000 S 
ATOM     21  H   UNL     1       3.355   7.015  16.915  0.00  0.00    +0.000 HD
ENDBRANCH  19  20
ENDBRANCH   1  19
TORSDOF 3
ENDMDL
MODEL 7
REMARK VINA RESULT:      -6.1      3.431      4.981
REMARK  Name = 
REMARK  6 active torsions:
REMARK  status: ('A' for Active; 'I' for Inactive)
REMARK    1  A    between atoms: C_1  and  N_2
REMARK    2  A    between atoms: C_3  and  S_4
REMARK    3  A    between atoms: C_3  and  C_5
REMARK    4  A    between atoms: C_7  and  C_8
REMARK    5  A    between atoms: C_7  and  C_9
REMARK    6  A    between atoms: C_14  and  C_15
REMARK                            x       y       z     vdW  Elec       q    Type
REMARK                         _______ _______ _______ _____ _____    ______ ____
ROOT
ATOM      1  C   UNL     1       4.478   4.876  18.530  0.00  0.00    +0.000 C 
ATOM      2  C   UNL     1       4.817   3.579  18.590  0.00  0.00    +0.000 C 
ATOM      3  C   UNL     1       3.957   2.485  19.166  0.00  0.00    +0.000 C 
ATOM      4  C   UNL     1       4.551   2.003  20.491  0.00  0.00    +0.000 C 
ATOM      5  C   UNL     1       3.886   1.320  18.169  0.00  0.00    +0.000 C 
ATOM      6  O   UNL     1       2.597   2.874  19.389  0.00  0.00    +0.000 OA
ATOM      7  C   UNL     1       2.364   4.197  19.647  0.00  0.00    +0.000 A 
ATOM      8  C   UNL     1       1.170   4.442  20.340  0.00  0.00    +0.000 A 
ATOM      9  C   UNL     1       0.830   5.734  20.716  0.00  0.00    +0.000 A 
ATOM     10  C   UNL     1       1.662   6.795  20.361  0.00  0.00    +0.000 A 
ATOM     11  C   UNL     1       2.825   6.534  19.596  0.00  0.00    +0.000 A 
ATOM     12  C   UNL     1       3.221   5.234  19.241  0.00  0.00    +0.000 A 
ENDROOT
BRANCH  10  13
ATOM     13  C   UNL     1       1.368   8.206  20.812  0.00  0.00    +0.000 C 
ATOM     14  F   UNL     1       2.108   8.601  21.888  0.00  0.00    +0.000 F 
ATOM     15  F   UNL     1       1.616   9.123  19.835  0.00  0.00    +0.000 F 
ATOM     16  F   UNL     1       0.067   8.382  21.168  0.00  0.00    +0.000 F 
ENDBRANCH  10  13
BRANCH   1  19
ATOM     17  C   UNL     1       7.334   5.710  19.353  0.00  0.00    +0.000 C 
ATOM     18  N   UNL     1       6.658   6.136  18.142  0.00  0.00    +0.000 NA
ATOM     19  C   UNL     1       5.472   5.763  17.822  0.00  0.00    +0.000 C 
BRANCH  19  20
ATOM     20  S   UNL     1       4.962   6.508  16.318  0.00  0.00    +0.000 S 
ATOM     21  H   UNL     1       5.518   5.565  15.544  0.00  0.00    +0.000 HD
ENDBRANCH  19  20
ENDBRANCH   1  19
TORSDOF 3
ENDMDL
MODEL 8
REMARK VINA RESULT:      -6.0      3.690      5.063
REMARK  Name = 
REMARK  6 active torsions:
REMARK  status: ('A' for Active; 'I' for Inactive)
REMARK    1  A    between atoms: C_1  and  N_2
REMARK    2  A    between atoms: C_3  and  S_4
REMARK    3  A    between atoms: C_3  and  C_5
REMARK    4  A    between atoms: C_7  and  C_8
REMARK    5  A    between atoms: C_7  and  C_9
REMARK    6  A    between atoms: C_14  and  C_15
REMARK                            x       y       z     vdW  Elec       q    Type
REMARK                         _______ _______ _______ _____ _____    ______ ____
ROOT
ATOM      1  C   UNL     1       3.138   6.863  18.321  0.00  0.00    +0.000 C 
ATOM      2  C   UNL     1       4.090   7.265  17.464  0.00  0.00    +0.000 C 
ATOM      3  C   UNL     1       5.075   6.357  16.776  0.00  0.00    +0.000 C 
ATOM      4  C   UNL     1       6.471   6.565  17.366  0.00  0.00    +0.000 C 
ATOM      5  C   UNL     1       5.089   6.673  15.273  0.00  0.00    +0.000 C 
ATOM      6  O   UNL     1       4.742   4.967  16.866  0.00  0.00    +0.000 OA
ATOM      7  C   UNL     1       4.027   4.569  17.962  0.00  0.00    +0.000 A 
ATOM      8  C   UNL     1       4.164   3.209  18.270  0.00  0.00    +0.000 A 
ATOM      9  C   UNL     1       3.536   2.677  19.389  0.00  0.00    +0.000 A 
ATOM     10  C   UNL     1       2.731   3.495  20.179  0.00  0.00    +0.000 A 
ATOM     11  C   UNL     1       2.545   4.848  19.807  0.00  0.00    +0.000 A 
ATOM     12  C   UNL     1       3.204   5.428  18.710  0.00  0.00    +0.000 A 
ENDROOT
BRANCH  10  13
ATOM     13  C   UNL     1       2.089   2.975  21.444  0.00  0.00    +0.000 C 
ATOM     14  F   UNL     1       2.640   1.813  21.899  0.00  0.00    +0.000 F 
ATOM     15  F   UNL     1       2.190   3.860  22.475  0.00  0.00    +0.000 F 
ATOM     16  F   UNL     1       0.760   2.727  21.294  0.00  0.00    +0.000 F 
ENDBRANCH  10  13
BRANCH   1  19
ATOM     17  C   UNL     1       1.808   7.256  21.078  0.00  0.00    +0.000 C 
ATOM     18  N   UNL     1       1.640   8.139  19.939  0.00  0.00    +0.000 NA
ATOM     19  C   UNL     1       2.216   7.953  18.807  0.00  0.00    +0.000 C 
BRANCH  19  20
ATOM     20  S   UNL     1       1.748   9.188  17.653  0.00  0.00    +0.000 S 
ATOM     21  H   UNL     1       2.921   9.834  17.714  0.00  0.00    +0.000 HD
ENDBRANCH  19  20
ENDBRANCH   1  19
TORSDOF 3
ENDMDL
MODEL 9
REMARK VINA RESULT:      -5.9      3.427      4.815
REMARK  Name = 
REMARK  6 active torsions:
REMARK  status: ('A' for Active; 'I' for Inactive)
REMARK    1  A    between atoms: C_1  and  N_2
REMARK    2  A    between atoms: C_3  and  S_4
REMARK    3  A    between atoms: C_3  and  C_5
REMARK    4  A    between atoms: C_7  and  C_8
REMARK    5  A    between atoms: C_7  and  C_9
REMARK    6  A    between atoms: C_14  and  C_15
REMARK                            x       y       z     vdW  Elec       q    Type
REMARK                         _______ _______ _______ _____ _____    ______ ____
ROOT
ATOM      1  C   UNL     1       4.649   4.828  18.870  0.00  0.00    +0.000 C 
ATOM      2  C   UNL     1       4.956   3.523  18.934  0.00  0.00    +0.000 C 
ATOM      3  C   UNL     1       4.014   2.432  19.371  0.00  0.00    +0.000 C 
ATOM      4  C   UNL     1       4.436   1.903  20.743  0.00  0.00    +0.000 C 
ATOM      5  C   UNL     1       4.044   1.295  18.339  0.00  0.00    +0.000 C 
ATOM      6  O   UNL     1       2.644   2.843  19.440  0.00  0.00    +0.000 OA
ATOM      7  C   UNL     1       2.404   4.163  19.706  0.00  0.00    +0.000 A 
ATOM      8  C   UNL     1       1.140   4.414  20.257  0.00  0.00    +0.000 A 
ATOM      9  C   UNL     1       0.779   5.703  20.626  0.00  0.00    +0.000 A 
ATOM     10  C   UNL     1       1.667   6.755  20.404  0.00  0.00    +0.000 A 
ATOM     11  C   UNL     1       2.908   6.491  19.777  0.00  0.00    +0.000 A 
ATOM     12  C   UNL     1       3.322   5.193  19.436  0.00  0.00    +0.000 A 
ENDROOT
BRANCH  10  13
ATOM     13  C   UNL     1       1.345   8.160  20.857  0.00  0.00    +0.000 C 
ATOM     14  F   UNL     1       1.550   9.105  19.895  0.00  0.00    +0.000 F 
ATOM     15  F   UNL     1       0.043   8.295  21.237  0.00  0.00    +0.000 F 
ATOM     16  F   UNL     1       2.089   8.549  21.928  0.00  0.00    +0.000 F 
ENDBRANCH  10  13
BRANCH   1  19
ATOM     17  C   UNL     1       4.622   6.699  16.416  0.00  0.00    +0.000 C 
ATOM     18  N   UNL     1       5.760   6.492  17.292  0.00  0.00    +0.000 NA
ATOM     19  C   UNL     1       5.736   5.713  18.313  0.00  0.00    +0.000 C 
BRANCH  19  20
ATOM     20  S   UNL     1       7.298   5.674  19.110  0.00  0.00    +0.000 S 
ATOM     21  H   UNL     1       6.781   5.708  20.347  0.00  0.00    +0.000 HD
ENDBRANCH  19  20
ENDBRANCH   1  19
TORSDOF 3
ENDMDL
