MODEL 1
REMARK VINA RESULT:      -7.8      0.000      0.000
REMARK  Name = 
REMARK  6 active torsions:
REMARK  status: ('A' for Active; 'I' for Inactive)
REMARK    1  A    between atoms: C_1  and  O_2
REMARK    2  A    between atoms: O_2  and  C_3
REMARK    3  A    between atoms: C_3  and  C_5
REMARK    4  A    between atoms: C_9  and  C_10
REMARK    5  A    between atoms: C_10  and  O_12
REMARK    6  A    between atoms: O_12  and  C_13
REMARK                            x       y       z     vdW  Elec       q    Type
REMARK                         _______ _______ _______ _____ _____    ______ ____
ROOT
ATOM      1  C   UNL     1       2.090   3.694  18.366  0.00  0.00    +0.000 C 
ATOM      2  C   UNL     1       3.292   3.406  17.835  0.00  0.00    +0.000 C 
ATOM      3  C   UNL     1       4.175   4.429  17.266  0.00  0.00    +0.000 A 
ATOM      4  C   UNL     1       4.943   4.084  16.140  0.00  0.00    +0.000 A 
ATOM      5  C   UNL     1       5.835   5.005  15.566  0.00  0.00    +0.000 A 
ATOM      6  C   UNL     1       5.981   6.276  16.140  0.00  0.00    +0.000 A 
ATOM      7  C   UNL     1       5.235   6.627  17.264  0.00  0.00    +0.000 A 
ATOM      8  C   UNL     1       4.330   5.712  17.807  0.00  0.00    +0.000 A 
ATOM      9  O   UNL     1       3.660   6.168  18.975  0.00  0.00    +0.000 OA
ATOM     10  C   UNL     1       2.346   5.898  19.365  0.00  0.00    +0.000 C 
ATOM     11  O   UNL     1       1.895   6.331  20.423  0.00  0.00    +0.000 OA
ATOM     12  C   UNL     1       1.535   5.083  18.395  0.00  0.00    +0.000 C 
ENDROOT
BRANCH   1  13
ATOM     13  C   UNL     1       1.312   2.555  18.915  0.00  0.00    +0.000 C 
ATOM     14  O   UNL     1       0.291   2.116  18.408  0.00  0.00    +0.000 OA
BRANCH  13  16
ATOM     15  C   UNL     1       1.420   2.695  21.244  0.00  0.00    +0.000 C 
ATOM     16  O   UNL     1       1.897   2.087  20.043  0.00  0.00    +0.000 OA
ENDBRANCH  13  16
ENDBRANCH   1  13
BRANCH   5  17
ATOM     17  C   UNL     1       6.645   4.691  14.357  0.00  0.00    +0.000 C 
ATOM     18  O   UNL     1       7.673   5.281  14.067  0.00  0.00    +0.000 OA
BRANCH  17  19
ATOM     19  O   UNL     1       6.076   3.690  13.640  0.00  0.00    +0.000 OA
ATOM     20  C   UNL     1       6.566   3.588  12.302  0.00  0.00    +0.000 C 
ENDBRANCH  17  19
ENDBRANCH   5  17
TORSDOF 4
ENDMDL
MODEL 2
REMARK VINA RESULT:      -7.7      1.356      6.416
REMARK  Name = 
REMARK  6 active torsions:
REMARK  status: ('A' for Active; 'I' for Inactive)
REMARK    1  A    between atoms: C_1  and  O_2
REMARK    2  A    between atoms: O_2  and  C_3
REMARK    3  A    between atoms: C_3  and  C_5
REMARK    4  A    between atoms: C_9  and  C_10
REMARK    5  A    between atoms: C_10  and  O_12
REMARK    6  A    between atoms: O_12  and  C_13
REMARK                            x       y       z     vdW  Elec       q    Type
REMARK                         _______ _______ _______ _____ _____    ______ ____
ROOT
ATOM      1  C   UNL     1       6.122   4.844  15.774  0.00  0.00    +0.000 C 
ATOM      2  C   UNL     1       4.805   4.612  15.912  0.00  0.00    +0.000 C 
ATOM      3  C   UNL     1       4.075   4.884  17.154  0.00  0.00    +0.000 A 
ATOM      4  C   UNL     1       3.039   4.006  17.515  0.00  0.00    +0.000 A 
ATOM      5  C   UNL     1       2.276   4.227  18.674  0.00  0.00    +0.000 A 
ATOM      6  C   UNL     1       2.536   5.354  19.467  0.00  0.00    +0.000 A 
ATOM      7  C   UNL     1       3.552   6.240  19.114  0.00  0.00    +0.000 A 
ATOM      8  C   UNL     1       4.322   5.992  17.975  0.00  0.00    +0.000 A 
ATOM      9  O   UNL     1       5.299   6.986  17.695  0.00  0.00    +0.000 OA
ATOM     10  C   UNL     1       6.571   6.803  17.148  0.00  0.00    +0.000 C 
ATOM     11  O   UNL     1       7.311   7.757  16.925  0.00  0.00    +0.000 OA
ATOM     12  C   UNL     1       6.967   5.375  16.889  0.00  0.00    +0.000 C 
ENDROOT
BRANCH   1  13
ATOM     13  C   UNL     1       6.722   4.531  14.453  0.00  0.00    +0.000 C 
ATOM     14  O   UNL     1       6.343   3.624  13.727  0.00  0.00    +0.000 OA
BRANCH  13  16
ATOM     15  C   UNL     1       8.092   5.450  12.800  0.00  0.00    +0.000 C 
ATOM     16  O   UNL     1       7.733   5.389  14.181  0.00  0.00    +0.000 OA
ENDBRANCH  13  16
ENDBRANCH   1  13
BRANCH   5  17
ATOM     17  C   UNL     1       1.190   3.307  19.108  0.00  0.00    +0.000 C 
ATOM     18  O   UNL     1       0.706   2.451  18.385  0.00  0.00    +0.000 OA
BRANCH  17  19
ATOM     19  O   UNL     1       0.820   3.566  20.387  0.00  0.00    +0.000 OA
ATOM     20  C   UNL     1       1.392   2.674  21.345  0.00  0.00    +0.000 C 
ENDBRANCH  17  19
ENDBRANCH   5  17
TORSDOF 4
ENDMDL
MODEL 3
REMARK VINA RESULT:      -7.7      1.302      6.398
REMARK  Name = 
REMARK  6 active torsions:
REMARK  status: ('A' for Active; 'I' for Inactive)
REMARK    1  A    between atoms: C_1  and  O_2
REMARK    2  A    between atoms: O_2  and  C_3
REMARK    3  A    between atoms: C_3  and  C_5
REMARK    4  A    between atoms: C_9  and  C_10
REMARK    5  A    between atoms: C_10  and  O_12
REMARK    6  A    between atoms: O_12  and  C_13
REMARK                            x       y       z     vdW  Elec       q    Type
REMARK                         _______ _______ _______ _____ _____    ______ ____
ROOT
ATOM      1  C   UNL     1       6.152   4.727  15.504  0.00  0.00    +0.000 C 
ATOM      2  C   UNL     1       4.832   4.652  15.751  0.00  0.00    +0.000 C 
ATOM      3  C   UNL     1       4.265   4.791  17.095  0.00  0.00    +0.000 A 
ATOM      4  C   UNL     1       3.145   4.009  17.423  0.00  0.00    +0.000 A 
ATOM      5  C   UNL     1       2.530   4.119  18.681  0.00  0.00    +0.000 A 
ATOM      6  C   UNL     1       3.026   5.041  19.614  0.00  0.00    +0.000 A 
ATOM      7  C   UNL     1       4.129   5.833  19.299  0.00  0.00    +0.000 A 
ATOM      8  C   UNL     1       4.748   5.693  18.054  0.00  0.00    +0.000 A 
ATOM      9  O   UNL     1       5.835   6.581  17.832  0.00  0.00    +0.000 OA
ATOM     10  C   UNL     1       7.011   6.331  17.121  0.00  0.00    +0.000 C 
ATOM     11  O   UNL     1       7.864   7.203  16.975  0.00  0.00    +0.000 OA
ATOM     12  C   UNL     1       7.163   4.932  16.589  0.00  0.00    +0.000 C 
ENDROOT
BRANCH   1  13
ATOM     13  C   UNL     1       6.578   4.578  14.090  0.00  0.00    +0.000 C 
ATOM     14  O   UNL     1       7.519   5.178  13.593  0.00  0.00    +0.000 OA
BRANCH  13  16
ATOM     15  C   UNL     1       6.260   3.297  12.164  0.00  0.00    +0.000 C 
ATOM     16  O   UNL     1       5.780   3.691  13.450  0.00  0.00    +0.000 OA
ENDBRANCH  13  16
ENDBRANCH   1  13
BRANCH   5  17
ATOM     17  C   UNL     1       1.360   3.289  19.079  0.00  0.00    +0.000 C 
ATOM     18  O   UNL     1       0.862   2.441  18.356  0.00  0.00    +0.000 OA
BRANCH  17  19
ATOM     19  O   UNL     1       0.936   3.617  20.325  0.00  0.00    +0.000 OA
ATOM     20  C   UNL     1       1.327   2.684  21.332  0.00  0.00    +0.000 C 
ENDBRANCH  17  19
ENDBRANCH   5  17
TORSDOF 4
ENDMDL
MODEL 4
REMARK VINA RESULT:      -7.2      2.047      6.758
REMARK  Name = 
REMARK  6 active torsions:
REMARK  status: ('A' for Active; 'I' for Inactive)
REMARK    1  A    between atoms: C_1  and  O_2
REMARK    2  A    between atoms: O_2  and  C_3
REMARK    3  A    between atoms: C_3  and  C_5
REMARK    4  A    between atoms: C_9  and  C_10
REMARK    5  A    between atoms: C_10  and  O_12
REMARK    6  A    between atoms: O_12  and  C_13
REMARK                            x       y       z     vdW  Elec       q    Type
REMARK                         _______ _______ _______ _____ _____    ______ ____
ROOT
ATOM      1  C   UNL     1       6.249   6.191  17.594  0.00  0.00    +0.000 C 
ATOM      2  C   UNL     1       5.601   5.499  18.549  0.00  0.00    +0.000 C 
ATOM      3  C   UNL     1       4.337   4.797  18.302  0.00  0.00    +0.000 A 
ATOM      4  C   UNL     1       3.384   4.775  19.335  0.00  0.00    +0.000 A 
ATOM      5  C   UNL     1       2.167   4.091  19.178  0.00  0.00    +0.000 A 
ATOM      6  C   UNL     1       1.912   3.400  17.985  0.00  0.00    +0.000 A 
ATOM      7  C   UNL     1       2.853   3.403  16.958  0.00  0.00    +0.000 A 
ATOM      8  C   UNL     1       4.047   4.111  17.115  0.00  0.00    +0.000 A 
ATOM      9  O   UNL     1       4.945   4.006  16.019  0.00  0.00    +0.000 OA
ATOM     10  C   UNL     1       5.808   4.987  15.525  0.00  0.00    +0.000 C 
ATOM     11  O   UNL     1       6.562   4.756  14.583  0.00  0.00    +0.000 OA
ATOM     12  C   UNL     1       5.722   6.328  16.201  0.00  0.00    +0.000 C 
ENDROOT
BRANCH   1  13
ATOM     13  C   UNL     1       7.525   6.839  17.989  0.00  0.00    +0.000 C 
ATOM     14  O   UNL     1       8.199   6.496  18.948  0.00  0.00    +0.000 OA
BRANCH  13  16
ATOM     15  C   UNL     1       8.024   9.111  17.777  0.00  0.00    +0.000 C 
ATOM     16  O   UNL     1       7.820   7.850  17.138  0.00  0.00    +0.000 OA
ENDBRANCH  13  16
ENDBRANCH   1  13
BRANCH   5  17
ATOM     17  C   UNL     1       1.118   4.066  20.234  0.00  0.00    +0.000 C 
ATOM     18  O   UNL     1       0.516   5.060  20.605  0.00  0.00    +0.000 OA
BRANCH  17  19
ATOM     19  O   UNL     1       0.947   2.810  20.717  0.00  0.00    +0.000 OA
ATOM     20  C   UNL     1       1.776   2.505  21.839  0.00  0.00    +0.000 C 
ENDBRANCH  17  19
ENDBRANCH   5  17
TORSDOF 4
ENDMDL
MODEL 5
REMARK VINA RESULT:      -7.2      2.643      6.061
REMARK  Name = 
REMARK  6 active torsions:
REMARK  status: ('A' for Active; 'I' for Inactive)
REMARK    1  A    between atoms: C_1  and  O_2
REMARK    2  A    between atoms: O_2  and  C_3
REMARK    3  A    between atoms: C_3  and  C_5
REMARK    4  A    between atoms: C_9  and  C_10
REMARK    5  A    between atoms: C_10  and  O_12
REMARK    6  A    between atoms: O_12  and  C_13
REMARK                            x       y       z     vdW  Elec       q    Type
REMARK                         _______ _______ _______ _____ _____    ______ ____
ROOT
ATOM      1  C   UNL     1       5.277   4.676  17.087  0.00  0.00    +0.000 C 
ATOM      2  C   UNL     1       5.053   5.989  17.280  0.00  0.00    +0.000 C 
ATOM      3  C   UNL     1       3.918   6.495  18.059  0.00  0.00    +0.000 A 
ATOM      4  C   UNL     1       3.307   7.687  17.634  0.00  0.00    +0.000 A 
ATOM      5  C   UNL     1       2.239   8.247  18.353  0.00  0.00    +0.000 A 
ATOM      6  C   UNL     1       1.793   7.621  19.526  0.00  0.00    +0.000 A 
ATOM      7  C   UNL     1       2.397   6.445  19.967  0.00  0.00    +0.000 A 
ATOM      8  C   UNL     1       3.440   5.884  19.226  0.00  0.00    +0.000 A 
ATOM      9  O   UNL     1       4.004   4.710  19.795  0.00  0.00    +0.000 OA
ATOM     10  C   UNL     1       4.507   3.592  19.126  0.00  0.00    +0.000 C 
ATOM     11  O   UNL     1       5.000   2.651  19.741  0.00  0.00    +0.000 OA
ATOM     12  C   UNL     1       4.369   3.617  17.628  0.00  0.00    +0.000 C 
ENDROOT
BRANCH   1  13
ATOM     13  C   UNL     1       6.473   4.313  16.286  0.00  0.00    +0.000 C 
ATOM     14  O   UNL     1       7.601   4.721  16.519  0.00  0.00    +0.000 OA
BRANCH  13  16
ATOM     15  C   UNL     1       5.946   4.124  14.019  0.00  0.00    +0.000 C 
ATOM     16  O   UNL     1       6.128   3.477  15.279  0.00  0.00    +0.000 OA
ENDBRANCH  13  16
ENDBRANCH   1  13
BRANCH   5  17
ATOM     17  C   UNL     1       1.544   9.491  17.923  0.00  0.00    +0.000 C 
ATOM     18  O   UNL     1       0.330   9.597  17.868  0.00  0.00    +0.000 OA
BRANCH  17  19
ATOM     19  O   UNL     1       2.439  10.457  17.596  0.00  0.00    +0.000 OA
ATOM     20  C   UNL     1       2.206  11.705  18.250  0.00  0.00    +0.000 C 
ENDBRANCH  17  19
ENDBRANCH   5  17
TORSDOF 4
ENDMDL
MODEL 6
REMARK VINA RESULT:      -7.1      1.004      1.362
REMARK  Name = 
REMARK  6 active torsions:
REMARK  status: ('A' for Active; 'I' for Inactive)
REMARK    1  A    between atoms: C_1  and  O_2
REMARK    2  A    between atoms: O_2  and  C_3
REMARK    3  A    between atoms: C_3  and  C_5
REMARK    4  A    between atoms: C_9  and  C_10
REMARK    5  A    between atoms: C_10  and  O_12
REMARK    6  A    between atoms: O_12  and  C_13
REMARK                            x       y       z     vdW  Elec       q    Type
REMARK                         _______ _______ _______ _____ _____    ______ ____
ROOT
ATOM      1  C   UNL     1       3.301   3.628  19.342  0.00  0.00    +0.000 C 
ATOM      2  C   UNL     1       4.469   3.704  18.678  0.00  0.00    +0.000 C 
ATOM      3  C   UNL     1       4.716   4.682  17.614  0.00  0.00    +0.000 A 
ATOM      4  C   UNL     1       5.509   4.283  16.524  0.00  0.00    +0.000 A 
ATOM      5  C   UNL     1       5.815   5.180  15.487  0.00  0.00    +0.000 A 
ATOM      6  C   UNL     1       5.343   6.499  15.554  0.00  0.00    +0.000 A 
ATOM      7  C   UNL     1       4.566   6.912  16.635  0.00  0.00    +0.000 A 
ATOM      8  C   UNL     1       4.246   6.002  17.644  0.00  0.00    +0.000 A 
ATOM      9  O   UNL     1       3.485   6.549  18.713  0.00  0.00    +0.000 OA
ATOM     10  C   UNL     1       2.486   5.919  19.460  0.00  0.00    +0.000 C 
ATOM     11  O   UNL     1       1.924   6.499  20.385  0.00  0.00    +0.000 OA
ATOM     12  C   UNL     1       2.140   4.520  19.032  0.00  0.00    +0.000 C 
ENDROOT
BRANCH   1  13
ATOM     13  C   UNL     1       3.201   2.596  20.403  0.00  0.00    +0.000 C 
ATOM     14  O   UNL     1       4.158   2.153  21.019  0.00  0.00    +0.000 OA
BRANCH  13  16
ATOM     15  C   UNL     1       1.345   2.651  21.819  0.00  0.00    +0.000 C 
ATOM     16  O   UNL     1       1.910   2.226  20.579  0.00  0.00    +0.000 OA
ENDBRANCH  13  16
ENDBRANCH   1  13
BRANCH   5  17
ATOM     17  C   UNL     1       6.626   4.792  14.302  0.00  0.00    +0.000 C 
ATOM     18  O   UNL     1       7.716   5.278  14.045  0.00  0.00    +0.000 OA
BRANCH  17  19
ATOM     19  O   UNL     1       5.985   3.852  13.564  0.00  0.00    +0.000 OA
ATOM     20  C   UNL     1       6.597   3.594  12.299  0.00  0.00    +0.000 C 
ENDBRANCH  17  19
ENDBRANCH   5  17
TORSDOF 4
ENDMDL
MODEL 7
REMARK VINA RESULT:      -7.0      2.277      6.749
REMARK  Name = 
REMARK  6 active torsions:
REMARK  status: ('A' for Active; 'I' for Inactive)
REMARK    1  A    between atoms: C_1  and  O_2
REMARK    2  A    between atoms: O_2  and  C_3
REMARK    3  A    between atoms: C_3  and  C_5
REMARK    4  A    between atoms: C_9  and  C_10
REMARK    5  A    between atoms: C_10  and  O_12
REMARK    6  A    between atoms: O_12  and  C_13
REMARK                            x       y       z     vdW  Elec       q    Type
REMARK                         _______ _______ _______ _____ _____    ______ ____
ROOT
ATOM      1  C   UNL     1       6.467   6.244  17.792  0.00  0.00    +0.000 C 
ATOM      2  C   UNL     1       6.162   5.305  18.706  0.00  0.00    +0.000 C 
ATOM      3  C   UNL     1       5.017   4.401  18.566  0.00  0.00    +0.000 A 
ATOM      4  C   UNL     1       4.320   4.036  19.731  0.00  0.00    +0.000 A 
ATOM      5  C   UNL     1       3.234   3.146  19.673  0.00  0.00    +0.000 A 
ATOM      6  C   UNL     1       2.858   2.594  18.440  0.00  0.00    +0.000 A 
ATOM      7  C   UNL     1       3.548   2.937  17.279  0.00  0.00    +0.000 A 
ATOM      8  C   UNL     1       4.607   3.846  17.346  0.00  0.00    +0.000 A 
ATOM      9  O   UNL     1       5.260   4.085  16.107  0.00  0.00    +0.000 OA
ATOM     10  C   UNL     1       5.817   5.282  15.652  0.00  0.00    +0.000 C 
ATOM     11  O   UNL     1       6.385   5.347  14.565  0.00  0.00    +0.000 OA
ATOM     12  C   UNL     1       5.643   6.467  16.563  0.00  0.00    +0.000 C 
ENDROOT
BRANCH   1  13
ATOM     13  C   UNL     1       7.664   7.078  18.063  0.00  0.00    +0.000 C 
ATOM     14  O   UNL     1       8.466   6.853  18.956  0.00  0.00    +0.000 OA
BRANCH  13  16
ATOM     15  C   UNL     1       8.093   9.355  17.773  0.00  0.00    +0.000 C 
ATOM     16  O   UNL     1       7.729   8.106  17.184  0.00  0.00    +0.000 OA
ENDBRANCH  13  16
ENDBRANCH   1  13
BRANCH   5  17
ATOM     17  C   UNL     1       2.451   2.756  20.877  0.00  0.00    +0.000 C 
ATOM     18  O   UNL     1       2.958   2.305  21.891  0.00  0.00    +0.000 OA
BRANCH  17  19
ATOM     19  O   UNL     1       1.125   2.959  20.678  0.00  0.00    +0.000 OA
ATOM     20  C   UNL     1       0.777   4.327  20.460  0.00  0.00    +0.000 C 
ENDBRANCH  17  19
ENDBRANCH   5  17
TORSDOF 4
ENDMDL
MODEL 8
REMARK VINA RESULT:      -7.0      2.141      3.998
REMARK  Name = 
REMARK  6 active torsions:
REMARK  status: ('A' for Active; 'I' for Inactive)
REMARK    1  A    between atoms: C_1  and  O_2
REMARK    2  A    between atoms: O_2  and  C_3
REMARK    3  A    between atoms: C_3  and  C_5
REMARK    4  A    between atoms: C_9  and  C_10
REMARK    5  A    between atoms: C_10  and  O_12
REMARK    6  A    between atoms: O_12  and  C_13
REMARK                            x       y       z     vdW  Elec       q    Type
REMARK                         _______ _______ _______ _____ _____    ______ ____
ROOT
ATOM      1  C   UNL     1       5.020   5.088  17.420  0.00  0.00    +0.000 C 
ATOM      2  C   UNL     1       5.143   4.083  16.535  0.00  0.00    +0.000 C 
ATOM      3  C   UNL     1       5.786   4.249  15.227  0.00  0.00    +0.000 A 
ATOM      4  C   UNL     1       5.260   3.533  14.139  0.00  0.00    +0.000 A 
ATOM      5  C   UNL     1       5.849   3.618  12.866  0.00  0.00    +0.000 A 
ATOM      6  C   UNL     1       6.994   4.408  12.687  0.00  0.00    +0.000 A 
ATOM      7  C   UNL     1       7.534   5.114  13.760  0.00  0.00    +0.000 A 
ATOM      8  C   UNL     1       6.921   5.043  15.013  0.00  0.00    +0.000 A 
ATOM      9  O   UNL     1       7.585   5.771  16.038  0.00  0.00    +0.000 OA
ATOM     10  C   UNL     1       7.010   6.457  17.109  0.00  0.00    +0.000 C 
ATOM     11  O   UNL     1       7.704   7.022  17.950  0.00  0.00    +0.000 OA
ATOM     12  C   UNL     1       5.505   6.475  17.135  0.00  0.00    +0.000 C 
ENDROOT
BRANCH   1  13
ATOM     13  C   UNL     1       4.356   4.768  18.708  0.00  0.00    +0.000 C 
ATOM     14  O   UNL     1       4.269   5.546  19.645  0.00  0.00    +0.000 OA
BRANCH  13  16
ATOM     15  C   UNL     1       4.112   2.764  19.882  0.00  0.00    +0.000 C 
ATOM     16  O   UNL     1       3.871   3.504  18.684  0.00  0.00    +0.000 OA
ENDBRANCH  13  16
ENDBRANCH   1  13
BRANCH   5  17
ATOM     17  C   UNL     1       5.308   2.900  11.680  0.00  0.00    +0.000 C 
ATOM     18  O   UNL     1       5.630   1.762  11.380  0.00  0.00    +0.000 OA
BRANCH  17  19
ATOM     19  O   UNL     1       4.437   3.684  10.996  0.00  0.00    +0.000 OA
ATOM     20  C   UNL     1       3.251   3.004  10.582  0.00  0.00    +0.000 C 
ENDBRANCH  17  19
ENDBRANCH   5  17
TORSDOF 4
ENDMDL
MODEL 9
REMARK VINA RESULT:      -7.0      1.878      3.994
REMARK  Name = 
REMARK  6 active torsions:
REMARK  status: ('A' for Active; 'I' for Inactive)
REMARK    1  A    between atoms: C_1  and  O_2
REMARK    2  A    between atoms: O_2  and  C_3
REMARK    3  A    between atoms: C_3  and  C_5
REMARK    4  A    between atoms: C_9  and  C_10
REMARK    5  A    between atoms: C_10  and  O_12
REMARK    6  A    between atoms: O_12  and  C_13
REMARK                            x       y       z     vdW  Elec       q    Type
REMARK                         _______ _______ _______ _____ _____    ______ ____
ROOT
ATOM      1  C   UNL     1       4.769   5.304  17.185  0.00  0.00    +0.000 C 
ATOM      2  C   UNL     1       4.951   4.238  16.384  0.00  0.00    +0.000 C 
ATOM      3  C   UNL     1       5.686   4.313  15.117  0.00  0.00    +0.000 A 
ATOM      4  C   UNL     1       5.236   3.520  14.047  0.00  0.00    +0.000 A 
ATOM      5  C   UNL     1       5.914   3.517  12.817  0.00  0.00    +0.000 A 
ATOM      6  C   UNL     1       7.070   4.296  12.663  0.00  0.00    +0.000 A 
ATOM      7  C   UNL     1       7.535   5.077  13.720  0.00  0.00    +0.000 A 
ATOM      8  C   UNL     1       6.835   5.093  14.928  0.00  0.00    +0.000 A 
ATOM      9  O   UNL     1       7.427   5.893  15.943  0.00  0.00    +0.000 OA
ATOM     10  C   UNL     1       6.778   6.651  16.920  0.00  0.00    +0.000 C 
ATOM     11  O   UNL     1       7.413   7.277  17.765  0.00  0.00    +0.000 OA
ATOM     12  C   UNL     1       5.276   6.667  16.838  0.00  0.00    +0.000 C 
ENDROOT
BRANCH   1  13
ATOM     13  C   UNL     1       4.014   5.073  18.442  0.00  0.00    +0.000 C 
ATOM     14  O   UNL     1       4.139   5.753  19.449  0.00  0.00    +0.000 OA
BRANCH  13  16
ATOM     15  C   UNL     1       1.797   4.359  18.283  0.00  0.00    +0.000 C 
ATOM     16  O   UNL     1       3.182   4.014  18.304  0.00  0.00    +0.000 OA
ENDBRANCH  13  16
ENDBRANCH   1  13
BRANCH   5  17
ATOM     17  C   UNL     1       5.456   2.716  11.649  0.00  0.00    +0.000 C 
ATOM     18  O   UNL     1       4.324   2.777  11.196  0.00  0.00    +0.000 OA
BRANCH  17  19
ATOM     19  O   UNL     1       6.453   1.921  11.187  0.00  0.00    +0.000 OA
ATOM     20  C   UNL     1       6.126   0.530  11.180  0.00  0.00    +0.000 C 
ENDBRANCH  17  19
ENDBRANCH   5  17
TORSDOF 4
ENDMDL
