MODEL 1
REMARK VINA RESULT:      -5.6      0.000      0.000
REMARK  Name = 
REMARK  7 active torsions:
REMARK  status: ('A' for Active; 'I' for Inactive)
REMARK    1  A    between atoms: N_1  and  C_2
REMARK    2  A    between atoms: C_2  and  C_3
REMARK    3  A    between atoms: C_3  and  C_4
REMARK    4  A    between atoms: C_4  and  N_5
REMARK    5  A    between atoms: N_5  and  C_6
REMARK    6  A    between atoms: C_11  and  C_12
REMARK    7  A    between atoms: C_12  and  O_14
REMARK                            x       y       z     vdW  Elec       q    Type
REMARK                         _______ _______ _______ _____ _____    ______ ____
ROOT
ATOM      1  C   UNL     1       3.998   4.188  18.654  0.00  0.00    +0.000 A 
ATOM      2  C   UNL     1       3.044   5.061  18.117  0.00  0.00    +0.000 A 
ATOM      3  N   UNL     1       1.742   4.763  17.887  0.00  0.00    +0.000 NA
ATOM      4  C   UNL     1       1.352   3.511  18.168  0.00  0.00    +0.000 A 
ATOM      5  C   UNL     1       2.204   2.533  18.640  0.00  0.00    +0.000 A 
ATOM      6  C   UNL     1       3.547   2.872  18.869  0.00  0.00    +0.000 A 
ENDROOT
BRANCH   1   7
ATOM      7  N   UNL     1       5.355   4.560  18.853  0.00  0.00    +0.000 N 
ATOM      8  H   UNL     1       5.393   5.465  19.335  0.00  0.00    +0.000 HD
BRANCH   7   9
ATOM      9  C   UNL     1       6.140   4.707  17.613  0.00  0.00    +0.000 C 
BRANCH   9  10
ATOM     10  C   UNL     1       7.613   4.864  17.976  0.00  0.00    +0.000 C 
BRANCH  10  11
ATOM     11  C   UNL     1       7.837   5.985  18.984  0.00  0.00    +0.000 C 
BRANCH  11  12
ATOM     12  N   UNL     1       8.017   5.447  20.327  0.00  0.00    +0.000 NA
ATOM     13  H   UNL     1       8.420   4.509  20.268  0.00  0.00    +0.000 HD
ATOM     14  H   UNL     1       7.111   5.335  20.782  0.00  0.00    +0.000 HD
ENDBRANCH  11  12
ENDBRANCH  10  11
ENDBRANCH   9  10
ENDBRANCH   7   9
ENDBRANCH   1   7
BRANCH   6  15
ATOM     15  C   UNL     1       4.399   1.784  19.425  0.00  0.00    +0.000 C 
ATOM     16  O   UNL     1       5.040   1.899  20.452  0.00  0.00    +0.000 OA
BRANCH  15  17
ATOM     17  O   UNL     1       4.387   0.649  18.690  0.00  0.00    +0.000 OA
ATOM     18  H   UNL     1       5.248   0.175  18.705  0.00  0.00    +0.000 HD
ENDBRANCH  15  17
ENDBRANCH   6  15
TORSDOF 7
ENDMDL
MODEL 2
REMARK VINA RESULT:      -5.5      3.004      5.342
REMARK  Name = 
REMARK  7 active torsions:
REMARK  status: ('A' for Active; 'I' for Inactive)
REMARK    1  A    between atoms: N_1  and  C_2
REMARK    2  A    between atoms: C_2  and  C_3
REMARK    3  A    between atoms: C_3  and  C_4
REMARK    4  A    between atoms: C_4  and  N_5
REMARK    5  A    between atoms: N_5  and  C_6
REMARK    6  A    between atoms: C_11  and  C_12
REMARK    7  A    between atoms: C_12  and  O_14
REMARK                            x       y       z     vdW  Elec       q    Type
REMARK                         _______ _______ _______ _____ _____    ______ ____
ROOT
ATOM      1  C   UNL     1       5.746   4.481  17.684  0.00  0.00    +0.000 A 
ATOM      2  C   UNL     1       5.968   4.467  19.066  0.00  0.00    +0.000 A 
ATOM      3  N   UNL     1       6.842   5.259  19.733  0.00  0.00    +0.000 NA
ATOM      4  C   UNL     1       7.579   6.102  18.993  0.00  0.00    +0.000 A 
ATOM      5  C   UNL     1       7.505   6.172  17.617  0.00  0.00    +0.000 A 
ATOM      6  C   UNL     1       6.590   5.340  16.953  0.00  0.00    +0.000 A 
ENDROOT
BRANCH   1   7
ATOM      7  N   UNL     1       4.825   3.610  17.043  0.00  0.00    +0.000 N 
ATOM      8  H   UNL     1       4.948   3.671  16.027  0.00  0.00    +0.000 HD
BRANCH   7   9
ATOM      9  C   UNL     1       3.406   3.908  17.316  0.00  0.00    +0.000 C 
BRANCH   9  10
ATOM     10  C   UNL     1       2.658   2.597  17.536  0.00  0.00    +0.000 C 
BRANCH  10  11
ATOM     11  C   UNL     1       3.159   1.853  18.769  0.00  0.00    +0.000 C 
BRANCH  11  12
ATOM     12  N   UNL     1       4.201   0.899  18.411  0.00  0.00    +0.000 NA
ATOM     13  H   UNL     1       4.035   0.014  18.894  0.00  0.00    +0.000 HD
ATOM     14  H   UNL     1       5.107   1.233  18.741  0.00  0.00    +0.000 HD
ENDBRANCH  11  12
ENDBRANCH  10  11
ENDBRANCH   9  10
ENDBRANCH   7   9
ENDBRANCH   1   7
BRANCH   6  15
ATOM     15  C   UNL     1       6.527   5.502  15.474  0.00  0.00    +0.000 C 
ATOM     16  O   UNL     1       5.507   5.792  14.878  0.00  0.00    +0.000 OA
BRANCH  15  17
ATOM     17  O   UNL     1       7.712   5.310  14.851  0.00  0.00    +0.000 OA
ATOM     18  H   UNL     1       7.728   4.494  14.303  0.00  0.00    +0.000 HD
ENDBRANCH  15  17
ENDBRANCH   6  15
TORSDOF 7
ENDMDL
MODEL 3
REMARK VINA RESULT:      -5.5      1.540      1.952
REMARK  Name = 
REMARK  7 active torsions:
REMARK  status: ('A' for Active; 'I' for Inactive)
REMARK    1  A    between atoms: N_1  and  C_2
REMARK    2  A    between atoms: C_2  and  C_3
REMARK    3  A    between atoms: C_3  and  C_4
REMARK    4  A    between atoms: C_4  and  N_5
REMARK    5  A    between atoms: N_5  and  C_6
REMARK    6  A    between atoms: C_11  and  C_12
REMARK    7  A    between atoms: C_12  and  O_14
REMARK                            x       y       z     vdW  Elec       q    Type
REMARK                         _______ _______ _______ _____ _____    ______ ____
ROOT
ATOM      1  C   UNL     1       4.095   3.480  18.535  0.00  0.00    +0.000 A 
ATOM      2  C   UNL     1       3.347   3.874  17.419  0.00  0.00    +0.000 A 
ATOM      3  N   UNL     1       2.014   3.689  17.258  0.00  0.00    +0.000 NA
ATOM      4  C   UNL     1       1.371   3.041  18.242  0.00  0.00    +0.000 A 
ATOM      5  C   UNL     1       2.000   2.543  19.365  0.00  0.00    +0.000 A 
ATOM      6  C   UNL     1       3.381   2.750  19.504  0.00  0.00    +0.000 A 
ENDROOT
BRANCH   1   7
ATOM      7  N   UNL     1       5.497   3.688  18.634  0.00  0.00    +0.000 N 
ATOM      8  H   UNL     1       5.897   3.009  19.290  0.00  0.00    +0.000 HD
BRANCH   7   9
ATOM      9  C   UNL     1       5.886   5.026  19.119  0.00  0.00    +0.000 C 
BRANCH   9  10
ATOM     10  C   UNL     1       6.931   5.610  18.174  0.00  0.00    +0.000 C 
BRANCH  10  11
ATOM     11  C   UNL     1       7.234   4.675  17.008  0.00  0.00    +0.000 C 
BRANCH  11  12
ATOM     12  N   UNL     1       7.411   5.429  15.773  0.00  0.00    +0.000 NA
ATOM     13  H   UNL     1       6.589   5.306  15.176  0.00  0.00    +0.000 HD
ATOM     14  H   UNL     1       8.199   5.053  15.245  0.00  0.00    +0.000 HD
ENDBRANCH  11  12
ENDBRANCH  10  11
ENDBRANCH   9  10
ENDBRANCH   7   9
ENDBRANCH   1   7
BRANCH   6  15
ATOM     15  C   UNL     1       3.986   2.230  20.763  0.00  0.00    +0.000 C 
ATOM     16  O   UNL     1       5.108   1.764  20.820  0.00  0.00    +0.000 OA
BRANCH  15  17
ATOM     17  O   UNL     1       3.178   2.333  21.842  0.00  0.00    +0.000 OA
ATOM     18  H   UNL     1       2.272   1.989  21.677  0.00  0.00    +0.000 HD
ENDBRANCH  15  17
ENDBRANCH   6  15
TORSDOF 7
ENDMDL
MODEL 4
REMARK VINA RESULT:      -5.5      1.383      1.739
REMARK  Name = 
REMARK  7 active torsions:
REMARK  status: ('A' for Active; 'I' for Inactive)
REMARK    1  A    between atoms: N_1  and  C_2
REMARK    2  A    between atoms: C_2  and  C_3
REMARK    3  A    between atoms: C_3  and  C_4
REMARK    4  A    between atoms: C_4  and  N_5
REMARK    5  A    between atoms: N_5  and  C_6
REMARK    6  A    between atoms: C_11  and  C_12
REMARK    7  A    between atoms: C_12  and  O_14
REMARK                            x       y       z     vdW  Elec       q    Type
REMARK                         _______ _______ _______ _____ _____    ______ ____
ROOT
ATOM      1  C   UNL     1       4.425   4.389  18.890  0.00  0.00    +0.000 A 
ATOM      2  C   UNL     1       3.681   5.455  18.370  0.00  0.00    +0.000 A 
ATOM      3  N   UNL     1       2.390   5.391  17.961  0.00  0.00    +0.000 NA
ATOM      4  C   UNL     1       1.794   4.191  18.031  0.00  0.00    +0.000 A 
ATOM      5  C   UNL     1       2.432   3.046  18.462  0.00  0.00    +0.000 A 
ATOM      6  C   UNL     1       3.769   3.143  18.880  0.00  0.00    +0.000 A 
ENDROOT
BRANCH   1   7
ATOM      7  N   UNL     1       5.783   4.520  19.285  0.00  0.00    +0.000 N 
ATOM      8  H   UNL     1       5.826   4.877  20.246  0.00  0.00    +0.000 HD
BRANCH   7   9
ATOM      9  C   UNL     1       6.578   5.445  18.455  0.00  0.00    +0.000 C 
BRANCH   9  10
ATOM     10  C   UNL     1       7.492   4.631  17.545  0.00  0.00    +0.000 C 
BRANCH  10  11
ATOM     11  C   UNL     1       6.932   4.509  16.132  0.00  0.00    +0.000 C 
BRANCH  11  12
ATOM     12  N   UNL     1       7.583   5.454  15.233  0.00  0.00    +0.000 NA
ATOM     13  H   UNL     1       7.632   6.373  15.678  0.00  0.00    +0.000 HD
ATOM     14  H   UNL     1       7.019   5.580  14.392  0.00  0.00    +0.000 HD
ENDBRANCH  11  12
ENDBRANCH  10  11
ENDBRANCH   9  10
ENDBRANCH   7   9
ENDBRANCH   1   7
BRANCH   6  15
ATOM     15  C   UNL     1       4.381   1.880  19.381  0.00  0.00    +0.000 C 
ATOM     16  O   UNL     1       4.994   1.807  20.428  0.00  0.00    +0.000 OA
BRANCH  15  17
ATOM     17  O   UNL     1       4.183   0.817  18.569  0.00  0.00    +0.000 OA
ATOM     18  H   UNL     1       5.013   0.334  18.362  0.00  0.00    +0.000 HD
ENDBRANCH  15  17
ENDBRANCH   6  15
TORSDOF 7
ENDMDL
MODEL 5
REMARK VINA RESULT:      -5.4      2.716      5.353
REMARK  Name = 
REMARK  7 active torsions:
REMARK  status: ('A' for Active; 'I' for Inactive)
REMARK    1  A    between atoms: N_1  and  C_2
REMARK    2  A    between atoms: C_2  and  C_3
REMARK    3  A    between atoms: C_3  and  C_4
REMARK    4  A    between atoms: C_4  and  N_5
REMARK    5  A    between atoms: N_5  and  C_6
REMARK    6  A    between atoms: C_11  and  C_12
REMARK    7  A    between atoms: C_12  and  O_14
REMARK                            x       y       z     vdW  Elec       q    Type
REMARK                         _______ _______ _______ _____ _____    ______ ____
ROOT
ATOM      1  C   UNL     1       5.312   4.893  17.633  0.00  0.00    +0.000 A 
ATOM      2  C   UNL     1       5.373   5.132  19.011  0.00  0.00    +0.000 A 
ATOM      3  N   UNL     1       6.505   5.333  19.728  0.00  0.00    +0.000 NA
ATOM      4  C   UNL     1       7.665   5.258  19.058  0.00  0.00    +0.000 A 
ATOM      5  C   UNL     1       7.750   4.965  17.712  0.00  0.00    +0.000 A 
ATOM      6  C   UNL     1       6.561   4.763  16.996  0.00  0.00    +0.000 A 
ENDROOT
BRANCH   1   7
ATOM      7  N   UNL     1       4.089   4.672  16.944  0.00  0.00    +0.000 N 
ATOM      8  H   UNL     1       3.486   5.495  17.049  0.00  0.00    +0.000 HD
BRANCH   7   9
ATOM      9  C   UNL     1       3.313   3.514  17.426  0.00  0.00    +0.000 C 
BRANCH   9  10
ATOM     10  C   UNL     1       1.886   3.964  17.723  0.00  0.00    +0.000 C 
BRANCH  10  11
ATOM     11  C   UNL     1       1.202   3.061  18.743  0.00  0.00    +0.000 C 
BRANCH  11  12
ATOM     12  N   UNL     1       1.627   1.677  18.576  0.00  0.00    +0.000 NA
ATOM     13  H   UNL     1       0.864   1.050  18.839  0.00  0.00    +0.000 HD
ATOM     14  H   UNL     1       2.394   1.468  19.216  0.00  0.00    +0.000 HD
ENDBRANCH  11  12
ENDBRANCH  10  11
ENDBRANCH   9  10
ENDBRANCH   7   9
ENDBRANCH   1   7
BRANCH   6  15
ATOM     15  C   UNL     1       6.723   4.500  15.538  0.00  0.00    +0.000 C 
ATOM     16  O   UNL     1       6.168   3.585  14.961  0.00  0.00    +0.000 OA
BRANCH  15  17
ATOM     17  O   UNL     1       7.537   5.379  14.910  0.00  0.00    +0.000 OA
ATOM     18  H   UNL     1       7.829   5.066  14.026  0.00  0.00    +0.000 HD
ENDBRANCH  15  17
ENDBRANCH   6  15
TORSDOF 7
ENDMDL
MODEL 6
REMARK VINA RESULT:      -5.4      2.684      4.507
REMARK  Name = 
REMARK  7 active torsions:
REMARK  status: ('A' for Active; 'I' for Inactive)
REMARK    1  A    between atoms: N_1  and  C_2
REMARK    2  A    between atoms: C_2  and  C_3
REMARK    3  A    between atoms: C_3  and  C_4
REMARK    4  A    between atoms: C_4  and  N_5
REMARK    5  A    between atoms: N_5  and  C_6
REMARK    6  A    between atoms: C_11  and  C_12
REMARK    7  A    between atoms: C_12  and  O_14
REMARK                            x       y       z     vdW  Elec       q    Type
REMARK                         _______ _______ _______ _____ _____    ______ ____
ROOT
ATOM      1  C   UNL     1       3.374   5.848  19.378  0.00  0.00    +0.000 A 
ATOM      2  C   UNL     1       2.648   6.909  18.823  0.00  0.00    +0.000 A 
ATOM      3  N   UNL     1       2.990   7.602  17.710  0.00  0.00    +0.000 NA
ATOM      4  C   UNL     1       4.142   7.259  17.115  0.00  0.00    +0.000 A 
ATOM      5  C   UNL     1       4.984   6.276  17.594  0.00  0.00    +0.000 A 
ATOM      6  C   UNL     1       4.604   5.574  18.749  0.00  0.00    +0.000 A 
ENDROOT
BRANCH   1   7
ATOM      7  N   UNL     1       2.968   5.173  20.560  0.00  0.00    +0.000 N 
ATOM      8  H   UNL     1       3.384   4.236  20.578  0.00  0.00    +0.000 HD
BRANCH   7   9
ATOM      9  C   UNL     1       1.510   4.991  20.694  0.00  0.00    +0.000 C 
BRANCH   9  10
ATOM     10  C   UNL     1       1.164   3.536  20.398  0.00  0.00    +0.000 C 
BRANCH  10  11
ATOM     11  C   UNL     1       1.471   2.623  21.581  0.00  0.00    +0.000 C 
BRANCH  11  12
ATOM     12  N   UNL     1       2.909   2.498  21.780  0.00  0.00    +0.000 NA
ATOM     13  H   UNL     1       3.170   2.924  22.671  0.00  0.00    +0.000 HD
ATOM     14  H   UNL     1       3.407   3.023  21.061  0.00  0.00    +0.000 HD
ENDBRANCH  11  12
ENDBRANCH  10  11
ENDBRANCH   9  10
ENDBRANCH   7   9
ENDBRANCH   1   7
BRANCH   6  15
ATOM     15  C   UNL     1       5.534   4.494  19.182  0.00  0.00    +0.000 C 
ATOM     16  O   UNL     1       6.719   4.677  19.385  0.00  0.00    +0.000 OA
BRANCH  15  17
ATOM     17  O   UNL     1       4.939   3.290  19.340  0.00  0.00    +0.000 OA
ATOM     18  H   UNL     1       4.851   3.028  20.283  0.00  0.00    +0.000 HD
ENDBRANCH  15  17
ENDBRANCH   6  15
TORSDOF 7
ENDMDL
MODEL 7
REMARK VINA RESULT:      -5.3      2.504      4.575
REMARK  Name = 
REMARK  7 active torsions:
REMARK  status: ('A' for Active; 'I' for Inactive)
REMARK    1  A    between atoms: N_1  and  C_2
REMARK    2  A    between atoms: C_2  and  C_3
REMARK    3  A    between atoms: C_3  and  C_4
REMARK    4  A    between atoms: C_4  and  N_5
REMARK    5  A    between atoms: N_5  and  C_6
REMARK    6  A    between atoms: C_11  and  C_12
REMARK    7  A    between atoms: C_12  and  O_14
REMARK                            x       y       z     vdW  Elec       q    Type
REMARK                         _______ _______ _______ _____ _____    ______ ____
ROOT
ATOM      1  C   UNL     1       5.086   4.559  18.412  0.00  0.00    +0.000 A 
ATOM      2  C   UNL     1       3.943   5.278  18.782  0.00  0.00    +0.000 A 
ATOM      3  N   UNL     1       3.558   6.469  18.263  0.00  0.00    +0.000 NA
ATOM      4  C   UNL     1       4.366   7.016  17.341  0.00  0.00    +0.000 A 
ATOM      5  C   UNL     1       5.555   6.444  16.934  0.00  0.00    +0.000 A 
ATOM      6  C   UNL     1       5.927   5.210  17.489  0.00  0.00    +0.000 A 
ENDROOT
BRANCH   1   7
ATOM      7  N   UNL     1       5.443   3.321  19.010  0.00  0.00    +0.000 N 
ATOM      8  H   UNL     1       5.780   2.677  18.286  0.00  0.00    +0.000 HD
BRANCH   7   9
ATOM      9  C   UNL     1       4.338   2.634  19.706  0.00  0.00    +0.000 C 
BRANCH   9  10
ATOM     10  C   UNL     1       3.576   1.778  18.700  0.00  0.00    +0.000 C 
BRANCH  10  11
ATOM     11  C   UNL     1       2.070   1.998  18.787  0.00  0.00    +0.000 C 
BRANCH  11  12
ATOM     12  N   UNL     1       1.706   2.592  20.067  0.00  0.00    +0.000 NA
ATOM     13  H   UNL     1       0.962   2.043  20.501  0.00  0.00    +0.000 HD
ATOM     14  H   UNL     1       1.318   3.524  19.920  0.00  0.00    +0.000 HD
ENDBRANCH  11  12
ENDBRANCH  10  11
ENDBRANCH   9  10
ENDBRANCH   7   9
ENDBRANCH   1   7
BRANCH   6  15
ATOM     15  C   UNL     1       7.196   4.627  16.968  0.00  0.00    +0.000 C 
ATOM     16  O   UNL     1       7.515   4.667  15.796  0.00  0.00    +0.000 OA
BRANCH  15  17
ATOM     17  O   UNL     1       7.968   4.057  17.921  0.00  0.00    +0.000 OA
ATOM     18  H   UNL     1       8.282   3.160  17.672  0.00  0.00    +0.000 HD
ENDBRANCH  15  17
ENDBRANCH   6  15
TORSDOF 7
ENDMDL
MODEL 8
REMARK VINA RESULT:      -5.3      3.609      4.683
REMARK  Name = 
REMARK  7 active torsions:
REMARK  status: ('A' for Active; 'I' for Inactive)
REMARK    1  A    between atoms: N_1  and  C_2
REMARK    2  A    between atoms: C_2  and  C_3
REMARK    3  A    between atoms: C_3  and  C_4
REMARK    4  A    between atoms: C_4  and  N_5
REMARK    5  A    between atoms: N_5  and  C_6
REMARK    6  A    between atoms: C_11  and  C_12
REMARK    7  A    between atoms: C_12  and  O_14
REMARK                            x       y       z     vdW  Elec       q    Type
REMARK                         _______ _______ _______ _____ _____    ______ ____
ROOT
ATOM      1  C   UNL     1       5.432   4.121  16.926  0.00  0.00    +0.000 A 
ATOM      2  C   UNL     1       4.045   3.948  17.014  0.00  0.00    +0.000 A 
ATOM      3  N   UNL     1       3.252   4.424  18.005  0.00  0.00    +0.000 NA
ATOM      4  C   UNL     1       3.861   5.085  19.001  0.00  0.00    +0.000 A 
ATOM      5  C   UNL     1       5.227   5.270  19.070  0.00  0.00    +0.000 A 
ATOM      6  C   UNL     1       6.023   4.767  18.029  0.00  0.00    +0.000 A 
ENDROOT
BRANCH   1   7
ATOM      7  N   UNL     1       6.208   3.580  15.866  0.00  0.00    +0.000 N 
ATOM      8  H   UNL     1       7.151   3.367  16.210  0.00  0.00    +0.000 HD
BRANCH   7   9
ATOM      9  C   UNL     1       6.373   4.477  14.706  0.00  0.00    +0.000 C 
BRANCH   9  10
ATOM     10  C   UNL     1       5.548   3.937  13.543  0.00  0.00    +0.000 C 
BRANCH  10  11
ATOM     11  C   UNL     1       6.422   3.537  12.359  0.00  0.00    +0.000 C 
BRANCH  11  12
ATOM     12  N   UNL     1       6.106   2.185  11.916  0.00  0.00    +0.000 NA
ATOM     13  H   UNL     1       5.292   1.838  12.427  0.00  0.00    +0.000 HD
ATOM     14  H   UNL     1       6.874   1.554  12.149  0.00  0.00    +0.000 HD
ENDBRANCH  11  12
ENDBRANCH  10  11
ENDBRANCH   9  10
ENDBRANCH   7   9
ENDBRANCH   1   7
BRANCH   6  15
ATOM     15  C   UNL     1       7.482   5.045  18.141  0.00  0.00    +0.000 C 
ATOM     16  O   UNL     1       7.929   6.085  18.587  0.00  0.00    +0.000 OA
BRANCH  15  17
ATOM     17  O   UNL     1       8.268   4.031  17.714  0.00  0.00    +0.000 OA
ATOM     18  H   UNL     1       9.179   4.073  18.080  0.00  0.00    +0.000 HD
ENDBRANCH  15  17
ENDBRANCH   6  15
TORSDOF 7
ENDMDL
MODEL 9
REMARK VINA RESULT:      -5.3      1.628      1.932
REMARK  Name = 
REMARK  7 active torsions:
REMARK  status: ('A' for Active; 'I' for Inactive)
REMARK    1  A    between atoms: N_1  and  C_2
REMARK    2  A    between atoms: C_2  and  C_3
REMARK    3  A    between atoms: C_3  and  C_4
REMARK    4  A    between atoms: C_4  and  N_5
REMARK    5  A    between atoms: N_5  and  C_6
REMARK    6  A    between atoms: C_11  and  C_12
REMARK    7  A    between atoms: C_12  and  O_14
REMARK                            x       y       z     vdW  Elec       q    Type
REMARK                         _______ _______ _______ _____ _____    ______ ____
ROOT
ATOM      1  C   UNL     1       3.830   4.580  19.260  0.00  0.00    +0.000 A 
ATOM      2  C   UNL     1       3.038   5.671  19.641  0.00  0.00    +0.000 A 
ATOM      3  N   UNL     1       1.897   5.601  20.368  0.00  0.00    +0.000 NA
ATOM      4  C   UNL     1       1.478   4.376  20.719  0.00  0.00    +0.000 A 
ATOM      5  C   UNL     1       2.128   3.215  20.354  0.00  0.00    +0.000 A 
ATOM      6  C   UNL     1       3.308   3.317  19.602  0.00  0.00    +0.000 A 
ENDROOT
BRANCH   1   7
ATOM      7  N   UNL     1       5.009   4.720  18.480  0.00  0.00    +0.000 N 
ATOM      8  H   UNL     1       5.499   5.579  18.754  0.00  0.00    +0.000 HD
BRANCH   7   9
ATOM      9  C   UNL     1       4.776   4.812  17.026  0.00  0.00    +0.000 C 
BRANCH   9  10
ATOM     10  C   UNL     1       6.122   4.906  16.315  0.00  0.00    +0.000 C 
BRANCH  10  11
ATOM     11  C   UNL     1       7.246   5.299  17.267  0.00  0.00    +0.000 C 
BRANCH  11  12
ATOM     12  N   UNL     1       8.045   4.137  17.634  0.00  0.00    +0.000 NA
ATOM     13  H   UNL     1       7.510   3.284  17.457  0.00  0.00    +0.000 HD
ATOM     14  H   UNL     1       8.235   4.146  18.636  0.00  0.00    +0.000 HD
ENDBRANCH  11  12
ENDBRANCH  10  11
ENDBRANCH   9  10
ENDBRANCH   7   9
ENDBRANCH   1   7
BRANCH   6  15
ATOM     15  C   UNL     1       3.984   2.028  19.285  0.00  0.00    +0.000 C 
ATOM     16  O   UNL     1       3.575   1.250  18.446  0.00  0.00    +0.000 OA
BRANCH  15  17
ATOM     17  O   UNL     1       5.105   1.806  20.009  0.00  0.00    +0.000 OA
ATOM     18  H   UNL     1       5.055   0.984  20.547  0.00  0.00    +0.000 HD
ENDBRANCH  15  17
ENDBRANCH   6  15
TORSDOF 7
ENDMDL
