MODEL 1
REMARK VINA RESULT:      -8.0      0.000      0.000
REMARK  Name = 
REMARK  5 active torsions:
REMARK  status: ('A' for Active; 'I' for Inactive)
REMARK    1  A    between atoms: N_5  and  C_6
REMARK    2  A    between atoms: N_19  and  C1*_20
REMARK    3  A    between atoms: C3*_22  and  O3*_23
REMARK    4  A    between atoms: C4*_24  and  C5*_25
REMARK    5  A    between atoms: C5*_25  and  O5*_26
REMARK                            x       y       z     vdW  Elec       q    Type
REMARK                         _______ _______ _______ _____ _____    ______ ____
ROOT
ATOM      1  O   UNL     1       7.308   7.200  17.147  0.00  0.00    +0.000 OA
ATOM      2  C   UNL     1       6.769   6.215  16.650  0.00  0.00    +0.000 C 
ATOM      3  N   UNL     1       7.108   5.771  15.425  0.00  0.00    +0.000 N 
ATOM      4  C   UNL     1       6.718   4.555  14.933  0.00  0.00    +0.000 C 
ATOM      5  N   UNL     1       6.967   4.437  13.591  0.00  0.00    +0.000 N 
ATOM      6  N   UNL     1       6.201   3.643  15.686  0.00  0.00    +0.000 NA
ATOM      7  C   UNL     1       5.897   3.922  17.108  0.00  0.00    +0.000 C 
ATOM      8  C   UNL     1       5.716   5.425  17.339  0.00  0.00    +0.000 C 
ATOM      9  N   UNL     1       4.327   5.721  16.820  0.00  0.00    +0.000 NA
ATOM     10  C   UNL     1       3.763   4.547  16.972  0.00  0.00    +0.000 C 
ATOM     11  N   UNL     1       4.523   3.503  17.438  0.00  0.00    +0.000 N 
ATOM     12  H   UNL     1       7.712   6.380  14.904  0.00  0.00    +0.000 HD
ATOM     13  H   UNL     1       7.280   5.292  13.144  0.00  0.00    +0.000 HD
ENDROOT
BRANCH   5  14
ATOM     14  C   UNL     1       6.163   3.716  12.679  0.00  0.00    +0.000 A 
ATOM     15  C   UNL     1       5.058   4.271  12.025  0.00  0.00    +0.000 A 
ATOM     16  C   UNL     1       4.305   3.499  11.139  0.00  0.00    +0.000 A 
ATOM     17 CL   UNL     1       2.948   4.197  10.344  0.00  0.00    +0.000 Cl
ATOM     18  C   UNL     1       4.640   2.172  10.890  0.00  0.00    +0.000 A 
ATOM     19  C   UNL     1       5.759   1.628  11.513  0.00  0.00    +0.000 A 
ATOM     20 CL   UNL     1       6.198  -0.008  11.212  0.00  0.00    +0.000 Cl
ATOM     21  C   UNL     1       6.527   2.394  12.388  0.00  0.00    +0.000 A 
ENDBRANCH   5  14
BRANCH  11  22
ATOM     22  C1* UNL     1       4.221   2.998  18.787  0.00  0.00    +0.000 C 
ATOM     23  C2* UNL     1       3.430   3.949  19.680  0.00  0.00    +0.000 C 
ATOM     24  C3* UNL     1       2.540   3.045  20.496  0.00  0.00    +0.000 C 
ATOM     25  C4* UNL     1       2.226   1.937  19.497  0.00  0.00    +0.000 C 
ATOM     26  O4* UNL     1       3.426   1.790  18.695  0.00  0.00    +0.000 OA
BRANCH  24  27
ATOM     27  O3* UNL     1       3.266   2.592  21.636  0.00  0.00    +0.000 OA
ATOM     28  H3* UNL     1       2.880   2.980  22.441  0.00  0.00    +0.000 HD
ENDBRANCH  24  27
BRANCH  25  29
ATOM     29  C5* UNL     1       1.039   2.290  18.582  0.00  0.00    +0.000 C 
BRANCH  29  30
ATOM     30  O5* UNL     1      -0.046   2.791  19.358  0.00  0.00    +0.000 OA
ATOM     31  H5* UNL     1      -0.839   2.745  18.792  0.00  0.00    +0.000 HD
ENDBRANCH  29  30
ENDBRANCH  25  29
ENDBRANCH  11  22
TORSDOF 5
ENDMDL
MODEL 2
REMARK VINA RESULT:      -7.9      4.818      8.451
REMARK  Name = 
REMARK  5 active torsions:
REMARK  status: ('A' for Active; 'I' for Inactive)
REMARK    1  A    between atoms: N_5  and  C_6
REMARK    2  A    between atoms: N_19  and  C1*_20
REMARK    3  A    between atoms: C3*_22  and  O3*_23
REMARK    4  A    between atoms: C4*_24  and  C5*_25
REMARK    5  A    between atoms: C5*_25  and  O5*_26
REMARK                            x       y       z     vdW  Elec       q    Type
REMARK                         _______ _______ _______ _____ _____    ______ ____
ROOT
ATOM      1  O   UNL     1       1.864   2.080  20.962  0.00  0.00    +0.000 OA
ATOM      2  C   UNL     1       2.069   3.185  20.465  0.00  0.00    +0.000 C 
ATOM      3  N   UNL     1       1.822   4.319  21.147  0.00  0.00    +0.000 N 
ATOM      4  C   UNL     1       2.254   5.551  20.735  0.00  0.00    +0.000 C 
ATOM      5  N   UNL     1       1.671   6.567  21.446  0.00  0.00    +0.000 N 
ATOM      6  N   UNL     1       3.129   5.694  19.797  0.00  0.00    +0.000 NA
ATOM      7  C   UNL     1       3.621   4.521  19.039  0.00  0.00    +0.000 C 
ATOM      8  C   UNL     1       2.605   3.377  19.092  0.00  0.00    +0.000 C 
ATOM      9  N   UNL     1       1.539   3.772  18.096  0.00  0.00    +0.000 NA
ATOM     10  C   UNL     1       2.239   4.535  17.291  0.00  0.00    +0.000 C 
ATOM     11  N   UNL     1       3.557   4.776  17.588  0.00  0.00    +0.000 N 
ATOM     12  H   UNL     1       1.331   4.197  22.013  0.00  0.00    +0.000 HD
ATOM     13  H   UNL     1       0.929   6.271  22.071  0.00  0.00    +0.000 HD
ENDROOT
BRANCH   5  14
ATOM     14  C   UNL     1       1.342   7.837  20.921  0.00  0.00    +0.000 A 
ATOM     15  C   UNL     1       1.706   8.254  19.637  0.00  0.00    +0.000 A 
ATOM     16  C   UNL     1       1.351   9.526  19.184  0.00  0.00    +0.000 A 
ATOM     17 CL   UNL     1       1.809  10.024  17.602  0.00  0.00    +0.000 Cl
ATOM     18  C   UNL     1       0.630  10.395  19.997  0.00  0.00    +0.000 A 
ATOM     19  C   UNL     1       0.237   9.970  21.262  0.00  0.00    +0.000 A 
ATOM     20 CL   UNL     1      -0.664  11.023  22.280  0.00  0.00    +0.000 Cl
ATOM     21  C   UNL     1       0.573   8.696  21.718  0.00  0.00    +0.000 A 
ENDBRANCH   5  14
BRANCH  11  22
ATOM     22  C1* UNL     1       4.569   4.179  16.701  0.00  0.00    +0.000 C 
ATOM     23  C2* UNL     1       4.986   5.039  15.512  0.00  0.00    +0.000 C 
ATOM     24  C3* UNL     1       6.453   4.741  15.328  0.00  0.00    +0.000 C 
ATOM     25  C4* UNL     1       6.909   4.537  16.768  0.00  0.00    +0.000 C 
ATOM     26  O4* UNL     1       5.785   3.919  17.445  0.00  0.00    +0.000 OA
BRANCH  24  27
ATOM     27  O3* UNL     1       6.586   3.574  14.521  0.00  0.00    +0.000 OA
ATOM     28  H3* UNL     1       7.504   3.502  14.205  0.00  0.00    +0.000 HD
ENDBRANCH  24  27
BRANCH  25  29
ATOM     29  C5* UNL     1       7.261   5.864  17.466  0.00  0.00    +0.000 C 
BRANCH  29  30
ATOM     30  O5* UNL     1       7.687   6.826  16.504  0.00  0.00    +0.000 OA
ATOM     31  H5* UNL     1       7.731   7.683  16.967  0.00  0.00    +0.000 HD
ENDBRANCH  29  30
ENDBRANCH  25  29
ENDBRANCH  11  22
TORSDOF 5
ENDMDL
MODEL 3
REMARK VINA RESULT:      -7.8      4.951      8.531
REMARK  Name = 
REMARK  5 active torsions:
REMARK  status: ('A' for Active; 'I' for Inactive)
REMARK    1  A    between atoms: N_5  and  C_6
REMARK    2  A    between atoms: N_19  and  C1*_20
REMARK    3  A    between atoms: C3*_22  and  O3*_23
REMARK    4  A    between atoms: C4*_24  and  C5*_25
REMARK    5  A    between atoms: C5*_25  and  O5*_26
REMARK                            x       y       z     vdW  Elec       q    Type
REMARK                         _______ _______ _______ _____ _____    ______ ____
ROOT
ATOM      1  O   UNL     1       1.858   2.229  20.717  0.00  0.00    +0.000 OA
ATOM      2  C   UNL     1       2.110   3.374  20.351  0.00  0.00    +0.000 C 
ATOM      3  N   UNL     1       1.688   4.444  21.050  0.00  0.00    +0.000 N 
ATOM      4  C   UNL     1       2.140   5.716  20.822  0.00  0.00    +0.000 C 
ATOM      5  N   UNL     1       1.387   6.657  21.475  0.00  0.00    +0.000 N 
ATOM      6  N   UNL     1       3.176   5.955  20.090  0.00  0.00    +0.000 NA
ATOM      7  C   UNL     1       3.855   4.859  19.362  0.00  0.00    +0.000 C 
ATOM      8  C   UNL     1       2.897   3.688  19.130  0.00  0.00    +0.000 C 
ATOM      9  N   UNL     1       2.031   4.132  17.973  0.00  0.00    +0.000 NA
ATOM     10  C   UNL     1       2.843   4.974  17.380  0.00  0.00    +0.000 C 
ATOM     11  N   UNL     1       4.067   5.226  17.950  0.00  0.00    +0.000 N 
ATOM     12  H   UNL     1       1.041   4.242  21.790  0.00  0.00    +0.000 HD
ATOM     13  H   UNL     1       0.550   6.293  21.917  0.00  0.00    +0.000 HD
ENDROOT
BRANCH   5  14
ATOM     14  C   UNL     1       1.115   7.955  20.988  0.00  0.00    +0.000 A 
ATOM     15  C   UNL     1       1.550   8.413  19.740  0.00  0.00    +0.000 A 
ATOM     16  C   UNL     1       1.248   9.711  19.324  0.00  0.00    +0.000 A 
ATOM     17 CL   UNL     1       1.791  10.259  17.786  0.00  0.00    +0.000 Cl
ATOM     18  C   UNL     1       0.512  10.567  20.138  0.00  0.00    +0.000 A 
ATOM     19  C   UNL     1       0.050  10.102  21.365  0.00  0.00    +0.000 A 
ATOM     20 CL   UNL     1      -0.871  11.138  22.383  0.00  0.00    +0.000 Cl
ATOM     21  C   UNL     1       0.332   8.803  21.783  0.00  0.00    +0.000 A 
ENDBRANCH   5  14
BRANCH  11  22
ATOM     22  C1* UNL     1       5.257   4.728  17.241  0.00  0.00    +0.000 C 
ATOM     23  C2* UNL     1       5.992   5.760  16.392  0.00  0.00    +0.000 C 
ATOM     24  C3* UNL     1       7.447   5.386  16.522  0.00  0.00    +0.000 C 
ATOM     25  C4* UNL     1       7.509   4.881  17.959  0.00  0.00    +0.000 C 
ATOM     26  O4* UNL     1       6.230   4.237  18.196  0.00  0.00    +0.000 OA
BRANCH  24  27
ATOM     27  O3* UNL     1       7.752   4.384  15.555  0.00  0.00    +0.000 OA
ATOM     28  H3* UNL     1       7.284   4.582  14.725  0.00  0.00    +0.000 HD
ENDBRANCH  24  27
BRANCH  25  29
ATOM     29  C5* UNL     1       7.704   6.021  18.975  0.00  0.00    +0.000 C 
BRANCH  29  30
ATOM     30  O5* UNL     1       7.761   5.494  20.298  0.00  0.00    +0.000 OA
ATOM     31  H5* UNL     1       7.528   4.550  20.233  0.00  0.00    +0.000 HD
ENDBRANCH  29  30
ENDBRANCH  25  29
ENDBRANCH  11  22
TORSDOF 5
ENDMDL
MODEL 4
REMARK VINA RESULT:      -7.7      4.955      8.473
REMARK  Name = 
REMARK  5 active torsions:
REMARK  status: ('A' for Active; 'I' for Inactive)
REMARK    1  A    between atoms: N_5  and  C_6
REMARK    2  A    between atoms: N_19  and  C1*_20
REMARK    3  A    between atoms: C3*_22  and  O3*_23
REMARK    4  A    between atoms: C4*_24  and  C5*_25
REMARK    5  A    between atoms: C5*_25  and  O5*_26
REMARK                            x       y       z     vdW  Elec       q    Type
REMARK                         _______ _______ _______ _____ _____    ______ ____
ROOT
ATOM      1  O   UNL     1       1.523   2.242  20.367  0.00  0.00    +0.000 OA
ATOM      2  C   UNL     1       1.848   3.397  20.101  0.00  0.00    +0.000 C 
ATOM      3  N   UNL     1       1.432   4.434  20.851  0.00  0.00    +0.000 N 
ATOM      4  C   UNL     1       1.954   5.695  20.744  0.00  0.00    +0.000 C 
ATOM      5  N   UNL     1       1.206   6.623  21.419  0.00  0.00    +0.000 N 
ATOM      6  N   UNL     1       3.043   5.934  20.092  0.00  0.00    +0.000 NA
ATOM      7  C   UNL     1       3.715   4.860  19.326  0.00  0.00    +0.000 C 
ATOM      8  C   UNL     1       2.721   3.757  18.954  0.00  0.00    +0.000 C 
ATOM      9  N   UNL     1       1.949   4.324  17.785  0.00  0.00    +0.000 NA
ATOM     10  C   UNL     1       2.832   5.165  17.303  0.00  0.00    +0.000 C 
ATOM     11  N   UNL     1       4.029   5.315  17.960  0.00  0.00    +0.000 N 
ATOM     12  H   UNL     1       0.734   4.212  21.536  0.00  0.00    +0.000 HD
ATOM     13  H   UNL     1       0.328   6.271  21.785  0.00  0.00    +0.000 HD
ENDROOT
BRANCH   5  14
ATOM     14  C   UNL     1       1.023   7.965  21.014  0.00  0.00    +0.000 A 
ATOM     15  C   UNL     1       0.406   8.931  21.816  0.00  0.00    +0.000 A 
ATOM     16  C   UNL     1       0.255  10.238  21.350  0.00  0.00    +0.000 A 
ATOM     17 CL   UNL     1      -0.507  11.414  22.348  0.00  0.00    +0.000 Cl
ATOM     18  C   UNL     1       0.715  10.601  20.087  0.00  0.00    +0.000 A 
ATOM     19  C   UNL     1       1.359   9.651  19.302  0.00  0.00    +0.000 A 
ATOM     20 CL   UNL     1       1.945  10.079  17.743  0.00  0.00    +0.000 Cl
ATOM     21  C   UNL     1       1.529   8.347  19.764  0.00  0.00    +0.000 A 
ENDBRANCH   5  14
BRANCH  11  22
ATOM     22  C1* UNL     1       5.236   4.811  17.285  0.00  0.00    +0.000 C 
ATOM     23  C2* UNL     1       6.028   5.850  16.497  0.00  0.00    +0.000 C 
ATOM     24  C3* UNL     1       7.469   5.439  16.676  0.00  0.00    +0.000 C 
ATOM     25  C4* UNL     1       7.459   4.892  18.099  0.00  0.00    +0.000 C 
ATOM     26  O4* UNL     1       6.158   4.271  18.265  0.00  0.00    +0.000 OA
BRANCH  24  27
ATOM     27  O3* UNL     1       7.792   4.459  15.694  0.00  0.00    +0.000 OA
ATOM     28  H3* UNL     1       7.676   3.570  16.073  0.00  0.00    +0.000 HD
ENDBRANCH  24  27
BRANCH  25  29
ATOM     29  C5* UNL     1       7.637   5.999  19.155  0.00  0.00    +0.000 C 
BRANCH  29  30
ATOM     30  O5* UNL     1       7.938   5.422  20.423  0.00  0.00    +0.000 OA
ATOM     31  H5* UNL     1       8.132   6.162  21.028  0.00  0.00    +0.000 HD
ENDBRANCH  29  30
ENDBRANCH  25  29
ENDBRANCH  11  22
TORSDOF 5
ENDMDL
MODEL 5
REMARK VINA RESULT:      -7.6      4.772      8.380
REMARK  Name = 
REMARK  5 active torsions:
REMARK  status: ('A' for Active; 'I' for Inactive)
REMARK    1  A    between atoms: N_5  and  C_6
REMARK    2  A    between atoms: N_19  and  C1*_20
REMARK    3  A    between atoms: C3*_22  and  O3*_23
REMARK    4  A    between atoms: C4*_24  and  C5*_25
REMARK    5  A    between atoms: C5*_25  and  O5*_26
REMARK                            x       y       z     vdW  Elec       q    Type
REMARK                         _______ _______ _______ _____ _____    ______ ____
ROOT
ATOM      1  O   UNL     1       1.837   2.026  20.710  0.00  0.00    +0.000 OA
ATOM      2  C   UNL     1       2.046   3.157  20.277  0.00  0.00    +0.000 C 
ATOM      3  N   UNL     1       1.776   4.252  21.013  0.00  0.00    +0.000 N 
ATOM      4  C   UNL     1       2.209   5.506  20.678  0.00  0.00    +0.000 C 
ATOM      5  N   UNL     1       1.602   6.479  21.428  0.00  0.00    +0.000 N 
ATOM      6  N   UNL     1       3.106   5.704  19.771  0.00  0.00    +0.000 NA
ATOM      7  C   UNL     1       3.623   4.575  18.963  0.00  0.00    +0.000 C 
ATOM      8  C   UNL     1       2.613   3.425  18.930  0.00  0.00    +0.000 C 
ATOM      9  N   UNL     1       1.569   3.868  17.932  0.00  0.00    +0.000 NA
ATOM     10  C   UNL     1       2.283   4.676  17.186  0.00  0.00    +0.000 C 
ATOM     11  N   UNL     1       3.592   4.908  17.527  0.00  0.00    +0.000 N 
ATOM     12  H   UNL     1       1.264   4.081  21.859  0.00  0.00    +0.000 HD
ATOM     13  H   UNL     1       0.848   6.146  22.019  0.00  0.00    +0.000 HD
ENDROOT
BRANCH   5  14
ATOM     14  C   UNL     1       1.278   7.774  20.964  0.00  0.00    +0.000 A 
ATOM     15  C   UNL     1       0.579   8.711  21.732  0.00  0.00    +0.000 A 
ATOM     16  C   UNL     1       0.289   9.972  21.208  0.00  0.00    +0.000 A 
ATOM     17 CL   UNL     1      -0.573  11.113  22.165  0.00  0.00    +0.000 Cl
ATOM     18  C   UNL     1       0.690  10.318  19.921  0.00  0.00    +0.000 A 
ATOM     19  C   UNL     1       1.414   9.400  19.169  0.00  0.00    +0.000 A 
ATOM     20 CL   UNL     1       1.929   9.808  17.579  0.00  0.00    +0.000 Cl
ATOM     21  C   UNL     1       1.723   8.143  19.688  0.00  0.00    +0.000 A 
ENDBRANCH   5  14
BRANCH  11  22
ATOM     22  C1* UNL     1       4.629   4.365  16.634  0.00  0.00    +0.000 C 
ATOM     23  C2* UNL     1       5.071   5.291  15.505  0.00  0.00    +0.000 C 
ATOM     24  C3* UNL     1       6.543   5.008  15.342  0.00  0.00    +0.000 C 
ATOM     25  C4* UNL     1       6.965   4.727  16.780  0.00  0.00    +0.000 C 
ATOM     26  O4* UNL     1       5.827   4.068  17.393  0.00  0.00    +0.000 OA
BRANCH  24  27
ATOM     27  O3* UNL     1       6.703   3.889  14.475  0.00  0.00    +0.000 OA
ATOM     28  H3* UNL     1       6.958   3.108  14.998  0.00  0.00    +0.000 HD
ENDBRANCH  24  27
BRANCH  25  29
ATOM     29  C5* UNL     1       7.292   6.014  17.559  0.00  0.00    +0.000 C 
BRANCH  29  30
ATOM     30  O5* UNL     1       7.744   7.027  16.664  0.00  0.00    +0.000 OA
ATOM     31  H5* UNL     1       8.626   6.751  16.352  0.00  0.00    +0.000 HD
ENDBRANCH  29  30
ENDBRANCH  25  29
ENDBRANCH  11  22
TORSDOF 5
ENDMDL
MODEL 6
REMARK VINA RESULT:      -7.5      0.351      1.768
REMARK  Name = 
REMARK  5 active torsions:
REMARK  status: ('A' for Active; 'I' for Inactive)
REMARK    1  A    between atoms: N_5  and  C_6
REMARK    2  A    between atoms: N_19  and  C1*_20
REMARK    3  A    between atoms: C3*_22  and  O3*_23
REMARK    4  A    between atoms: C4*_24  and  C5*_25
REMARK    5  A    between atoms: C5*_25  and  O5*_26
REMARK                            x       y       z     vdW  Elec       q    Type
REMARK                         _______ _______ _______ _____ _____    ______ ____
ROOT
ATOM      1  O   UNL     1       7.190   7.259  17.008  0.00  0.00    +0.000 OA
ATOM      2  C   UNL     1       6.701   6.236  16.533  0.00  0.00    +0.000 C 
ATOM      3  N   UNL     1       7.079   5.771  15.327  0.00  0.00    +0.000 N 
ATOM      4  C   UNL     1       6.749   4.525  14.866  0.00  0.00    +0.000 C 
ATOM      5  N   UNL     1       7.024   4.379  13.532  0.00  0.00    +0.000 N 
ATOM      6  N   UNL     1       6.261   3.614  15.640  0.00  0.00    +0.000 NA
ATOM      7  C   UNL     1       5.924   3.922  17.048  0.00  0.00    +0.000 C 
ATOM      8  C   UNL     1       5.673   5.421  17.231  0.00  0.00    +0.000 C 
ATOM      9  N   UNL     1       4.281   5.640  16.684  0.00  0.00    +0.000 NA
ATOM     10  C   UNL     1       3.766   4.448  16.864  0.00  0.00    +0.000 C 
ATOM     11  N   UNL     1       4.564   3.452  17.371  0.00  0.00    +0.000 N 
ATOM     12  H   UNL     1       7.663   6.391  14.796  0.00  0.00    +0.000 HD
ATOM     13  H   UNL     1       7.305   5.233  13.064  0.00  0.00    +0.000 HD
ENDROOT
BRANCH   5  14
ATOM     14  C   UNL     1       6.266   3.597  12.631  0.00  0.00    +0.000 A 
ATOM     15  C   UNL     1       6.550   2.256  12.352  0.00  0.00    +0.000 A 
ATOM     16  C   UNL     1       5.762   1.544  11.447  0.00  0.00    +0.000 A 
ATOM     17 CL   UNL     1       6.125  -0.104  11.115  0.00  0.00    +0.000 Cl
ATOM     18  C   UNL     1       4.682   2.152  10.812  0.00  0.00    +0.000 A 
ATOM     19  C   UNL     1       4.377   3.475  11.113  0.00  0.00    +0.000 A 
ATOM     20 CL   UNL     1       3.042   4.244  10.349  0.00  0.00    +0.000 Cl
ATOM     21  C   UNL     1       5.149   4.191  12.027  0.00  0.00    +0.000 A 
ENDBRANCH   5  14
BRANCH  11  22
ATOM     22  C1* UNL     1       4.264   2.975  18.731  0.00  0.00    +0.000 C 
ATOM     23  C2* UNL     1       3.659   4.013  19.671  0.00  0.00    +0.000 C 
ATOM     24  C3* UNL     1       2.695   3.229  20.526  0.00  0.00    +0.000 C 
ATOM     25  C4* UNL     1       2.180   2.190  19.536  0.00  0.00    +0.000 C 
ATOM     26  O4* UNL     1       3.306   1.890  18.672  0.00  0.00    +0.000 OA
BRANCH  24  27
ATOM     27  O3* UNL     1       3.408   2.663  21.622  0.00  0.00    +0.000 OA
ATOM     28  H3* UNL     1       3.316   1.694  21.603  0.00  0.00    +0.000 HD
ENDBRANCH  24  27
BRANCH  25  29
ATOM     29  C5* UNL     1       1.008   2.717  18.687  0.00  0.00    +0.000 C 
BRANCH  29  30
ATOM     30  O5* UNL     1       0.188   1.634  18.257  0.00  0.00    +0.000 OA
ATOM     31  H5* UNL     1      -0.735   1.941  18.318  0.00  0.00    +0.000 HD
ENDBRANCH  29  30
ENDBRANCH  25  29
ENDBRANCH  11  22
TORSDOF 5
ENDMDL
MODEL 7
REMARK VINA RESULT:      -7.1      2.240      3.034
REMARK  Name = 
REMARK  5 active torsions:
REMARK  status: ('A' for Active; 'I' for Inactive)
REMARK    1  A    between atoms: N_5  and  C_6
REMARK    2  A    between atoms: N_19  and  C1*_20
REMARK    3  A    between atoms: C3*_22  and  O3*_23
REMARK    4  A    between atoms: C4*_24  and  C5*_25
REMARK    5  A    between atoms: C5*_25  and  O5*_26
REMARK                            x       y       z     vdW  Elec       q    Type
REMARK                         _______ _______ _______ _____ _____    ______ ____
ROOT
ATOM      1  O   UNL     1       6.832   5.496  20.088  0.00  0.00    +0.000 OA
ATOM      2  C   UNL     1       6.353   5.160  19.008  0.00  0.00    +0.000 C 
ATOM      3  N   UNL     1       7.137   4.859  17.955  0.00  0.00    +0.000 N 
ATOM      4  C   UNL     1       6.668   4.254  16.820  0.00  0.00    +0.000 C 
ATOM      5  N   UNL     1       7.587   4.283  15.803  0.00  0.00    +0.000 N 
ATOM      6  N   UNL     1       5.499   3.710  16.764  0.00  0.00    +0.000 NA
ATOM      7  C   UNL     1       4.560   3.823  17.903  0.00  0.00    +0.000 C 
ATOM      8  C   UNL     1       4.893   5.046  18.761  0.00  0.00    +0.000 C 
ATOM      9  N   UNL     1       4.337   6.216  17.982  0.00  0.00    +0.000 NA
ATOM     10  C   UNL     1       3.384   5.619  17.307  0.00  0.00    +0.000 C 
ATOM     11  N   UNL     1       3.231   4.261  17.438  0.00  0.00    +0.000 N 
ATOM     12  H   UNL     1       8.110   5.070  18.074  0.00  0.00    +0.000 HD
ATOM     13  H   UNL     1       8.409   4.845  15.994  0.00  0.00    +0.000 HD
ENDROOT
BRANCH   5  14
ATOM     14  C   UNL     1       7.271   4.394  14.430  0.00  0.00    +0.000 A 
ATOM     15  C   UNL     1       6.316   3.593  13.795  0.00  0.00    +0.000 A 
ATOM     16  C   UNL     1       6.057   3.755  12.433  0.00  0.00    +0.000 A 
ATOM     17 CL   UNL     1       4.880   2.760  11.667  0.00  0.00    +0.000 Cl
ATOM     18  C   UNL     1       6.738   4.713  11.688  0.00  0.00    +0.000 A 
ATOM     19  C   UNL     1       7.663   5.533  12.324  0.00  0.00    +0.000 A 
ATOM     20 CL   UNL     1       8.510   6.730  11.426  0.00  0.00    +0.000 Cl
ATOM     21  C   UNL     1       7.919   5.390  13.687  0.00  0.00    +0.000 A 
ENDBRANCH   5  14
BRANCH  11  22
ATOM     22  C1* UNL     1       2.024   3.782  18.132  0.00  0.00    +0.000 C 
ATOM     23  C2* UNL     1       2.262   2.717  19.199  0.00  0.00    +0.000 C 
ATOM     24  C3* UNL     1       1.242   3.022  20.267  0.00  0.00    +0.000 C 
ATOM     25  C4* UNL     1       1.180   4.544  20.209  0.00  0.00    +0.000 C 
ATOM     26  O4* UNL     1       1.376   4.885  18.813  0.00  0.00    +0.000 OA
BRANCH  24  27
ATOM     27  O3* UNL     1       0.012   2.391  19.922  0.00  0.00    +0.000 OA
ATOM     28  H3* UNL     1       0.196   1.572  19.427  0.00  0.00    +0.000 HD
ENDBRANCH  24  27
BRANCH  25  29
ATOM     29  C5* UNL     1       2.278   5.210  21.059  0.00  0.00    +0.000 C 
BRANCH  29  30
ATOM     30  O5* UNL     1       2.511   6.540  20.603  0.00  0.00    +0.000 OA
ATOM     31  H5* UNL     1       1.771   7.083  20.933  0.00  0.00    +0.000 HD
ENDBRANCH  29  30
ENDBRANCH  25  29
ENDBRANCH  11  22
TORSDOF 5
ENDMDL
MODEL 8
REMARK VINA RESULT:      -7.1      5.212      8.496
REMARK  Name = 
REMARK  5 active torsions:
REMARK  status: ('A' for Active; 'I' for Inactive)
REMARK    1  A    between atoms: N_5  and  C_6
REMARK    2  A    between atoms: N_19  and  C1*_20
REMARK    3  A    between atoms: C3*_22  and  O3*_23
REMARK    4  A    between atoms: C4*_24  and  C5*_25
REMARK    5  A    between atoms: C5*_25  and  O5*_26
REMARK                            x       y       z     vdW  Elec       q    Type
REMARK                         _______ _______ _______ _____ _____    ______ ____
ROOT
ATOM      1  O   UNL     1       2.048   3.532  21.556  0.00  0.00    +0.000 OA
ATOM      2  C   UNL     1       2.144   4.539  20.859  0.00  0.00    +0.000 C 
ATOM      3  N   UNL     1       1.775   5.749  21.317  0.00  0.00    +0.000 N 
ATOM      4  C   UNL     1       2.083   6.920  20.678  0.00  0.00    +0.000 C 
ATOM      5  N   UNL     1       1.390   7.986  21.190  0.00  0.00    +0.000 N 
ATOM      6  N   UNL     1       2.951   6.974  19.724  0.00  0.00    +0.000 NA
ATOM      7  C   UNL     1       3.570   5.736  19.197  0.00  0.00    +0.000 C 
ATOM      8  C   UNL     1       2.675   4.524  19.471  0.00  0.00    +0.000 C 
ATOM      9  N   UNL     1       1.587   4.614  18.426  0.00  0.00    +0.000 NA
ATOM     10  C   UNL     1       2.216   5.280  17.487  0.00  0.00    +0.000 C 
ATOM     11  N   UNL     1       3.499   5.707  17.724  0.00  0.00    +0.000 N 
ATOM     12  H   UNL     1       1.287   5.742  22.194  0.00  0.00    +0.000 HD
ATOM     13  H   UNL     1       0.675   7.737  21.864  0.00  0.00    +0.000 HD
ENDROOT
BRANCH   5  14
ATOM     14  C   UNL     1       0.940   9.094  20.438  0.00  0.00    +0.000 A 
ATOM     15  C   UNL     1       0.098   8.977  19.326  0.00  0.00    +0.000 A 
ATOM     16  C   UNL     1      -0.304  10.115  18.627  0.00  0.00    +0.000 A 
ATOM     17 CL   UNL     1      -1.339   9.953  17.261  0.00  0.00    +0.000 Cl
ATOM     18  C   UNL     1       0.119  11.381  19.022  0.00  0.00    +0.000 A 
ATOM     19  C   UNL     1       0.928  11.503  20.147  0.00  0.00    +0.000 A 
ATOM     20 CL   UNL     1       1.455  13.057  20.661  0.00  0.00    +0.000 Cl
ATOM     21  C   UNL     1       1.324  10.373  20.862  0.00  0.00    +0.000 A 
ENDBRANCH   5  14
BRANCH  11  22
ATOM     22  C1* UNL     1       4.577   5.062  16.958  0.00  0.00    +0.000 C 
ATOM     23  C2* UNL     1       5.423   5.999  16.102  0.00  0.00    +0.000 C 
ATOM     24  C3* UNL     1       6.812   5.416  16.166  0.00  0.00    +0.000 C 
ATOM     25  C4* UNL     1       6.852   4.868  17.588  0.00  0.00    +0.000 C 
ATOM     26  O4* UNL     1       5.503   4.410  17.862  0.00  0.00    +0.000 OA
BRANCH  24  27
ATOM     27  O3* UNL     1       6.934   4.407  15.167  0.00  0.00    +0.000 OA
ATOM     28  H3* UNL     1       6.096   3.914  15.101  0.00  0.00    +0.000 HD
ENDBRANCH  24  27
BRANCH  25  29
ATOM     29  C5* UNL     1       7.248   5.941  18.620  0.00  0.00    +0.000 C 
BRANCH  29  30
ATOM     30  O5* UNL     1       7.187   5.401  19.937  0.00  0.00    +0.000 OA
ATOM     31  H5* UNL     1       7.927   5.794  20.435  0.00  0.00    +0.000 HD
ENDBRANCH  29  30
ENDBRANCH  25  29
ENDBRANCH  11  22
TORSDOF 5
ENDMDL
MODEL 9
REMARK VINA RESULT:      -7.1      5.127      8.845
REMARK  Name = 
REMARK  5 active torsions:
REMARK  status: ('A' for Active; 'I' for Inactive)
REMARK    1  A    between atoms: N_5  and  C_6
REMARK    2  A    between atoms: N_19  and  C1*_20
REMARK    3  A    between atoms: C3*_22  and  O3*_23
REMARK    4  A    between atoms: C4*_24  and  C5*_25
REMARK    5  A    between atoms: C5*_25  and  O5*_26
REMARK                            x       y       z     vdW  Elec       q    Type
REMARK                         _______ _______ _______ _____ _____    ______ ____
ROOT
ATOM      1  O   UNL     1       0.989   2.603  19.733  0.00  0.00    +0.000 OA
ATOM      2  C   UNL     1       1.453   3.741  19.730  0.00  0.00    +0.000 C 
ATOM      3  N   UNL     1       0.872   4.739  20.420  0.00  0.00    +0.000 N 
ATOM      4  C   UNL     1       1.474   5.948  20.643  0.00  0.00    +0.000 C 
ATOM      5  N   UNL     1       0.599   6.877  21.141  0.00  0.00    +0.000 N 
ATOM      6  N   UNL     1       2.730   6.141  20.419  0.00  0.00    +0.000 NA
ATOM      7  C   UNL     1       3.556   5.082  19.794  0.00  0.00    +0.000 C 
ATOM      8  C   UNL     1       2.682   4.120  18.985  0.00  0.00    +0.000 C 
ATOM      9  N   UNL     1       2.386   4.866  17.705  0.00  0.00    +0.000 NA
ATOM     10  C   UNL     1       3.429   5.658  17.645  0.00  0.00    +0.000 C 
ATOM     11  N   UNL     1       4.340   5.630  18.672  0.00  0.00    +0.000 N 
ATOM     12  H   UNL     1      -0.029   4.522  20.805  0.00  0.00    +0.000 HD
ATOM     13  H   UNL     1      -0.371   6.579  21.152  0.00  0.00    +0.000 HD
ENDROOT
BRANCH   5  14
ATOM     14  C   UNL     1       0.644   8.262  20.862  0.00  0.00    +0.000 A 
ATOM     15  C   UNL     1       1.264   8.797  19.729  0.00  0.00    +0.000 A 
ATOM     16  C   UNL     1       1.275  10.177  19.519  0.00  0.00    +0.000 A 
ATOM     17 CL   UNL     1       2.043  10.818  18.120  0.00  0.00    +0.000 Cl
ATOM     18  C   UNL     1       0.668  11.040  20.427  0.00  0.00    +0.000 A 
ATOM     19  C   UNL     1       0.022  10.508  21.537  0.00  0.00    +0.000 A 
ATOM     20 CL   UNL     1      -0.743  11.554  22.668  0.00  0.00    +0.000 Cl
ATOM     21  C   UNL     1      -0.008   9.130  21.749  0.00  0.00    +0.000 A 
ENDBRANCH   5  14
BRANCH  11  22
ATOM     22  C1* UNL     1       5.672   5.077  18.377  0.00  0.00    +0.000 C 
ATOM     23  C2* UNL     1       5.988   4.885  16.897  0.00  0.00    +0.000 C 
ATOM     24  C3* UNL     1       7.461   5.190  16.785  0.00  0.00    +0.000 C 
ATOM     25  C4* UNL     1       7.628   6.293  17.825  0.00  0.00    +0.000 C 
ATOM     26  O4* UNL     1       6.698   5.963  18.889  0.00  0.00    +0.000 OA
BRANCH  24  27
ATOM     27  O3* UNL     1       8.199   4.009  17.088  0.00  0.00    +0.000 OA
ATOM     28  H3* UNL     1       9.037   4.253  17.520  0.00  0.00    +0.000 HD
ENDBRANCH  24  27
BRANCH  25  29
ATOM     29  C5* UNL     1       7.290   7.686  17.264  0.00  0.00    +0.000 C 
BRANCH  29  30
ATOM     30  O5* UNL     1       7.943   8.695  18.030  0.00  0.00    +0.000 OA
ATOM     31  H5* UNL     1       8.840   8.792  17.659  0.00  0.00    +0.000 HD
ENDBRANCH  29  30
ENDBRANCH  25  29
ENDBRANCH  11  22
TORSDOF 5
ENDMDL
