MODEL 1
REMARK VINA RESULT:      -7.8      0.000      0.000
REMARK  Name = 
REMARK  5 active torsions:
REMARK  status: ('A' for Active; 'I' for Inactive)
REMARK    1  A    between atoms: C_1  and  C_2
REMARK    2  A    between atoms: N_5  and  C_6
REMARK    3  A    between atoms: C_6  and  C_7
REMARK    4  A    between atoms: C_10  and  N_11
REMARK    5  A    between atoms: C_17  and  C_18
REMARK                            x       y       z     vdW  Elec       q    Type
REMARK                         _______ _______ _______ _____ _____    ______ ____
ROOT
ATOM      1  C   UNL     1       4.244   2.326  20.019  0.00  0.00    +0.000 C 
ATOM      2  C   UNL     1       4.484   3.641  19.342  0.00  0.00    +0.000 A 
ATOM      3  N   UNL     1       3.427   4.423  19.123  0.00  0.00    +0.000 NA
ATOM      4  C   UNL     1       3.659   5.557  18.471  0.00  0.00    +0.000 A 
ATOM      5  N   UNL     1       2.542   6.294  18.144  0.00  0.00    +0.000 N 
ATOM      6  N   UNL     1       4.860   5.938  18.069  0.00  0.00    +0.000 NA
ATOM      7  C   UNL     1       5.883   5.099  18.329  0.00  0.00    +0.000 A 
ATOM      8  N   UNL     1       5.730   3.929  18.972  0.00  0.00    +0.000 NA
ATOM      9  H   UNL     1       1.739   5.929  18.653  0.00  0.00    +0.000 HD
ENDROOT
BRANCH   7  10
ATOM     10  C   UNL     1       7.290   5.518  17.897  0.00  0.00    +0.000 C 
ATOM     11  F   UNL     1       8.152   4.469  17.738  0.00  0.00    +0.000 F 
ATOM     12  F   UNL     1       7.305   6.178  16.700  0.00  0.00    +0.000 F 
ATOM     13  F   UNL     1       7.905   6.357  18.786  0.00  0.00    +0.000 F 
ENDBRANCH   7  10
BRANCH   5  14
ATOM     14  C   UNL     1       2.654   7.737  18.051  0.00  0.00    +0.000 C 
BRANCH  14  15
ATOM     15  C   UNL     1       1.893   8.419  19.180  0.00  0.00    +0.000 A 
ATOM     16  C   UNL     1       1.248   9.648  18.934  0.00  0.00    +0.000 A 
ATOM     17  C   UNL     1       0.531  10.304  19.942  0.00  0.00    +0.000 A 
ATOM     18  C   UNL     1       0.449   9.724  21.211  0.00  0.00    +0.000 A 
ATOM     19  C   UNL     1       1.054   8.489  21.472  0.00  0.00    +0.000 A 
ATOM     20  C   UNL     1       1.753   7.840  20.452  0.00  0.00    +0.000 A 
BRANCH  18  21
ATOM     21  N   UNL     1      -0.282  10.412  22.288  0.00  0.00    +0.000 N 
ATOM     22  O   UNL     1      -0.033  10.080  23.456  0.00  0.00    +0.000 OA
ATOM     23  O   UNL     1      -1.110  11.281  21.967  0.00  0.00    +0.000 OA
ENDBRANCH  18  21
ENDBRANCH  14  15
ENDBRANCH   5  14
TORSDOF 4
ENDMDL
MODEL 2
REMARK VINA RESULT:      -7.7      0.139      1.496
REMARK  Name = 
REMARK  5 active torsions:
REMARK  status: ('A' for Active; 'I' for Inactive)
REMARK    1  A    between atoms: C_1  and  C_2
REMARK    2  A    between atoms: N_5  and  C_6
REMARK    3  A    between atoms: C_6  and  C_7
REMARK    4  A    between atoms: C_10  and  N_11
REMARK    5  A    between atoms: C_17  and  C_18
REMARK                            x       y       z     vdW  Elec       q    Type
REMARK                         _______ _______ _______ _____ _____    ______ ____
ROOT
ATOM      1  C   UNL     1       4.225   2.355  20.048  0.00  0.00    +0.000 C 
ATOM      2  C   UNL     1       4.463   3.664  19.360  0.00  0.00    +0.000 A 
ATOM      3  N   UNL     1       3.403   4.441  19.131  0.00  0.00    +0.000 NA
ATOM      4  C   UNL     1       3.634   5.570  18.469  0.00  0.00    +0.000 A 
ATOM      5  N   UNL     1       2.516   6.301  18.133  0.00  0.00    +0.000 N 
ATOM      6  N   UNL     1       4.834   5.951  18.066  0.00  0.00    +0.000 NA
ATOM      7  C   UNL     1       5.859   5.118  18.336  0.00  0.00    +0.000 A 
ATOM      8  N   UNL     1       5.708   3.954  18.990  0.00  0.00    +0.000 NA
ATOM      9  H   UNL     1       1.712   5.938  18.643  0.00  0.00    +0.000 HD
ENDROOT
BRANCH   7  10
ATOM     10  C   UNL     1       7.266   5.537  17.904  0.00  0.00    +0.000 C 
ATOM     11  F   UNL     1       7.765   6.595  18.610  0.00  0.00    +0.000 F 
ATOM     12  F   UNL     1       8.189   4.539  18.054  0.00  0.00    +0.000 F 
ATOM     13  F   UNL     1       7.343   5.912  16.590  0.00  0.00    +0.000 F 
ENDBRANCH   7  10
BRANCH   5  14
ATOM     14  C   UNL     1       2.624   7.743  18.028  0.00  0.00    +0.000 C 
BRANCH  14  15
ATOM     15  C   UNL     1       1.857   8.433  19.148  0.00  0.00    +0.000 A 
ATOM     16  C   UNL     1       1.830   7.847  20.429  0.00  0.00    +0.000 A 
ATOM     17  C   UNL     1       1.143   8.452  21.489  0.00  0.00    +0.000 A 
ATOM     18  C   UNL     1       0.481   9.663  21.270  0.00  0.00    +0.000 A 
ATOM     19  C   UNL     1       0.520  10.282  20.016  0.00  0.00    +0.000 A 
ATOM     20  C   UNL     1       1.221   9.674  18.973  0.00  0.00    +0.000 A 
BRANCH  18  21
ATOM     21  N   UNL     1      -0.264  10.303  22.368  0.00  0.00    +0.000 N 
ATOM     22  O   UNL     1      -1.158  11.105  22.066  0.00  0.00    +0.000 OA
ATOM     23  O   UNL     1       0.047  10.005  23.534  0.00  0.00    +0.000 OA
ENDBRANCH  18  21
ENDBRANCH  14  15
ENDBRANCH   5  14
TORSDOF 4
ENDMDL
MODEL 3
REMARK VINA RESULT:      -7.7      0.182      1.010
REMARK  Name = 
REMARK  5 active torsions:
REMARK  status: ('A' for Active; 'I' for Inactive)
REMARK    1  A    between atoms: C_1  and  C_2
REMARK    2  A    between atoms: N_5  and  C_6
REMARK    3  A    between atoms: C_6  and  C_7
REMARK    4  A    between atoms: C_10  and  N_11
REMARK    5  A    between atoms: C_17  and  C_18
REMARK                            x       y       z     vdW  Elec       q    Type
REMARK                         _______ _______ _______ _____ _____    ______ ____
ROOT
ATOM      1  C   UNL     1       3.999   2.312  19.903  0.00  0.00    +0.000 C 
ATOM      2  C   UNL     1       4.293   3.645  19.284  0.00  0.00    +0.000 A 
ATOM      3  N   UNL     1       3.261   4.455  19.047  0.00  0.00    +0.000 NA
ATOM      4  C   UNL     1       3.543   5.606  18.446  0.00  0.00    +0.000 A 
ATOM      5  N   UNL     1       2.456   6.377  18.098  0.00  0.00    +0.000 N 
ATOM      6  N   UNL     1       4.768   5.977  18.110  0.00  0.00    +0.000 NA
ATOM      7  C   UNL     1       5.762   5.108  18.384  0.00  0.00    +0.000 A 
ATOM      8  N   UNL     1       5.559   3.921  18.978  0.00  0.00    +0.000 NA
ATOM      9  H   UNL     1       1.624   6.011  18.558  0.00  0.00    +0.000 HD
ENDROOT
BRANCH   7  10
ATOM     10  C   UNL     1       7.194   5.513  18.029  0.00  0.00    +0.000 C 
ATOM     11  F   UNL     1       7.873   6.096  19.062  0.00  0.00    +0.000 F 
ATOM     12  F   UNL     1       7.968   4.452  17.645  0.00  0.00    +0.000 F 
ATOM     13  F   UNL     1       7.267   6.411  16.998  0.00  0.00    +0.000 F 
ENDBRANCH   7  10
BRANCH   5  14
ATOM     14  C   UNL     1       2.600   7.820  18.061  0.00  0.00    +0.000 C 
BRANCH  14  15
ATOM     15  C   UNL     1       1.846   8.475  19.211  0.00  0.00    +0.000 A 
ATOM     16  C   UNL     1       1.103   9.648  18.971  0.00  0.00    +0.000 A 
ATOM     17  C   UNL     1       0.390  10.277  19.999  0.00  0.00    +0.000 A 
ATOM     18  C   UNL     1       0.412   9.725  21.283  0.00  0.00    +0.000 A 
ATOM     19  C   UNL     1       1.115   8.543  21.540  0.00  0.00    +0.000 A 
ATOM     20  C   UNL     1       1.809   7.919  20.502  0.00  0.00    +0.000 A 
BRANCH  18  21
ATOM     21  N   UNL     1      -0.315  10.385  22.380  0.00  0.00    +0.000 N 
ATOM     22  O   UNL     1      -1.135  11.265  22.080  0.00  0.00    +0.000 OA
ATOM     23  O   UNL     1      -0.064  10.028  23.543  0.00  0.00    +0.000 OA
ENDBRANCH  18  21
ENDBRANCH  14  15
ENDBRANCH   5  14
TORSDOF 4
ENDMDL
MODEL 4
REMARK VINA RESULT:      -7.6      3.808      4.789
REMARK  Name = 
REMARK  5 active torsions:
REMARK  status: ('A' for Active; 'I' for Inactive)
REMARK    1  A    between atoms: C_1  and  C_2
REMARK    2  A    between atoms: N_5  and  C_6
REMARK    3  A    between atoms: C_6  and  C_7
REMARK    4  A    between atoms: C_10  and  N_11
REMARK    5  A    between atoms: C_17  and  C_18
REMARK                            x       y       z     vdW  Elec       q    Type
REMARK                         _______ _______ _______ _____ _____    ______ ____
ROOT
ATOM      1  C   UNL     1       6.755   4.620  14.216  0.00  0.00    +0.000 C 
ATOM      2  C   UNL     1       6.393   5.313  15.495  0.00  0.00    +0.000 A 
ATOM      3  N   UNL     1       5.249   5.997  15.522  0.00  0.00    +0.000 NA
ATOM      4  C   UNL     1       4.980   6.648  16.649  0.00  0.00    +0.000 A 
ATOM      5  N   UNL     1       3.860   7.448  16.621  0.00  0.00    +0.000 N 
ATOM      6  N   UNL     1       5.763   6.621  17.715  0.00  0.00    +0.000 NA
ATOM      7  C   UNL     1       6.901   5.905  17.616  0.00  0.00    +0.000 A 
ATOM      8  N   UNL     1       7.251   5.229  16.509  0.00  0.00    +0.000 NA
ATOM      9  H   UNL     1       3.314   7.232  15.787  0.00  0.00    +0.000 HD
ENDROOT
BRANCH   7  10
ATOM     10  C   UNL     1       7.819   5.834  18.838  0.00  0.00    +0.000 C 
ATOM     11  F   UNL     1       8.605   6.941  19.000  0.00  0.00    +0.000 F 
ATOM     12  F   UNL     1       7.133   5.706  20.014  0.00  0.00    +0.000 F 
ATOM     13  F   UNL     1       8.689   4.777  18.805  0.00  0.00    +0.000 F 
ENDBRANCH   7  10
BRANCH   5  14
ATOM     14  C   UNL     1       3.118   7.664  17.848  0.00  0.00    +0.000 C 
BRANCH  14  15
ATOM     15  C   UNL     1       2.667   6.342  18.455  0.00  0.00    +0.000 A 
ATOM     16  C   UNL     1       2.814   6.133  19.841  0.00  0.00    +0.000 A 
ATOM     17  C   UNL     1       2.407   4.935  20.440  0.00  0.00    +0.000 A 
ATOM     18  C   UNL     1       1.838   3.934  19.648  0.00  0.00    +0.000 A 
ATOM     19  C   UNL     1       1.652   4.130  18.275  0.00  0.00    +0.000 A 
ATOM     20  C   UNL     1       2.049   5.335  17.694  0.00  0.00    +0.000 A 
BRANCH  18  21
ATOM     21  N   UNL     1       1.423   2.660  20.259  0.00  0.00    +0.000 N 
ATOM     22  O   UNL     1       1.363   1.663  19.526  0.00  0.00    +0.000 OA
ATOM     23  O   UNL     1       1.154   2.656  21.472  0.00  0.00    +0.000 OA
ENDBRANCH  18  21
ENDBRANCH  14  15
ENDBRANCH   5  14
TORSDOF 4
ENDMDL
MODEL 5
REMARK VINA RESULT:      -7.6      3.819      4.733
REMARK  Name = 
REMARK  5 active torsions:
REMARK  status: ('A' for Active; 'I' for Inactive)
REMARK    1  A    between atoms: C_1  and  C_2
REMARK    2  A    between atoms: N_5  and  C_6
REMARK    3  A    between atoms: C_6  and  C_7
REMARK    4  A    between atoms: C_10  and  N_11
REMARK    5  A    between atoms: C_17  and  C_18
REMARK                            x       y       z     vdW  Elec       q    Type
REMARK                         _______ _______ _______ _____ _____    ______ ____
ROOT
ATOM      1  C   UNL     1       6.758   4.507  14.248  0.00  0.00    +0.000 C 
ATOM      2  C   UNL     1       6.390   5.223  15.512  0.00  0.00    +0.000 A 
ATOM      3  N   UNL     1       5.240   5.897  15.525  0.00  0.00    +0.000 NA
ATOM      4  C   UNL     1       4.965   6.569  16.639  0.00  0.00    +0.000 A 
ATOM      5  N   UNL     1       3.837   7.358  16.593  0.00  0.00    +0.000 N 
ATOM      6  N   UNL     1       5.748   6.572  17.705  0.00  0.00    +0.000 NA
ATOM      7  C   UNL     1       6.892   5.864  17.620  0.00  0.00    +0.000 A 
ATOM      8  N   UNL     1       7.249   5.169  16.528  0.00  0.00    +0.000 NA
ATOM      9  H   UNL     1       3.293   7.119  15.765  0.00  0.00    +0.000 HD
ENDROOT
BRANCH   7  10
ATOM     10  C   UNL     1       7.812   5.827  18.843  0.00  0.00    +0.000 C 
ATOM     11  F   UNL     1       8.697   4.785  18.834  0.00  0.00    +0.000 F 
ATOM     12  F   UNL     1       8.581   6.951  18.964  0.00  0.00    +0.000 F 
ATOM     13  F   UNL     1       7.137   5.716  20.029  0.00  0.00    +0.000 F 
ENDBRANCH   7  10
BRANCH   5  14
ATOM     14  C   UNL     1       3.093   7.592  17.816  0.00  0.00    +0.000 C 
BRANCH  14  15
ATOM     15  C   UNL     1       2.661   6.279  18.455  0.00  0.00    +0.000 A 
ATOM     16  C   UNL     1       2.927   6.054  19.820  0.00  0.00    +0.000 A 
ATOM     17  C   UNL     1       2.540   4.863  20.447  0.00  0.00    +0.000 A 
ATOM     18  C   UNL     1       1.871   3.886  19.704  0.00  0.00    +0.000 A 
ATOM     19  C   UNL     1       1.567   4.099  18.355  0.00  0.00    +0.000 A 
ATOM     20  C   UNL     1       1.946   5.297  17.747  0.00  0.00    +0.000 A 
BRANCH  18  21
ATOM     21  N   UNL     1       1.476   2.620  20.343  0.00  0.00    +0.000 N 
ATOM     22  O   UNL     1       1.133   2.657  21.532  0.00  0.00    +0.000 OA
ATOM     23  O   UNL     1       1.513   1.585  19.655  0.00  0.00    +0.000 OA
ENDBRANCH  18  21
ENDBRANCH  14  15
ENDBRANCH   5  14
TORSDOF 4
ENDMDL
MODEL 6
REMARK VINA RESULT:      -7.5      5.823      8.116
REMARK  Name = 
REMARK  5 active torsions:
REMARK  status: ('A' for Active; 'I' for Inactive)
REMARK    1  A    between atoms: C_1  and  C_2
REMARK    2  A    between atoms: N_5  and  C_6
REMARK    3  A    between atoms: C_6  and  C_7
REMARK    4  A    between atoms: C_10  and  N_11
REMARK    5  A    between atoms: C_17  and  C_18
REMARK                            x       y       z     vdW  Elec       q    Type
REMARK                         _______ _______ _______ _____ _____    ______ ____
ROOT
ATOM      1  C   UNL     1       1.168   7.899  20.930  0.00  0.00    +0.000 C 
ATOM      2  C   UNL     1       1.868   6.698  20.369  0.00  0.00    +0.000 A 
ATOM      3  N   UNL     1       2.942   6.911  19.608  0.00  0.00    +0.000 NA
ATOM      4  C   UNL     1       3.509   5.833  19.078  0.00  0.00    +0.000 A 
ATOM      5  N   UNL     1       4.541   6.077  18.197  0.00  0.00    +0.000 N 
ATOM      6  N   UNL     1       3.081   4.600  19.288  0.00  0.00    +0.000 NA
ATOM      7  C   UNL     1       1.992   4.461  20.072  0.00  0.00    +0.000 A 
ATOM      8  N   UNL     1       1.354   5.499  20.636  0.00  0.00    +0.000 NA
ATOM      9  H   UNL     1       4.822   7.054  18.272  0.00  0.00    +0.000 HD
ENDROOT
BRANCH   7  10
ATOM     10  C   UNL     1       1.481   3.047  20.355  0.00  0.00    +0.000 C 
ATOM     11  F   UNL     1       0.397   2.692  19.602  0.00  0.00    +0.000 F 
ATOM     12  F   UNL     1       2.419   2.082  20.110  0.00  0.00    +0.000 F 
ATOM     13  F   UNL     1       1.093   2.858  21.654  0.00  0.00    +0.000 F 
ENDBRANCH   7  10
BRANCH   5  14
ATOM     14  C   UNL     1       5.605   5.100  18.073  0.00  0.00    +0.000 C 
BRANCH  14  15
ATOM     15  C   UNL     1       5.856   4.745  16.614  0.00  0.00    +0.000 A 
ATOM     16  C   UNL     1       4.892   3.996  15.910  0.00  0.00    +0.000 A 
ATOM     17  C   UNL     1       5.080   3.655  14.565  0.00  0.00    +0.000 A 
ATOM     18  C   UNL     1       6.242   4.072  13.910  0.00  0.00    +0.000 A 
ATOM     19  C   UNL     1       7.200   4.844  14.578  0.00  0.00    +0.000 A 
ATOM     20  C   UNL     1       6.991   5.190  15.914  0.00  0.00    +0.000 A 
BRANCH  18  21
ATOM     21  N   UNL     1       6.466   3.704  12.502  0.00  0.00    +0.000 N 
ATOM     22  O   UNL     1       7.313   4.347  11.867  0.00  0.00    +0.000 OA
ATOM     23  O   UNL     1       5.792   2.773  12.030  0.00  0.00    +0.000 OA
ENDBRANCH  18  21
ENDBRANCH  14  15
ENDBRANCH   5  14
TORSDOF 4
ENDMDL
MODEL 7
REMARK VINA RESULT:      -7.5      3.805      4.606
REMARK  Name = 
REMARK  5 active torsions:
REMARK  status: ('A' for Active; 'I' for Inactive)
REMARK    1  A    between atoms: C_1  and  C_2
REMARK    2  A    between atoms: N_5  and  C_6
REMARK    3  A    between atoms: C_6  and  C_7
REMARK    4  A    between atoms: C_10  and  N_11
REMARK    5  A    between atoms: C_17  and  C_18
REMARK                            x       y       z     vdW  Elec       q    Type
REMARK                         _______ _______ _______ _____ _____    ______ ____
ROOT
ATOM      1  C   UNL     1       6.643   4.459  14.292  0.00  0.00    +0.000 C 
ATOM      2  C   UNL     1       6.321   5.208  15.549  0.00  0.00    +0.000 A 
ATOM      3  N   UNL     1       5.192   5.917  15.572  0.00  0.00    +0.000 NA
ATOM      4  C   UNL     1       4.959   6.616  16.677  0.00  0.00    +0.000 A 
ATOM      5  N   UNL     1       3.854   7.438  16.639  0.00  0.00    +0.000 N 
ATOM      6  N   UNL     1       5.762   6.616  17.728  0.00  0.00    +0.000 NA
ATOM      7  C   UNL     1       6.883   5.873  17.636  0.00  0.00    +0.000 A 
ATOM      8  N   UNL     1       7.198   5.147  16.550  0.00  0.00    +0.000 NA
ATOM      9  H   UNL     1       3.287   7.201  15.826  0.00  0.00    +0.000 HD
ENDROOT
BRANCH   7  10
ATOM     10  C   UNL     1       7.825   5.831  18.841  0.00  0.00    +0.000 C 
ATOM     11  F   UNL     1       8.704   4.784  18.816  0.00  0.00    +0.000 F 
ATOM     12  F   UNL     1       8.603   6.950  18.948  0.00  0.00    +0.000 F 
ATOM     13  F   UNL     1       7.171   5.724  20.039  0.00  0.00    +0.000 F 
ENDBRANCH   7  10
BRANCH   5  14
ATOM     14  C   UNL     1       3.141   7.717  17.871  0.00  0.00    +0.000 C 
BRANCH  14  15
ATOM     15  C   UNL     1       2.604   6.436  18.495  0.00  0.00    +0.000 A 
ATOM     16  C   UNL     1       2.114   5.413  17.659  0.00  0.00    +0.000 A 
ATOM     17  C   UNL     1       1.618   4.217  18.192  0.00  0.00    +0.000 A 
ATOM     18  C   UNL     1       1.617   4.035  19.578  0.00  0.00    +0.000 A 
ATOM     19  C   UNL     1       2.128   5.023  20.428  0.00  0.00    +0.000 A 
ATOM     20  C   UNL     1       2.633   6.204  19.881  0.00  0.00    +0.000 A 
BRANCH  18  21
ATOM     21  N   UNL     1       1.080   2.792  20.156  0.00  0.00    +0.000 N 
ATOM     22  O   UNL     1       0.620   1.946  19.377  0.00  0.00    +0.000 OA
ATOM     23  O   UNL     1       1.113   2.663  21.392  0.00  0.00    +0.000 OA
ENDBRANCH  18  21
ENDBRANCH  14  15
ENDBRANCH   5  14
TORSDOF 4
ENDMDL
MODEL 8
REMARK VINA RESULT:      -7.4      4.608      7.239
REMARK  Name = 
REMARK  5 active torsions:
REMARK  status: ('A' for Active; 'I' for Inactive)
REMARK    1  A    between atoms: C_1  and  C_2
REMARK    2  A    between atoms: N_5  and  C_6
REMARK    3  A    between atoms: C_6  and  C_7
REMARK    4  A    between atoms: C_10  and  N_11
REMARK    5  A    between atoms: C_17  and  C_18
REMARK                            x       y       z     vdW  Elec       q    Type
REMARK                         _______ _______ _______ _____ _____    ______ ____
ROOT
ATOM      1  C   UNL     1       0.155   9.463  22.765  0.00  0.00    +0.000 C 
ATOM      2  C   UNL     1       0.724   8.802  21.546  0.00  0.00    +0.000 A 
ATOM      3  N   UNL     1       1.101   7.528  21.657  0.00  0.00    +0.000 NA
ATOM      4  C   UNL     1       1.654   6.983  20.578  0.00  0.00    +0.000 A 
ATOM      5  N   UNL     1       2.150   5.709  20.744  0.00  0.00    +0.000 N 
ATOM      6  N   UNL     1       1.814   7.625  19.433  0.00  0.00    +0.000 NA
ATOM      7  C   UNL     1       1.405   8.909  19.394  0.00  0.00    +0.000 A 
ATOM      8  N   UNL     1       0.848   9.536  20.443  0.00  0.00    +0.000 NA
ATOM      9  H   UNL     1       1.812   5.329  21.627  0.00  0.00    +0.000 HD
ENDROOT
BRANCH   7  10
ATOM     10  C   UNL     1       1.555   9.676  18.078  0.00  0.00    +0.000 C 
ATOM     11  F   UNL     1       0.364   9.982  17.481  0.00  0.00    +0.000 F 
ATOM     12  F   UNL     1       2.197  10.874  18.231  0.00  0.00    +0.000 F 
ATOM     13  F   UNL     1       2.269   8.996  17.129  0.00  0.00    +0.000 F 
ENDBRANCH   7  10
BRANCH   5  14
ATOM     14  C   UNL     1       2.163   4.806  19.609  0.00  0.00    +0.000 C 
BRANCH  14  15
ATOM     15  C   UNL     1       3.488   4.883  18.862  0.00  0.00    +0.000 A 
ATOM     16  C   UNL     1       4.665   5.183  19.575  0.00  0.00    +0.000 A 
ATOM     17  C   UNL     1       5.905   5.256  18.928  0.00  0.00    +0.000 A 
ATOM     18  C   UNL     1       5.973   5.020  17.552  0.00  0.00    +0.000 A 
ATOM     19  C   UNL     1       4.822   4.689  16.827  0.00  0.00    +0.000 A 
ATOM     20  C   UNL     1       3.596   4.605  17.489  0.00  0.00    +0.000 A 
BRANCH  18  21
ATOM     21  N   UNL     1       7.265   5.114  16.852  0.00  0.00    +0.000 N 
ATOM     22  O   UNL     1       7.416   6.042  16.045  0.00  0.00    +0.000 OA
ATOM     23  O   UNL     1       8.128   4.258  17.107  0.00  0.00    +0.000 OA
ENDBRANCH  18  21
ENDBRANCH  14  15
ENDBRANCH   5  14
TORSDOF 4
ENDMDL
MODEL 9
REMARK VINA RESULT:      -7.4      4.770      7.344
REMARK  Name = 
REMARK  5 active torsions:
REMARK  status: ('A' for Active; 'I' for Inactive)
REMARK    1  A    between atoms: C_1  and  C_2
REMARK    2  A    between atoms: N_5  and  C_6
REMARK    3  A    between atoms: C_6  and  C_7
REMARK    4  A    between atoms: C_10  and  N_11
REMARK    5  A    between atoms: C_17  and  C_18
REMARK                            x       y       z     vdW  Elec       q    Type
REMARK                         _______ _______ _______ _____ _____    ______ ____
ROOT
ATOM      1  C   UNL     1      -0.008   9.745  23.162  0.00  0.00    +0.000 C 
ATOM      2  C   UNL     1       0.508   9.204  21.863  0.00  0.00    +0.000 A 
ATOM      3  N   UNL     1       1.025   7.974  21.870  0.00  0.00    +0.000 NA
ATOM      4  C   UNL     1       1.526   7.541  20.718  0.00  0.00    +0.000 A 
ATOM      5  N   UNL     1       2.165   6.322  20.769  0.00  0.00    +0.000 N 
ATOM      6  N   UNL     1       1.509   8.247  19.600  0.00  0.00    +0.000 NA
ATOM      7  C   UNL     1       0.967   9.480  19.667  0.00  0.00    +0.000 A 
ATOM      8  N   UNL     1       0.451   9.996  20.795  0.00  0.00    +0.000 NA
ATOM      9  H   UNL     1       1.953   5.869  21.657  0.00  0.00    +0.000 HD
ENDROOT
BRANCH   7  10
ATOM     10  C   UNL     1       0.911  10.317  18.387  0.00  0.00    +0.000 C 
ATOM     11  F   UNL     1       1.947  10.078  17.528  0.00  0.00    +0.000 F 
ATOM     12  F   UNL     1      -0.221  10.093  17.654  0.00  0.00    +0.000 F 
ATOM     13  F   UNL     1       0.939  11.666  18.617  0.00  0.00    +0.000 F 
ENDBRANCH   7  10
BRANCH   5  14
ATOM     14  C   UNL     1       2.163   5.477  19.590  0.00  0.00    +0.000 C 
BRANCH  14  15
ATOM     15  C   UNL     1       3.521   5.497  18.900  0.00  0.00    +0.000 A 
ATOM     16  C   UNL     1       3.681   6.238  17.712  0.00  0.00    +0.000 A 
ATOM     17  C   UNL     1       4.914   6.289  17.050  0.00  0.00    +0.000 A 
ATOM     18  C   UNL     1       6.004   5.597  17.584  0.00  0.00    +0.000 A 
ATOM     19  C   UNL     1       5.879   4.880  18.779  0.00  0.00    +0.000 A 
ATOM     20  C   UNL     1       4.648   4.851  19.436  0.00  0.00    +0.000 A 
BRANCH  18  21
ATOM     21  N   UNL     1       7.302   5.622  16.889  0.00  0.00    +0.000 N 
ATOM     22  O   UNL     1       7.699   6.710  16.448  0.00  0.00    +0.000 OA
ATOM     23  O   UNL     1       7.925   4.552  16.781  0.00  0.00    +0.000 OA
ENDBRANCH  18  21
ENDBRANCH  14  15
ENDBRANCH   5  14
TORSDOF 4
ENDMDL
