MODEL 1
REMARK VINA RESULT:      -8.2      0.000      0.000
REMARK  Name = 
REMARK  11 active torsions:
REMARK  status: ('A' for Active; 'I' for Inactive)
REMARK    1  A    between atoms: C_1  and  O_2
REMARK    2  A    between atoms: O_2  and  C_3
REMARK    3  A    between atoms: C_6  and  C_7
REMARK    4  A    between atoms: C_7  and  C_8
REMARK    5  A    between atoms: C_8  and  N_9
REMARK    6  A    between atoms: C_10  and  C_12
REMARK    7  A    between atoms: C_12  and  N_13
REMARK    8  A    between atoms: N_20  and  C_21
REMARK    9  A    between atoms: C_21  and  C_22
REMARK   10  A    between atoms: C_32  and  O_33
REMARK   11  A    between atoms: O_33  and  C_34
REMARK                            x       y       z     vdW  Elec       q    Type
REMARK                         _______ _______ _______ _____ _____    ______ ____
ROOT
ATOM      1  N   UNL     1      -0.612  11.907  21.315  0.00  0.00    +0.000 N 
ATOM      2  C   UNL     1      -1.330  12.657  20.380  0.00  0.00    +0.000 A 
ATOM      3  N   UNL     1      -2.538  13.122  20.535  0.00  0.00    +0.000 NA
ATOM      4  C   UNL     1      -3.070  12.797  21.737  0.00  0.00    +0.000 A 
ATOM      5  C   UNL     1      -2.485  12.082  22.751  0.00  0.00    +0.000 A 
ATOM      6  N   UNL     1      -3.340  11.947  23.801  0.00  0.00    +0.000 NA
ATOM      7  N   UNL     1      -4.485  12.539  23.459  0.00  0.00    +0.000 NA
ATOM      8  N   UNL     1      -4.331  13.046  22.208  0.00  0.00    +0.000 N 
ATOM      9  C   UNL     1      -1.155  11.568  22.567  0.00  0.00    +0.000 A 
ATOM     10  O   UNL     1      -0.547  10.908  23.407  0.00  0.00    +0.000 OA
ENDROOT
BRANCH   1  11
ATOM     11  C   UNL     1       0.738  11.447  21.008  0.00  0.00    +0.000 C 
BRANCH  11  13
ATOM     12  N   UNL     1       1.411  10.210  18.973  0.00  0.00    +0.000 N 
ATOM     13  C   UNL     1       0.706  10.170  20.162  0.00  0.00    +0.000 C 
ATOM     14  O   UNL     1       0.062   9.185  20.519  0.00  0.00    +0.000 OA
ATOM     15  H   UNL     1       2.003  11.004  18.757  0.00  0.00    +0.000 HD
BRANCH  12  16
ATOM     16  C   UNL     1       1.375   9.079  18.052  0.00  0.00    +0.000 C 
BRANCH  16  17
ATOM     17  C   UNL     1       2.717   8.357  17.889  0.00  0.00    +0.000 C 
BRANCH  17  21
ATOM     18  C   UNL     1       2.421   4.365  19.559  0.00  0.00    +0.000 A 
ATOM     19  C   UNL     1       2.134   5.496  20.341  0.00  0.00    +0.000 A 
ATOM     20  C   UNL     1       2.241   6.787  19.815  0.00  0.00    +0.000 A 
ATOM     21  C   UNL     1       2.685   6.978  18.505  0.00  0.00    +0.000 A 
ATOM     22  C   UNL     1       3.055   5.849  17.758  0.00  0.00    +0.000 A 
ATOM     23  C   UNL     1       2.933   4.544  18.267  0.00  0.00    +0.000 A 
BRANCH  18  25
ATOM     24  C   UNL     1       1.580   3.020  21.321  0.00  0.00    +0.000 C 
ATOM     25  O   UNL     1       2.232   3.100  20.051  0.00  0.00    +0.000 OA
ENDBRANCH  18  25
BRANCH  23  26
ATOM     26  O   UNL     1       3.336   3.604  17.356  0.00  0.00    +0.000 OA
ATOM     27  C   UNL     1       4.664   3.637  16.858  0.00  0.00    +0.000 C 
ENDBRANCH  23  26
ENDBRANCH  17  21
ENDBRANCH  16  17
ENDBRANCH  12  16
ENDBRANCH  11  13
ENDBRANCH   1  11
BRANCH   8  28
ATOM     28  C   UNL     1      -5.480  13.572  21.489  0.00  0.00    +0.000 C 
BRANCH  28  29
ATOM     29  C   UNL     1      -5.982  12.636  20.423  0.00  0.00    +0.000 A 
ATOM     30  C   UNL     1      -5.620  12.787  19.075  0.00  0.00    +0.000 A 
ATOM     31  C   UNL     1      -6.102  11.902  18.106  0.00  0.00    +0.000 A 
ATOM     32  C   UNL     1      -6.961  10.865  18.468  0.00  0.00    +0.000 A 
ATOM     33  C   UNL     1      -7.351  10.722  19.797  0.00  0.00    +0.000 A 
ATOM     34  C   UNL     1      -6.866  11.606  20.758  0.00  0.00    +0.000 A 
ATOM     35  F   UNL     1      -7.277  11.463  22.026  0.00  0.00    +0.000 F 
ENDBRANCH  28  29
ENDBRANCH   8  28
TORSDOF 9
ENDMDL
MODEL 2
REMARK VINA RESULT:      -7.7      1.171      1.422
REMARK  Name = 
REMARK  11 active torsions:
REMARK  status: ('A' for Active; 'I' for Inactive)
REMARK    1  A    between atoms: C_1  and  O_2
REMARK    2  A    between atoms: O_2  and  C_3
REMARK    3  A    between atoms: C_6  and  C_7
REMARK    4  A    between atoms: C_7  and  C_8
REMARK    5  A    between atoms: C_8  and  N_9
REMARK    6  A    between atoms: C_10  and  C_12
REMARK    7  A    between atoms: C_12  and  N_13
REMARK    8  A    between atoms: N_20  and  C_21
REMARK    9  A    between atoms: C_21  and  C_22
REMARK   10  A    between atoms: C_32  and  O_33
REMARK   11  A    between atoms: O_33  and  C_34
REMARK                            x       y       z     vdW  Elec       q    Type
REMARK                         _______ _______ _______ _____ _____    ______ ____
ROOT
ATOM      1  N   UNL     1      -0.763  12.057  21.460  0.00  0.00    +0.000 N 
ATOM      2  C   UNL     1      -1.451  12.911  20.592  0.00  0.00    +0.000 A 
ATOM      3  N   UNL     1      -2.653  13.381  20.774  0.00  0.00    +0.000 NA
ATOM      4  C   UNL     1      -3.211  12.951  21.931  0.00  0.00    +0.000 A 
ATOM      5  C   UNL     1      -2.657  12.128  22.878  0.00  0.00    +0.000 A 
ATOM      6  N   UNL     1      -3.531  11.909  23.897  0.00  0.00    +0.000 NA
ATOM      7  N   UNL     1      -4.659  12.554  23.597  0.00  0.00    +0.000 NA
ATOM      8  N   UNL     1      -4.476  13.178  22.404  0.00  0.00    +0.000 N 
ATOM      9  C   UNL     1      -1.334  11.609  22.664  0.00  0.00    +0.000 A 
ATOM     10  O   UNL     1      -0.752  10.858  23.445  0.00  0.00    +0.000 OA
ENDROOT
BRANCH   1  11
ATOM     11  C   UNL     1       0.583  11.604  21.130  0.00  0.00    +0.000 C 
BRANCH  11  13
ATOM     12  N   UNL     1       1.057   9.187  21.386  0.00  0.00    +0.000 N 
ATOM     13  C   UNL     1       0.561  10.181  20.561  0.00  0.00    +0.000 C 
ATOM     14  O   UNL     1       0.150   9.955  19.424  0.00  0.00    +0.000 OA
ATOM     15  H   UNL     1       1.299   9.398  22.348  0.00  0.00    +0.000 HD
BRANCH  12  16
ATOM     16  C   UNL     1       1.161   7.813  20.910  0.00  0.00    +0.000 C 
BRANCH  16  17
ATOM     17  C   UNL     1       2.143   7.622  19.748  0.00  0.00    +0.000 C 
BRANCH  17  21
ATOM     18  C   UNL     1       3.670   3.567  19.537  0.00  0.00    +0.000 A 
ATOM     19  C   UNL     1       2.716   3.928  20.502  0.00  0.00    +0.000 A 
ATOM     20  C   UNL     1       2.230   5.236  20.587  0.00  0.00    +0.000 A 
ATOM     21  C   UNL     1       2.723   6.226  19.736  0.00  0.00    +0.000 A 
ATOM     22  C   UNL     1       3.739   5.879  18.833  0.00  0.00    +0.000 A 
ATOM     23  C   UNL     1       4.224   4.564  18.723  0.00  0.00    +0.000 A 
BRANCH  18  25
ATOM     24  C   UNL     1       3.430   1.517  18.370  0.00  0.00    +0.000 C 
ATOM     25  O   UNL     1       4.080   2.267  19.400  0.00  0.00    +0.000 OA
ENDBRANCH  18  25
BRANCH  23  26
ATOM     26  O   UNL     1       5.198   4.461  17.766  0.00  0.00    +0.000 OA
ATOM     27  C   UNL     1       6.547   4.731  18.109  0.00  0.00    +0.000 C 
ENDBRANCH  23  26
ENDBRANCH  17  21
ENDBRANCH  16  17
ENDBRANCH  12  16
ENDBRANCH  11  13
ENDBRANCH   1  11
BRANCH   8  28
ATOM     28  C   UNL     1      -5.602  13.795  21.724  0.00  0.00    +0.000 C 
BRANCH  28  29
ATOM     29  C   UNL     1      -6.092  12.987  20.553  0.00  0.00    +0.000 A 
ATOM     30  C   UNL     1      -5.759  13.322  19.231  0.00  0.00    +0.000 A 
ATOM     31  C   UNL     1      -6.228  12.553  18.162  0.00  0.00    +0.000 A 
ATOM     32  C   UNL     1      -7.046  11.449  18.399  0.00  0.00    +0.000 A 
ATOM     33  C   UNL     1      -7.407  11.122  19.703  0.00  0.00    +0.000 A 
ATOM     34  C   UNL     1      -6.935  11.891  20.763  0.00  0.00    +0.000 A 
ATOM     35  F   UNL     1      -7.319  11.572  22.007  0.00  0.00    +0.000 F 
ENDBRANCH  28  29
ENDBRANCH   8  28
TORSDOF 9
ENDMDL
MODEL 3
REMARK VINA RESULT:      -7.6      2.838      4.627
REMARK  Name = 
REMARK  11 active torsions:
REMARK  status: ('A' for Active; 'I' for Inactive)
REMARK    1  A    between atoms: C_1  and  O_2
REMARK    2  A    between atoms: O_2  and  C_3
REMARK    3  A    between atoms: C_6  and  C_7
REMARK    4  A    between atoms: C_7  and  C_8
REMARK    5  A    between atoms: C_8  and  N_9
REMARK    6  A    between atoms: C_10  and  C_12
REMARK    7  A    between atoms: C_12  and  N_13
REMARK    8  A    between atoms: N_20  and  C_21
REMARK    9  A    between atoms: C_21  and  C_22
REMARK   10  A    between atoms: C_32  and  O_33
REMARK   11  A    between atoms: O_33  and  C_34
REMARK                            x       y       z     vdW  Elec       q    Type
REMARK                         _______ _______ _______ _____ _____    ______ ____
ROOT
ATOM      1  N   UNL     1       0.627  10.458  18.717  0.00  0.00    +0.000 N 
ATOM      2  C   UNL     1       0.832  11.317  19.800  0.00  0.00    +0.000 A 
ATOM      3  N   UNL     1      -0.080  12.038  20.389  0.00  0.00    +0.000 NA
ATOM      4  C   UNL     1      -1.306  11.881  19.835  0.00  0.00    +0.000 A 
ATOM      5  C   UNL     1      -1.658  11.071  18.786  0.00  0.00    +0.000 A 
ATOM      6  N   UNL     1      -2.983  11.194  18.505  0.00  0.00    +0.000 NA
ATOM      7  N   UNL     1      -3.482  12.104  19.342  0.00  0.00    +0.000 NA
ATOM      8  N   UNL     1      -2.471  12.531  20.142  0.00  0.00    +0.000 N 
ATOM      9  C   UNL     1      -0.643  10.286  18.138  0.00  0.00    +0.000 A 
ATOM     10  O   UNL     1      -0.850   9.538  17.185  0.00  0.00    +0.000 OA
ENDROOT
BRANCH   1  11
ATOM     11  C   UNL     1       1.744   9.709  18.152  0.00  0.00    +0.000 C 
BRANCH  11  13
ATOM     12  N   UNL     1       2.366   7.315  18.053  0.00  0.00    +0.000 N 
ATOM     13  C   UNL     1       1.904   8.351  18.844  0.00  0.00    +0.000 C 
ATOM     14  O   UNL     1       1.605   8.200  20.027  0.00  0.00    +0.000 OA
ATOM     15  H   UNL     1       2.689   7.499  17.110  0.00  0.00    +0.000 HD
BRANCH  12  16
ATOM     16  C   UNL     1       2.472   5.964  18.590  0.00  0.00    +0.000 C 
BRANCH  16  17
ATOM     17  C   UNL     1       3.844   5.627  19.184  0.00  0.00    +0.000 C 
BRANCH  17  21
ATOM     18  C   UNL     1       6.716   5.278  15.951  0.00  0.00    +0.000 A 
ATOM     19  C   UNL     1       5.829   4.229  16.243  0.00  0.00    +0.000 A 
ATOM     20  C   UNL     1       4.911   4.328  17.292  0.00  0.00    +0.000 A 
ATOM     21  C   UNL     1       4.891   5.462  18.106  0.00  0.00    +0.000 A 
ATOM     22  C   UNL     1       5.838   6.468  17.865  0.00  0.00    +0.000 A 
ATOM     23  C   UNL     1       6.755   6.392  16.801  0.00  0.00    +0.000 A 
BRANCH  18  25
ATOM     24  C   UNL     1       6.987   4.665  13.677  0.00  0.00    +0.000 C 
ATOM     25  O   UNL     1       7.554   5.214  14.870  0.00  0.00    +0.000 OA
ENDBRANCH  18  25
BRANCH  23  26
ATOM     26  O   UNL     1       7.567   7.494  16.752  0.00  0.00    +0.000 OA
ATOM     27  C   UNL     1       8.034   8.073  17.959  0.00  0.00    +0.000 C 
ENDBRANCH  23  26
ENDBRANCH  17  21
ENDBRANCH  16  17
ENDBRANCH  12  16
ENDBRANCH  11  13
ENDBRANCH   1  11
BRANCH   8  28
ATOM     28  C   UNL     1      -2.668  13.671  21.021  0.00  0.00    +0.000 C 
BRANCH  28  29
ATOM     29  C   UNL     1      -3.572  13.363  22.184  0.00  0.00    +0.000 A 
ATOM     30  C   UNL     1      -3.130  12.614  23.286  0.00  0.00    +0.000 A 
ATOM     31  C   UNL     1      -3.991  12.342  24.354  0.00  0.00    +0.000 A 
ATOM     32  C   UNL     1      -5.307  12.804  24.328  0.00  0.00    +0.000 A 
ATOM     33  C   UNL     1      -5.766  13.523  23.228  0.00  0.00    +0.000 A 
ATOM     34  C   UNL     1      -4.903  13.791  22.169  0.00  0.00    +0.000 A 
ATOM     35  F   UNL     1      -5.377  14.462  21.110  0.00  0.00    +0.000 F 
ENDBRANCH  28  29
ENDBRANCH   8  28
TORSDOF 9
ENDMDL
MODEL 4
REMARK VINA RESULT:      -7.6      2.619      3.886
REMARK  Name = 
REMARK  11 active torsions:
REMARK  status: ('A' for Active; 'I' for Inactive)
REMARK    1  A    between atoms: C_1  and  O_2
REMARK    2  A    between atoms: O_2  and  C_3
REMARK    3  A    between atoms: C_6  and  C_7
REMARK    4  A    between atoms: C_7  and  C_8
REMARK    5  A    between atoms: C_8  and  N_9
REMARK    6  A    between atoms: C_10  and  C_12
REMARK    7  A    between atoms: C_12  and  N_13
REMARK    8  A    between atoms: N_20  and  C_21
REMARK    9  A    between atoms: C_21  and  C_22
REMARK   10  A    between atoms: C_32  and  O_33
REMARK   11  A    between atoms: O_33  and  C_34
REMARK                            x       y       z     vdW  Elec       q    Type
REMARK                         _______ _______ _______ _____ _____    ______ ____
ROOT
ATOM      1  N   UNL     1       0.313   9.488  21.594  0.00  0.00    +0.000 N 
ATOM      2  C   UNL     1      -0.056   9.911  20.314  0.00  0.00    +0.000 A 
ATOM      3  N   UNL     1      -0.775  10.961  20.032  0.00  0.00    +0.000 NA
ATOM      4  C   UNL     1      -1.158  11.642  21.138  0.00  0.00    +0.000 A 
ATOM      5  C   UNL     1      -0.865  11.355  22.447  0.00  0.00    +0.000 A 
ATOM      6  N   UNL     1      -1.441  12.263  23.280  0.00  0.00    +0.000 NA
ATOM      7  N   UNL     1      -2.135  13.113  22.522  0.00  0.00    +0.000 NA
ATOM      8  N   UNL     1      -1.976  12.736  21.226  0.00  0.00    +0.000 N 
ATOM      9  C   UNL     1      -0.077  10.191  22.748  0.00  0.00    +0.000 A 
ATOM     10  O   UNL     1       0.232   9.840  23.884  0.00  0.00    +0.000 OA
ENDROOT
BRANCH   1  11
ATOM     11  C   UNL     1       1.123   8.287  21.765  0.00  0.00    +0.000 C 
BRANCH  11  13
ATOM     12  N   UNL     1       2.002   6.500  20.294  0.00  0.00    +0.000 N 
ATOM     13  C   UNL     1       1.753   7.853  20.437  0.00  0.00    +0.000 C 
ATOM     14  O   UNL     1       2.043   8.677  19.571  0.00  0.00    +0.000 OA
ATOM     15  H   UNL     1       1.666   5.844  20.990  0.00  0.00    +0.000 HD
BRANCH  12  16
ATOM     16  C   UNL     1       2.678   5.993  19.106  0.00  0.00    +0.000 C 
BRANCH  16  17
ATOM     17  C   UNL     1       4.068   5.406  19.374  0.00  0.00    +0.000 C 
BRANCH  17  21
ATOM     18  C   UNL     1       6.256   5.201  15.634  0.00  0.00    +0.000 A 
ATOM     19  C   UNL     1       5.183   4.331  15.890  0.00  0.00    +0.000 A 
ATOM     20  C   UNL     1       4.482   4.381  17.098  0.00  0.00    +0.000 A 
ATOM     21  C   UNL     1       4.870   5.272  18.100  0.00  0.00    +0.000 A 
ATOM     22  C   UNL     1       5.998   6.076  17.874  0.00  0.00    +0.000 A 
ATOM     23  C   UNL     1       6.700   6.051  16.656  0.00  0.00    +0.000 A 
BRANCH  18  25
ATOM     24  C   UNL     1       6.554   4.127  13.542  0.00  0.00    +0.000 C 
ATOM     25  O   UNL     1       6.884   5.208  14.417  0.00  0.00    +0.000 OA
ENDBRANCH  18  25
BRANCH  23  26
ATOM     26  O   UNL     1       7.750   6.930  16.658  0.00  0.00    +0.000 OA
ATOM     27  C   UNL     1       7.749   8.018  17.568  0.00  0.00    +0.000 C 
ENDBRANCH  23  26
ENDBRANCH  17  21
ENDBRANCH  16  17
ENDBRANCH  12  16
ENDBRANCH  11  13
ENDBRANCH   1  11
BRANCH   8  28
ATOM     28  C   UNL     1      -2.778  13.355  20.184  0.00  0.00    +0.000 C 
BRANCH  28  29
ATOM     29  C   UNL     1      -4.048  12.599  19.898  0.00  0.00    +0.000 A 
ATOM     30  C   UNL     1      -5.120  12.584  20.803  0.00  0.00    +0.000 A 
ATOM     31  C   UNL     1      -6.288  11.874  20.511  0.00  0.00    +0.000 A 
ATOM     32  C   UNL     1      -6.394  11.159  19.318  0.00  0.00    +0.000 A 
ATOM     33  C   UNL     1      -5.327  11.142  18.425  0.00  0.00    +0.000 A 
ATOM     34  C   UNL     1      -4.167  11.853  18.722  0.00  0.00    +0.000 A 
ATOM     35  F   UNL     1      -3.144  11.799  17.857  0.00  0.00    +0.000 F 
ENDBRANCH  28  29
ENDBRANCH   8  28
TORSDOF 9
ENDMDL
MODEL 5
REMARK VINA RESULT:      -7.5      8.326     11.814
REMARK  Name = 
REMARK  11 active torsions:
REMARK  status: ('A' for Active; 'I' for Inactive)
REMARK    1  A    between atoms: C_1  and  O_2
REMARK    2  A    between atoms: O_2  and  C_3
REMARK    3  A    between atoms: C_6  and  C_7
REMARK    4  A    between atoms: C_7  and  C_8
REMARK    5  A    between atoms: C_8  and  N_9
REMARK    6  A    between atoms: C_10  and  C_12
REMARK    7  A    between atoms: C_12  and  N_13
REMARK    8  A    between atoms: N_20  and  C_21
REMARK    9  A    between atoms: C_21  and  C_22
REMARK   10  A    between atoms: C_32  and  O_33
REMARK   11  A    between atoms: O_33  and  C_34
REMARK                            x       y       z     vdW  Elec       q    Type
REMARK                         _______ _______ _______ _____ _____    ______ ____
ROOT
ATOM      1  N   UNL     1       6.958   5.651  18.311  0.00  0.00    +0.000 N 
ATOM      2  C   UNL     1       5.805   5.781  19.091  0.00  0.00    +0.000 A 
ATOM      3  N   UNL     1       4.646   5.239  18.840  0.00  0.00    +0.000 NA
ATOM      4  C   UNL     1       4.649   4.507  17.701  0.00  0.00    +0.000 A 
ATOM      5  C   UNL     1       5.699   4.282  16.847  0.00  0.00    +0.000 A 
ATOM      6  N   UNL     1       5.311   3.506  15.800  0.00  0.00    +0.000 NA
ATOM      7  N   UNL     1       4.010   3.257  15.952  0.00  0.00    +0.000 NA
ATOM      8  N   UNL     1       3.601   3.868  17.094  0.00  0.00    +0.000 N 
ATOM      9  C   UNL     1       6.971   4.890  17.128  0.00  0.00    +0.000 A 
ATOM     10  O   UNL     1       7.970   4.761  16.424  0.00  0.00    +0.000 OA
ENDROOT
BRANCH   1  11
ATOM     11  C   UNL     1       8.194   6.316  18.710  0.00  0.00    +0.000 C 
BRANCH  11  13
ATOM     12  N   UNL     1       8.896   8.668  19.032  0.00  0.00    +0.000 N 
ATOM     13  C   UNL     1       8.217   7.771  18.228  0.00  0.00    +0.000 C 
ATOM     14  O   UNL     1       7.635   8.110  17.199  0.00  0.00    +0.000 OA
ATOM     15  H   UNL     1       9.439   8.336  19.821  0.00  0.00    +0.000 HD
BRANCH  12  16
ATOM     16  C   UNL     1       8.906  10.090  18.710  0.00  0.00    +0.000 C 
BRANCH  16  17
ATOM     17  C   UNL     1       9.896  10.917  19.539  0.00  0.00    +0.000 C 
BRANCH  17  21
ATOM     18  C   UNL     1      10.833  14.546  17.356  0.00  0.00    +0.000 A 
ATOM     19  C   UNL     1      11.664  13.418  17.269  0.00  0.00    +0.000 A 
ATOM     20  C   UNL     1      11.378  12.250  17.981  0.00  0.00    +0.000 A 
ATOM     21  C   UNL     1      10.275  12.199  18.835  0.00  0.00    +0.000 A 
ATOM     22  C   UNL     1       9.499  13.358  18.986  0.00  0.00    +0.000 A 
ATOM     23  C   UNL     1       9.763  14.534  18.261  0.00  0.00    +0.000 A 
BRANCH  18  25
ATOM     24  C   UNL     1      11.932  16.639  17.172  0.00  0.00    +0.000 C 
ATOM     25  O   UNL     1      11.068  15.658  16.591  0.00  0.00    +0.000 OA
ENDBRANCH  18  25
BRANCH  23  26
ATOM     26  O   UNL     1       8.865  15.525  18.558  0.00  0.00    +0.000 OA
ATOM     27  C   UNL     1       7.673  15.203  19.254  0.00  0.00    +0.000 C 
ENDBRANCH  23  26
ENDBRANCH  17  21
ENDBRANCH  16  17
ENDBRANCH  12  16
ENDBRANCH  11  13
ENDBRANCH   1  11
BRANCH   8  28
ATOM     28  C   UNL     1       2.186   3.942  17.415  0.00  0.00    +0.000 C 
BRANCH  28  29
ATOM     29  C   UNL     1       1.889   3.563  18.841  0.00  0.00    +0.000 A 
ATOM     30  C   UNL     1       1.804   2.222  19.247  0.00  0.00    +0.000 A 
ATOM     31  C   UNL     1       1.527   1.898  20.579  0.00  0.00    +0.000 A 
ATOM     32  C   UNL     1       1.318   2.908  21.517  0.00  0.00    +0.000 A 
ATOM     33  C   UNL     1       1.371   4.242  21.121  0.00  0.00    +0.000 A 
ATOM     34  C   UNL     1       1.649   4.557  19.794  0.00  0.00    +0.000 A 
ATOM     35  F   UNL     1       1.668   5.848  19.432  0.00  0.00    +0.000 F 
ENDBRANCH  28  29
ENDBRANCH   8  28
TORSDOF 9
ENDMDL
MODEL 6
REMARK VINA RESULT:      -7.5      5.290     12.029
REMARK  Name = 
REMARK  11 active torsions:
REMARK  status: ('A' for Active; 'I' for Inactive)
REMARK    1  A    between atoms: C_1  and  O_2
REMARK    2  A    between atoms: O_2  and  C_3
REMARK    3  A    between atoms: C_6  and  C_7
REMARK    4  A    between atoms: C_7  and  C_8
REMARK    5  A    between atoms: C_8  and  N_9
REMARK    6  A    between atoms: C_10  and  C_12
REMARK    7  A    between atoms: C_12  and  N_13
REMARK    8  A    between atoms: N_20  and  C_21
REMARK    9  A    between atoms: C_21  and  C_22
REMARK   10  A    between atoms: C_32  and  O_33
REMARK   11  A    between atoms: O_33  and  C_34
REMARK                            x       y       z     vdW  Elec       q    Type
REMARK                         _______ _______ _______ _____ _____    ______ ____
ROOT
ATOM      1  N   UNL     1       4.536   4.110  18.139  0.00  0.00    +0.000 N 
ATOM      2  C   UNL     1       3.826   4.002  16.940  0.00  0.00    +0.000 A 
ATOM      3  N   UNL     1       4.326   4.120  15.741  0.00  0.00    +0.000 NA
ATOM      4  C   UNL     1       5.656   4.373  15.754  0.00  0.00    +0.000 A 
ATOM      5  C   UNL     1       6.480   4.493  16.844  0.00  0.00    +0.000 A 
ATOM      6  N   UNL     1       7.755   4.764  16.457  0.00  0.00    +0.000 NA
ATOM      7  N   UNL     1       7.755   4.854  15.127  0.00  0.00    +0.000 NA
ATOM      8  N   UNL     1       6.486   4.629  14.696  0.00  0.00    +0.000 N 
ATOM      9  C   UNL     1       5.918   4.369  18.162  0.00  0.00    +0.000 A 
ATOM     10  O   UNL     1       6.566   4.470  19.202  0.00  0.00    +0.000 OA
ENDROOT
BRANCH   1  11
ATOM     11  C   UNL     1       3.848   3.957  19.416  0.00  0.00    +0.000 C 
BRANCH  11  13
ATOM     12  N   UNL     1       3.051   6.253  19.888  0.00  0.00    +0.000 N 
ATOM     13  C   UNL     1       2.697   4.961  19.545  0.00  0.00    +0.000 C 
ATOM     14  O   UNL     1       1.528   4.615  19.379  0.00  0.00    +0.000 OA
ATOM     15  H   UNL     1       4.028   6.521  19.925  0.00  0.00    +0.000 HD
BRANCH  12  16
ATOM     16  C   UNL     1       2.027   7.265  20.120  0.00  0.00    +0.000 C 
BRANCH  16  17
ATOM     17  C   UNL     1       1.950   8.345  19.035  0.00  0.00    +0.000 C 
BRANCH  17  21
ATOM     18  C   UNL     1      -0.904  11.497  19.894  0.00  0.00    +0.000 A 
ATOM     19  C   UNL     1      -0.113  10.944  20.914  0.00  0.00    +0.000 A 
ATOM     20  C   UNL     1       0.799   9.918  20.649  0.00  0.00    +0.000 A 
ATOM     21  C   UNL     1       0.906   9.388  19.362  0.00  0.00    +0.000 A 
ATOM     22  C   UNL     1       0.050   9.883  18.366  0.00  0.00    +0.000 A 
ATOM     23  C   UNL     1      -0.857  10.928  18.614  0.00  0.00    +0.000 A 
BRANCH  18  25
ATOM     24  C   UNL     1      -1.130  13.852  20.039  0.00  0.00    +0.000 C 
ATOM     25  O   UNL     1      -1.733  12.559  20.140  0.00  0.00    +0.000 OA
ENDBRANCH  18  25
BRANCH  23  26
ATOM     26  O   UNL     1      -1.572  11.256  17.492  0.00  0.00    +0.000 OA
ATOM     27  C   UNL     1      -2.989  11.209  17.527  0.00  0.00    +0.000 C 
ENDBRANCH  23  26
ENDBRANCH  17  21
ENDBRANCH  16  17
ENDBRANCH  12  16
ENDBRANCH  11  13
ENDBRANCH   1  11
BRANCH   8  28
ATOM     28  C   UNL     1       6.137   4.863  13.305  0.00  0.00    +0.000 C 
BRANCH  28  29
ATOM     29  C   UNL     1       6.261   3.627  12.456  0.00  0.00    +0.000 A 
ATOM     30  C   UNL     1       7.509   3.144  12.031  0.00  0.00    +0.000 A 
ATOM     31  C   UNL     1       7.596   1.992  11.243  0.00  0.00    +0.000 A 
ATOM     32  C   UNL     1       6.437   1.318  10.857  0.00  0.00    +0.000 A 
ATOM     33  C   UNL     1       5.192   1.803  11.248  0.00  0.00    +0.000 A 
ATOM     34  C   UNL     1       5.113   2.949  12.034  0.00  0.00    +0.000 A 
ATOM     35  F   UNL     1       3.902   3.411  12.375  0.00  0.00    +0.000 F 
ENDBRANCH  28  29
ENDBRANCH   8  28
TORSDOF 9
ENDMDL
MODEL 7
REMARK VINA RESULT:      -7.5      5.712     12.056
REMARK  Name = 
REMARK  11 active torsions:
REMARK  status: ('A' for Active; 'I' for Inactive)
REMARK    1  A    between atoms: C_1  and  O_2
REMARK    2  A    between atoms: O_2  and  C_3
REMARK    3  A    between atoms: C_6  and  C_7
REMARK    4  A    between atoms: C_7  and  C_8
REMARK    5  A    between atoms: C_8  and  N_9
REMARK    6  A    between atoms: C_10  and  C_12
REMARK    7  A    between atoms: C_12  and  N_13
REMARK    8  A    between atoms: N_20  and  C_21
REMARK    9  A    between atoms: C_21  and  C_22
REMARK   10  A    between atoms: C_32  and  O_33
REMARK   11  A    between atoms: O_33  and  C_34
REMARK                            x       y       z     vdW  Elec       q    Type
REMARK                         _______ _______ _______ _____ _____    ______ ____
ROOT
ATOM      1  N   UNL     1       4.387   4.437  18.570  0.00  0.00    +0.000 N 
ATOM      2  C   UNL     1       3.558   4.344  17.449  0.00  0.00    +0.000 A 
ATOM      3  N   UNL     1       3.947   4.358  16.205  0.00  0.00    +0.000 NA
ATOM      4  C   UNL     1       5.290   4.481  16.081  0.00  0.00    +0.000 A 
ATOM      5  C   UNL     1       6.223   4.571  17.082  0.00  0.00    +0.000 A 
ATOM      6  N   UNL     1       7.474   4.699  16.564  0.00  0.00    +0.000 NA
ATOM      7  N   UNL     1       7.353   4.729  15.237  0.00  0.00    +0.000 NA
ATOM      8  N   UNL     1       6.033   4.608  14.938  0.00  0.00    +0.000 N 
ATOM      9  C   UNL     1       5.783   4.562  18.451  0.00  0.00    +0.000 A 
ATOM     10  O   UNL     1       6.535   4.647  19.419  0.00  0.00    +0.000 OA
ENDROOT
BRANCH   1  11
ATOM     11  C   UNL     1       3.815   4.410  19.912  0.00  0.00    +0.000 C 
BRANCH  11  13
ATOM     12  N   UNL     1       2.834   6.682  19.950  0.00  0.00    +0.000 N 
ATOM     13  C   UNL     1       2.588   5.323  20.005  0.00  0.00    +0.000 C 
ATOM     14  O   UNL     1       1.458   4.858  20.151  0.00  0.00    +0.000 OA
ATOM     15  H   UNL     1       3.764   7.024  19.737  0.00  0.00    +0.000 HD
BRANCH  12  16
ATOM     16  C   UNL     1       1.746   7.639  20.117  0.00  0.00    +0.000 C 
BRANCH  16  17
ATOM     17  C   UNL     1       1.337   7.880  21.575  0.00  0.00    +0.000 C 
BRANCH  17  21
ATOM     18  C   UNL     1      -1.004  11.506  22.004  0.00  0.00    +0.000 A 
ATOM     19  C   UNL     1      -0.910  10.581  23.056  0.00  0.00    +0.000 A 
ATOM     20  C   UNL     1      -0.170   9.403  22.921  0.00  0.00    +0.000 A 
ATOM     21  C   UNL     1       0.456   9.101  21.710  0.00  0.00    +0.000 A 
ATOM     22  C   UNL     1       0.285   9.986  20.635  0.00  0.00    +0.000 A 
ATOM     23  C   UNL     1      -0.440  11.184  20.762  0.00  0.00    +0.000 A 
BRANCH  18  25
ATOM     24  C   UNL     1      -0.898  13.743  22.783  0.00  0.00    +0.000 C 
ATOM     25  O   UNL     1      -1.658  12.699  22.169  0.00  0.00    +0.000 OA
ENDBRANCH  18  25
BRANCH  23  26
ATOM     26  O   UNL     1      -0.457  11.893  19.591  0.00  0.00    +0.000 OA
ATOM     27  C   UNL     1       0.590  12.808  19.312  0.00  0.00    +0.000 C 
ENDBRANCH  23  26
ENDBRANCH  17  21
ENDBRANCH  16  17
ENDBRANCH  12  16
ENDBRANCH  11  13
ENDBRANCH   1  11
BRANCH   8  28
ATOM     28  C   UNL     1       5.573   4.810  13.575  0.00  0.00    +0.000 C 
BRANCH  28  29
ATOM     29  C   UNL     1       6.038   3.731  12.635  0.00  0.00    +0.000 A 
ATOM     30  C   UNL     1       5.264   2.587  12.381  0.00  0.00    +0.000 A 
ATOM     31  C   UNL     1       5.721   1.600  11.503  0.00  0.00    +0.000 A 
ATOM     32  C   UNL     1       6.961   1.736  10.878  0.00  0.00    +0.000 A 
ATOM     33  C   UNL     1       7.750   2.851  11.144  0.00  0.00    +0.000 A 
ATOM     34  C   UNL     1       7.289   3.831  12.019  0.00  0.00    +0.000 A 
ATOM     35  F   UNL     1       8.079   4.882  12.278  0.00  0.00    +0.000 F 
ENDBRANCH  28  29
ENDBRANCH   8  28
TORSDOF 9
ENDMDL
MODEL 8
REMARK VINA RESULT:      -7.5      4.222     10.585
REMARK  Name = 
REMARK  11 active torsions:
REMARK  status: ('A' for Active; 'I' for Inactive)
REMARK    1  A    between atoms: C_1  and  O_2
REMARK    2  A    between atoms: O_2  and  C_3
REMARK    3  A    between atoms: C_6  and  C_7
REMARK    4  A    between atoms: C_7  and  C_8
REMARK    5  A    between atoms: C_8  and  N_9
REMARK    6  A    between atoms: C_10  and  C_12
REMARK    7  A    between atoms: C_12  and  N_13
REMARK    8  A    between atoms: N_20  and  C_21
REMARK    9  A    between atoms: C_21  and  C_22
REMARK   10  A    between atoms: C_32  and  O_33
REMARK   11  A    between atoms: O_33  and  C_34
REMARK                            x       y       z     vdW  Elec       q    Type
REMARK                         _______ _______ _______ _____ _____    ______ ____
ROOT
ATOM      1  N   UNL     1       1.263   9.534  19.684  0.00  0.00    +0.000 N 
ATOM      2  C   UNL     1       1.832   9.372  18.417  0.00  0.00    +0.000 A 
ATOM      3  N   UNL     1       2.365   8.278  17.951  0.00  0.00    +0.000 NA
ATOM      4  C   UNL     1       2.323   7.258  18.841  0.00  0.00    +0.000 A 
ATOM      5  C   UNL     1       1.791   7.265  20.105  0.00  0.00    +0.000 A 
ATOM      6  N   UNL     1       1.951   6.054  20.703  0.00  0.00    +0.000 NA
ATOM      7  N   UNL     1       2.614   5.275  19.848  0.00  0.00    +0.000 NA
ATOM      8  N   UNL     1       2.852   6.001  18.724  0.00  0.00    +0.000 N 
ATOM      9  C   UNL     1       1.213   8.480  20.613  0.00  0.00    +0.000 A 
ATOM     10  O   UNL     1       0.719   8.595  21.733  0.00  0.00    +0.000 OA
ENDROOT
BRANCH   1  11
ATOM     11  C   UNL     1       0.702  10.821  20.078  0.00  0.00    +0.000 C 
BRANCH  11  13
ATOM     12  N   UNL     1      -1.211  10.660  18.516  0.00  0.00    +0.000 N 
ATOM     13  C   UNL     1      -0.143  11.423  18.950  0.00  0.00    +0.000 C 
ATOM     14  O   UNL     1       0.144  12.509  18.449  0.00  0.00    +0.000 OA
ATOM     15  H   UNL     1      -1.470   9.815  19.014  0.00  0.00    +0.000 HD
BRANCH  12  16
ATOM     16  C   UNL     1      -2.027  11.100  17.390  0.00  0.00    +0.000 C 
BRANCH  16  17
ATOM     17  C   UNL     1      -3.465  10.570  17.408  0.00  0.00    +0.000 C 
BRANCH  17  21
ATOM     18  C   UNL     1      -6.056  13.543  19.215  0.00  0.00    +0.000 A 
ATOM     19  C   UNL     1      -5.029  12.936  19.956  0.00  0.00    +0.000 A 
ATOM     20  C   UNL     1      -4.199  11.967  19.386  0.00  0.00    +0.000 A 
ATOM     21  C   UNL     1      -4.409  11.546  18.072  0.00  0.00    +0.000 A 
ATOM     22  C   UNL     1      -5.491  12.092  17.365  0.00  0.00    +0.000 A 
ATOM     23  C   UNL     1      -6.321  13.082  17.918  0.00  0.00    +0.000 A 
BRANCH  18  25
ATOM     24  C   UNL     1      -6.353  15.074  21.000  0.00  0.00    +0.000 C 
ATOM     25  O   UNL     1      -6.810  14.554  19.749  0.00  0.00    +0.000 OA
ENDBRANCH  18  25
BRANCH  23  26
ATOM     26  O   UNL     1      -7.296  13.475  17.040  0.00  0.00    +0.000 OA
ATOM     27  C   UNL     1      -7.155  14.700  16.340  0.00  0.00    +0.000 C 
ENDBRANCH  23  26
ENDBRANCH  17  21
ENDBRANCH  16  17
ENDBRANCH  12  16
ENDBRANCH  11  13
ENDBRANCH   1  11
BRANCH   8  28
ATOM     28  C   UNL     1       3.734   5.481  17.693  0.00  0.00    +0.000 C 
BRANCH  28  29
ATOM     29  C   UNL     1       5.165   5.910  17.877  0.00  0.00    +0.000 A 
ATOM     30  C   UNL     1       5.705   7.001  17.178  0.00  0.00    +0.000 A 
ATOM     31  C   UNL     1       7.038   7.378  17.368  0.00  0.00    +0.000 A 
ATOM     32  C   UNL     1       7.850   6.662  18.248  0.00  0.00    +0.000 A 
ATOM     33  C   UNL     1       7.334   5.561  18.926  0.00  0.00    +0.000 A 
ATOM     34  C   UNL     1       6.006   5.192  18.732  0.00  0.00    +0.000 A 
ATOM     35  F   UNL     1       5.540   4.112  19.376  0.00  0.00    +0.000 F 
ENDBRANCH  28  29
ENDBRANCH   8  28
TORSDOF 9
ENDMDL
MODEL 9
REMARK VINA RESULT:      -7.5      4.124     10.460
REMARK  Name = 
REMARK  11 active torsions:
REMARK  status: ('A' for Active; 'I' for Inactive)
REMARK    1  A    between atoms: C_1  and  O_2
REMARK    2  A    between atoms: O_2  and  C_3
REMARK    3  A    between atoms: C_6  and  C_7
REMARK    4  A    between atoms: C_7  and  C_8
REMARK    5  A    between atoms: C_8  and  N_9
REMARK    6  A    between atoms: C_10  and  C_12
REMARK    7  A    between atoms: C_12  and  N_13
REMARK    8  A    between atoms: N_20  and  C_21
REMARK    9  A    between atoms: C_21  and  C_22
REMARK   10  A    between atoms: C_32  and  O_33
REMARK   11  A    between atoms: O_33  and  C_34
REMARK                            x       y       z     vdW  Elec       q    Type
REMARK                         _______ _______ _______ _____ _____    ______ ____
ROOT
ATOM      1  N   UNL     1       1.876   8.372  19.092  0.00  0.00    +0.000 N 
ATOM      2  C   UNL     1       2.328   7.819  17.890  0.00  0.00    +0.000 A 
ATOM      3  N   UNL     1       2.712   6.586  17.711  0.00  0.00    +0.000 NA
ATOM      4  C   UNL     1       2.637   5.848  18.844  0.00  0.00    +0.000 A 
ATOM      5  C   UNL     1       2.206   6.248  20.083  0.00  0.00    +0.000 A 
ATOM      6  N   UNL     1       2.290   5.226  20.976  0.00  0.00    +0.000 NA
ATOM      7  N   UNL     1       2.805   4.178  20.332  0.00  0.00    +0.000 NA
ATOM      8  N   UNL     1       3.027   4.551  19.045  0.00  0.00    +0.000 N 
ATOM      9  C   UNL     1       1.792   7.612  20.272  0.00  0.00    +0.000 A 
ATOM     10  O   UNL     1       1.400   8.074  21.341  0.00  0.00    +0.000 OA
ENDROOT
BRANCH   1  11
ATOM     11  C   UNL     1       1.478   9.774  19.151  0.00  0.00    +0.000 C 
BRANCH  11  13
ATOM     12  N   UNL     1      -0.491   9.945  17.659  0.00  0.00    +0.000 N 
ATOM     13  C   UNL     1      -0.036   9.925  18.965  0.00  0.00    +0.000 C 
ATOM     14  O   UNL     1      -0.786  10.050  19.932  0.00  0.00    +0.000 OA
ATOM     15  H   UNL     1       0.145   9.747  16.895  0.00  0.00    +0.000 HD
BRANCH  12  16
ATOM     16  C   UNL     1      -1.902  10.171  17.370  0.00  0.00    +0.000 C 
BRANCH  16  17
ATOM     17  C   UNL     1      -2.350  11.629  17.521  0.00  0.00    +0.000 C 
BRANCH  17  21
ATOM     18  C   UNL     1      -5.695  12.170  20.230  0.00  0.00    +0.000 A 
ATOM     19  C   UNL     1      -4.452  12.771  20.491  0.00  0.00    +0.000 A 
ATOM     20  C   UNL     1      -3.365  12.589  19.631  0.00  0.00    +0.000 A 
ATOM     21  C   UNL     1      -3.483  11.762  18.512  0.00  0.00    +0.000 A 
ATOM     22  C   UNL     1      -4.700  11.095  18.306  0.00  0.00    +0.000 A 
ATOM     23  C   UNL     1      -5.808  11.284  19.151  0.00  0.00    +0.000 A 
BRANCH  18  25
ATOM     24  C   UNL     1      -7.414  13.687  20.833  0.00  0.00    +0.000 C 
ATOM     25  O   UNL     1      -6.780  12.420  21.027  0.00  0.00    +0.000 OA
ENDBRANCH  18  25
BRANCH  23  26
ATOM     26  O   UNL     1      -6.888  10.546  18.744  0.00  0.00    +0.000 OA
ATOM     27  C   UNL     1      -7.176   9.315  19.387  0.00  0.00    +0.000 C 
ENDBRANCH  23  26
ENDBRANCH  17  21
ENDBRANCH  16  17
ENDBRANCH  12  16
ENDBRANCH  11  13
ENDBRANCH   1  11
BRANCH   8  28
ATOM     28  C   UNL     1       3.772   3.679  18.152  0.00  0.00    +0.000 C 
BRANCH  28  29
ATOM     29  C   UNL     1       4.953   4.364  17.518  0.00  0.00    +0.000 A 
ATOM     30  C   UNL     1       5.073   4.492  16.125  0.00  0.00    +0.000 A 
ATOM     31  C   UNL     1       6.181   5.133  15.563  0.00  0.00    +0.000 A 
ATOM     32  C   UNL     1       7.188   5.641  16.383  0.00  0.00    +0.000 A 
ATOM     33  C   UNL     1       7.095   5.494  17.764  0.00  0.00    +0.000 A 
ATOM     34  C   UNL     1       5.988   4.856  18.318  0.00  0.00    +0.000 A 
ATOM     35  F   UNL     1       5.935   4.704  19.648  0.00  0.00    +0.000 F 
ENDBRANCH  28  29
ENDBRANCH   8  28
TORSDOF 9
ENDMDL
