MODEL 1
REMARK VINA RESULT:      -7.4      0.000      0.000
REMARK  Name = 
REMARK  4 active torsions:
REMARK  status: ('A' for Active; 'I' for Inactive)
REMARK    1  A    between atoms: C_1  and  C_2
REMARK    2  A    between atoms: C_2  and  N_3
REMARK    3  A    between atoms: C_10  and  C_11
REMARK    4  A    between atoms: C_19  and  C_20
REMARK                            x       y       z     vdW  Elec       q    Type
REMARK                         _______ _______ _______ _____ _____    ______ ____
ROOT
ATOM      1  N   UNL     1       1.226   9.751  21.231  0.00  0.00    +0.000 N 
ATOM      2  C   UNL     1       1.533   8.703  20.395  0.00  0.00    +0.000 C 
ATOM      3  O   UNL     1       1.726   8.840  19.191  0.00  0.00    +0.000 OA
ATOM      4  N   UNL     1       1.542   7.501  21.068  0.00  0.00    +0.000 N 
ATOM      5  C   UNL     1       1.802   6.289  20.417  0.00  0.00    +0.000 A 
ATOM      6  C   UNL     1       2.870   6.149  19.541  0.00  0.00    +0.000 A 
ATOM      7  C   UNL     1       3.209   4.889  18.996  0.00  0.00    +0.000 A 
ATOM      8  C   UNL     1       4.412   4.630  18.255  0.00  0.00    +0.000 A 
ATOM      9  C   UNL     1       4.562   3.355  17.673  0.00  0.00    +0.000 A 
ATOM     10  C   UNL     1       3.583   2.370  17.789  0.00  0.00    +0.000 A 
ATOM     11  C   UNL     1       2.440   2.594  18.556  0.00  0.00    +0.000 A 
ATOM     12  C   UNL     1       1.406   1.503  18.641  0.00  0.00    +0.000 C 
ATOM     13  C   UNL     1       2.277   3.842  19.211  0.00  0.00    +0.000 A 
ATOM     14  C   UNL     1       1.219   4.105  20.098  0.00  0.00    +0.000 A 
ATOM     15  N   UNL     1       1.006   5.267  20.759  0.00  0.00    +0.000 NA
ATOM     16  H   UNL     1       1.683   9.703  22.131  0.00  0.00    +0.000 HD
ATOM     17  H   UNL     1       0.836   7.416  21.784  0.00  0.00    +0.000 HD
ENDROOT
BRANCH   8  18
ATOM     18  C   UNL     1       5.539   5.607  18.120  0.00  0.00    +0.000 A 
ATOM     19  C   UNL     1       6.733   5.478  18.847  0.00  0.00    +0.000 A 
ATOM     20  C   UNL     1       7.735   6.428  18.709  0.00  0.00    +0.000 A 
ATOM     21  N   UNL     1       7.676   7.458  17.845  0.00  0.00    +0.000 NA
ATOM     22  C   UNL     1       6.554   7.549  17.104  0.00  0.00    +0.000 A 
ATOM     23  C   UNL     1       5.479   6.678  17.215  0.00  0.00    +0.000 A 
ENDBRANCH   8  18
BRANCH   1  25
ATOM     24  C   UNL     1      -0.431  11.389  20.440  0.00  0.00    +0.000 C 
ATOM     25  C   UNL     1       1.034  11.055  20.637  0.00  0.00    +0.000 C 
ENDBRANCH   1  25
TORSDOF 2
ENDMDL
MODEL 2
REMARK VINA RESULT:      -7.3      0.251      1.005
REMARK  Name = 
REMARK  4 active torsions:
REMARK  status: ('A' for Active; 'I' for Inactive)
REMARK    1  A    between atoms: C_1  and  C_2
REMARK    2  A    between atoms: C_2  and  N_3
REMARK    3  A    between atoms: C_10  and  C_11
REMARK    4  A    between atoms: C_19  and  C_20
REMARK                            x       y       z     vdW  Elec       q    Type
REMARK                         _______ _______ _______ _____ _____    ______ ____
ROOT
ATOM      1  N   UNL     1       1.204   9.754  21.130  0.00  0.00    +0.000 N 
ATOM      2  C   UNL     1       1.517   8.692  20.313  0.00  0.00    +0.000 C 
ATOM      3  O   UNL     1       1.712   8.809  19.108  0.00  0.00    +0.000 OA
ATOM      4  N   UNL     1       1.527   7.502  21.008  0.00  0.00    +0.000 N 
ATOM      5  C   UNL     1       1.793   6.280  20.379  0.00  0.00    +0.000 A 
ATOM      6  C   UNL     1       2.863   6.128  19.508  0.00  0.00    +0.000 A 
ATOM      7  C   UNL     1       3.208   4.860  18.986  0.00  0.00    +0.000 A 
ATOM      8  C   UNL     1       4.414   4.592  18.253  0.00  0.00    +0.000 A 
ATOM      9  C   UNL     1       4.569   3.307  17.695  0.00  0.00    +0.000 A 
ATOM     10  C   UNL     1       3.593   2.321  17.825  0.00  0.00    +0.000 A 
ATOM     11  C   UNL     1       2.447   2.555  18.585  0.00  0.00    +0.000 A 
ATOM     12  C   UNL     1       1.416   1.462  18.687  0.00  0.00    +0.000 C 
ATOM     13  C   UNL     1       2.279   3.814  19.218  0.00  0.00    +0.000 A 
ATOM     14  C   UNL     1       1.217   4.089  20.098  0.00  0.00    +0.000 A 
ATOM     15  N   UNL     1       0.999   5.262  20.737  0.00  0.00    +0.000 NA
ATOM     16  H   UNL     1       1.658   9.724  22.032  0.00  0.00    +0.000 HD
ATOM     17  H   UNL     1       0.820   7.428  21.723  0.00  0.00    +0.000 HD
ENDROOT
BRANCH   8  18
ATOM     18  C   UNL     1       5.538   5.569  18.104  0.00  0.00    +0.000 A 
ATOM     19  C   UNL     1       5.462   6.671  17.238  0.00  0.00    +0.000 A 
ATOM     20  C   UNL     1       6.544   7.531  17.114  0.00  0.00    +0.000 A 
ATOM     21  N   UNL     1       7.671   7.425  17.840  0.00  0.00    +0.000 NA
ATOM     22  C   UNL     1       7.722   6.402  18.715  0.00  0.00    +0.000 A 
ATOM     23  C   UNL     1       6.711   5.461  18.867  0.00  0.00    +0.000 A 
ENDBRANCH   8  18
BRANCH   1  25
ATOM     24  C   UNL     1       0.100  11.944  21.326  0.00  0.00    +0.000 C 
ATOM     25  C   UNL     1       1.009  11.046  20.512  0.00  0.00    +0.000 C 
ENDBRANCH   1  25
TORSDOF 2
ENDMDL
MODEL 3
REMARK VINA RESULT:      -7.0      1.747      2.017
REMARK  Name = 
REMARK  4 active torsions:
REMARK  status: ('A' for Active; 'I' for Inactive)
REMARK    1  A    between atoms: C_1  and  C_2
REMARK    2  A    between atoms: C_2  and  N_3
REMARK    3  A    between atoms: C_10  and  C_11
REMARK    4  A    between atoms: C_19  and  C_20
REMARK                            x       y       z     vdW  Elec       q    Type
REMARK                         _______ _______ _______ _____ _____    ______ ____
ROOT
ATOM      1  N   UNL     1       2.073  10.285  18.920  0.00  0.00    +0.000 N 
ATOM      2  C   UNL     1       2.097   8.968  18.525  0.00  0.00    +0.000 C 
ATOM      3  O   UNL     1       2.021   8.620  17.350  0.00  0.00    +0.000 OA
ATOM      4  N   UNL     1       2.161   8.113  19.603  0.00  0.00    +0.000 N 
ATOM      5  C   UNL     1       2.169   6.723  19.447  0.00  0.00    +0.000 A 
ATOM      6  C   UNL     1       2.995   6.099  18.521  0.00  0.00    +0.000 A 
ATOM      7  C   UNL     1       3.099   4.690  18.465  0.00  0.00    +0.000 A 
ATOM      8  C   UNL     1       4.078   3.986  17.684  0.00  0.00    +0.000 A 
ATOM      9  C   UNL     1       3.989   2.580  17.635  0.00  0.00    +0.000 A 
ATOM     10  C   UNL     1       2.987   1.879  18.302  0.00  0.00    +0.000 A 
ATOM     11  C   UNL     1       2.069   2.551  19.109  0.00  0.00    +0.000 A 
ATOM     12  C   UNL     1       0.997   1.750  19.800  0.00  0.00    +0.000 C 
ATOM     13  C   UNL     1       2.160   3.961  19.238  0.00  0.00    +0.000 A 
ATOM     14  C   UNL     1       1.356   4.700  20.123  0.00  0.00    +0.000 A 
ATOM     15  N   UNL     1       1.392   6.041  20.300  0.00  0.00    +0.000 NA
ATOM     16  H   UNL     1       2.716  10.499  19.669  0.00  0.00    +0.000 HD
ATOM     17  H   UNL     1       1.632   8.414  20.408  0.00  0.00    +0.000 HD
ENDROOT
BRANCH   8  18
ATOM     18  C   UNL     1       5.219   4.648  16.977  0.00  0.00    +0.000 A 
ATOM     19  C   UNL     1       5.360   4.608  15.581  0.00  0.00    +0.000 A 
ATOM     20  C   UNL     1       6.453   5.213  14.976  0.00  0.00    +0.000 A 
ATOM     21  N   UNL     1       7.381   5.922  15.645  0.00  0.00    +0.000 NA
ATOM     22  C   UNL     1       7.214   6.011  16.979  0.00  0.00    +0.000 A 
ATOM     23  C   UNL     1       6.183   5.393  17.674  0.00  0.00    +0.000 A 
ENDBRANCH   8  18
BRANCH   1  25
ATOM     24  C   UNL     1       2.502  12.616  18.259  0.00  0.00    +0.000 C 
ATOM     25  C   UNL     1       1.856  11.292  17.906  0.00  0.00    +0.000 C 
ENDBRANCH   1  25
TORSDOF 2
ENDMDL
MODEL 4
REMARK VINA RESULT:      -7.0      3.938      7.590
REMARK  Name = 
REMARK  4 active torsions:
REMARK  status: ('A' for Active; 'I' for Inactive)
REMARK    1  A    between atoms: C_1  and  C_2
REMARK    2  A    between atoms: C_2  and  N_3
REMARK    3  A    between atoms: C_10  and  C_11
REMARK    4  A    between atoms: C_19  and  C_20
REMARK                            x       y       z     vdW  Elec       q    Type
REMARK                         _______ _______ _______ _____ _____    ______ ____
ROOT
ATOM      1  N   UNL     1      -3.091  11.009  15.037  0.00  0.00    +0.000 N 
ATOM      2  C   UNL     1      -2.778  10.640  16.325  0.00  0.00    +0.000 C 
ATOM      3  O   UNL     1      -2.868   9.485  16.731  0.00  0.00    +0.000 OA
ATOM      4  N   UNL     1      -2.410  11.724  17.090  0.00  0.00    +0.000 N 
ATOM      5  C   UNL     1      -2.074  11.597  18.443  0.00  0.00    +0.000 A 
ATOM      6  C   UNL     1      -1.204  10.609  18.886  0.00  0.00    +0.000 A 
ATOM      7  C   UNL     1      -0.762  10.572  20.229  0.00  0.00    +0.000 A 
ATOM      8  C   UNL     1       0.289   9.716  20.706  0.00  0.00    +0.000 A 
ATOM      9  C   UNL     1       0.544   9.704  22.092  0.00  0.00    +0.000 A 
ATOM     10  C   UNL     1      -0.192  10.478  22.987  0.00  0.00    +0.000 A 
ATOM     11  C   UNL     1      -1.172  11.356  22.524  0.00  0.00    +0.000 A 
ATOM     12  C   UNL     1      -1.949  12.162  23.531  0.00  0.00    +0.000 C 
ATOM     13  C   UNL     1      -1.420  11.446  21.130  0.00  0.00    +0.000 A 
ATOM     14  C   UNL     1      -2.301  12.389  20.572  0.00  0.00    +0.000 A 
ATOM     15  N   UNL     1      -2.581  12.533  19.255  0.00  0.00    +0.000 NA
ATOM     16  H   UNL     1      -2.456  11.688  14.641  0.00  0.00    +0.000 HD
ATOM     17  H   UNL     1      -2.924  12.570  16.893  0.00  0.00    +0.000 HD
ENDROOT
BRANCH   8  18
ATOM     18  C   UNL     1       1.165   8.890  19.818  0.00  0.00    +0.000 A 
ATOM     19  C   UNL     1       1.530   9.307  18.528  0.00  0.00    +0.000 A 
ATOM     20  C   UNL     1       2.320   8.489  17.732  0.00  0.00    +0.000 A 
ATOM     21  N   UNL     1       2.840   7.319  18.146  0.00  0.00    +0.000 NA
ATOM     22  C   UNL     1       2.539   6.946  19.405  0.00  0.00    +0.000 A 
ATOM     23  C   UNL     1       1.712   7.672  20.252  0.00  0.00    +0.000 A 
ENDBRANCH   8  18
BRANCH   1  25
ATOM     24  C   UNL     1      -2.678   9.621  13.048  0.00  0.00    +0.000 C 
ATOM     25  C   UNL     1      -3.637   9.999  14.159  0.00  0.00    +0.000 C 
ENDBRANCH   1  25
TORSDOF 2
ENDMDL
MODEL 5
REMARK VINA RESULT:      -6.9      1.548      1.647
REMARK  Name = 
REMARK  4 active torsions:
REMARK  status: ('A' for Active; 'I' for Inactive)
REMARK    1  A    between atoms: C_1  and  C_2
REMARK    2  A    between atoms: C_2  and  N_3
REMARK    3  A    between atoms: C_10  and  C_11
REMARK    4  A    between atoms: C_19  and  C_20
REMARK                            x       y       z     vdW  Elec       q    Type
REMARK                         _______ _______ _______ _____ _____    ______ ____
ROOT
ATOM      1  N   UNL     1       1.789  10.240  19.223  0.00  0.00    +0.000 N 
ATOM      2  C   UNL     1       1.880   8.935  18.797  0.00  0.00    +0.000 C 
ATOM      3  O   UNL     1       1.844   8.613  17.613  0.00  0.00    +0.000 OA
ATOM      4  N   UNL     1       1.959   8.058  19.856  0.00  0.00    +0.000 N 
ATOM      5  C   UNL     1       2.032   6.673  19.666  0.00  0.00    +0.000 A 
ATOM      6  C   UNL     1       2.903   6.109  18.744  0.00  0.00    +0.000 A 
ATOM      7  C   UNL     1       3.070   4.708  18.657  0.00  0.00    +0.000 A 
ATOM      8  C   UNL     1       4.095   4.067  17.880  0.00  0.00    +0.000 A 
ATOM      9  C   UNL     1       4.069   2.660  17.796  0.00  0.00    +0.000 A 
ATOM     10  C   UNL     1       3.085   1.899  18.423  0.00  0.00    +0.000 A 
ATOM     11  C   UNL     1       2.123   2.511  19.227  0.00  0.00    +0.000 A 
ATOM     12  C   UNL     1       1.073   1.647  19.875  0.00  0.00    +0.000 C 
ATOM     13  C   UNL     1       2.149   3.920  19.391  0.00  0.00    +0.000 A 
ATOM     14  C   UNL     1       1.294   4.600  20.276  0.00  0.00    +0.000 A 
ATOM     15  N   UNL     1       1.268   5.937  20.485  0.00  0.00    +0.000 NA
ATOM     16  H   UNL     1       2.407  10.462  19.991  0.00  0.00    +0.000 HD
ATOM     17  H   UNL     1       1.401   8.314  20.656  0.00  0.00    +0.000 HD
ENDROOT
BRANCH   8  18
ATOM     18  C   UNL     1       5.221   4.795  17.214  0.00  0.00    +0.000 A 
ATOM     19  C   UNL     1       6.200   5.487  17.943  0.00  0.00    +0.000 A 
ATOM     20  C   UNL     1       7.206   6.173  17.276  0.00  0.00    +0.000 A 
ATOM     21  N   UNL     1       7.359   6.162  15.940  0.00  0.00    +0.000 NA
ATOM     22  C   UNL     1       6.453   5.449  15.242  0.00  0.00    +0.000 A 
ATOM     23  C   UNL     1       5.383   4.779  15.820  0.00  0.00    +0.000 A 
ENDBRANCH   8  18
BRANCH   1  25
ATOM     24  C   UNL     1       2.457  12.461  18.403  0.00  0.00    +0.000 C 
ATOM     25  C   UNL     1       1.549  11.261  18.229  0.00  0.00    +0.000 C 
ENDBRANCH   1  25
TORSDOF 2
ENDMDL
MODEL 6
REMARK VINA RESULT:      -6.7      8.237     10.940
REMARK  Name = 
REMARK  4 active torsions:
REMARK  status: ('A' for Active; 'I' for Inactive)
REMARK    1  A    between atoms: C_1  and  C_2
REMARK    2  A    between atoms: C_2  and  N_3
REMARK    3  A    between atoms: C_10  and  C_11
REMARK    4  A    between atoms: C_19  and  C_20
REMARK                            x       y       z     vdW  Elec       q    Type
REMARK                         _______ _______ _______ _____ _____    ______ ____
ROOT
ATOM      1  N   UNL     1      -3.807  11.504  15.887  0.00  0.00    +0.000 N 
ATOM      2  C   UNL     1      -3.981  11.422  17.249  0.00  0.00    +0.000 C 
ATOM      3  O   UNL     1      -3.437  10.568  17.943  0.00  0.00    +0.000 OA
ATOM      4  N   UNL     1      -4.868  12.370  17.708  0.00  0.00    +0.000 N 
ATOM      5  C   UNL     1      -5.222  12.461  19.059  0.00  0.00    +0.000 A 
ATOM      6  C   UNL     1      -4.267  12.433  20.065  0.00  0.00    +0.000 A 
ATOM      7  C   UNL     1      -4.619  12.664  21.415  0.00  0.00    +0.000 A 
ATOM      8  C   UNL     1      -3.666  12.855  22.474  0.00  0.00    +0.000 A 
ATOM      9  C   UNL     1      -4.161  12.960  23.789  0.00  0.00    +0.000 A 
ATOM     10  C   UNL     1      -5.521  12.871  24.077  0.00  0.00    +0.000 A 
ATOM     11  C   UNL     1      -6.456  12.745  23.049  0.00  0.00    +0.000 A 
ATOM     12  C   UNL     1      -7.914  12.640  23.412  0.00  0.00    +0.000 C 
ATOM     13  C   UNL     1      -6.006  12.698  21.704  0.00  0.00    +0.000 A 
ATOM     14  C   UNL     1      -6.884  12.695  20.606  0.00  0.00    +0.000 A 
ATOM     15  N   UNL     1      -6.526  12.655  19.302  0.00  0.00    +0.000 NA
ATOM     16  H   UNL     1      -3.725  12.451  15.542  0.00  0.00    +0.000 HD
ATOM     17  H   UNL     1      -5.641  12.556  17.087  0.00  0.00    +0.000 HD
ENDROOT
BRANCH   8  18
ATOM     18  C   UNL     1      -2.193  13.014  22.256  0.00  0.00    +0.000 A 
ATOM     19  C   UNL     1      -1.367  11.934  21.910  0.00  0.00    +0.000 A 
ATOM     20  C   UNL     1      -0.002  12.129  21.750  0.00  0.00    +0.000 A 
ATOM     21  N   UNL     1       0.597  13.331  21.832  0.00  0.00    +0.000 NA
ATOM     22  C   UNL     1      -0.205  14.378  22.106  0.00  0.00    +0.000 A 
ATOM     23  C   UNL     1      -1.570  14.269  22.337  0.00  0.00    +0.000 A 
ENDBRANCH   8  18
BRANCH   1  25
ATOM     24  C   UNL     1      -3.651   9.989  13.955  0.00  0.00    +0.000 C 
ATOM     25  C   UNL     1      -3.019  10.478  15.243  0.00  0.00    +0.000 C 
ENDBRANCH   1  25
TORSDOF 2
ENDMDL
MODEL 7
REMARK VINA RESULT:      -6.6      5.529      9.537
REMARK  Name = 
REMARK  4 active torsions:
REMARK  status: ('A' for Active; 'I' for Inactive)
REMARK    1  A    between atoms: C_1  and  C_2
REMARK    2  A    between atoms: C_2  and  N_3
REMARK    3  A    between atoms: C_10  and  C_11
REMARK    4  A    between atoms: C_19  and  C_20
REMARK                            x       y       z     vdW  Elec       q    Type
REMARK                         _______ _______ _______ _____ _____    ______ ____
ROOT
ATOM      1  N   UNL     1      -0.492  16.303  17.931  0.00  0.00    +0.000 N 
ATOM      2  C   UNL     1      -0.195  15.342  18.871  0.00  0.00    +0.000 C 
ATOM      3  O   UNL     1       0.345  15.598  19.942  0.00  0.00    +0.000 OA
ATOM      4  N   UNL     1      -0.530  14.080  18.432  0.00  0.00    +0.000 N 
ATOM      5  C   UNL     1      -0.295  12.939  19.208  0.00  0.00    +0.000 A 
ATOM      6  C   UNL     1      -0.639  12.890  20.552  0.00  0.00    +0.000 A 
ATOM      7  C   UNL     1      -0.526  11.691  21.293  0.00  0.00    +0.000 A 
ATOM      8  C   UNL     1      -1.054  11.511  22.617  0.00  0.00    +0.000 A 
ATOM      9  C   UNL     1      -0.765  10.300  23.277  0.00  0.00    +0.000 A 
ATOM     10  C   UNL     1       0.013   9.304  22.691  0.00  0.00    +0.000 A 
ATOM     11  C   UNL     1       0.478   9.447  21.383  0.00  0.00    +0.000 A 
ATOM     12  C   UNL     1       1.325   8.349  20.797  0.00  0.00    +0.000 C 
ATOM     13  C   UNL     1       0.159  10.624  20.658  0.00  0.00    +0.000 A 
ATOM     14  C   UNL     1       0.483  10.795  19.301  0.00  0.00    +0.000 A 
ATOM     15  N   UNL     1       0.206  11.886  18.549  0.00  0.00    +0.000 NA
ATOM     16  H   UNL     1      -1.385  16.168  17.478  0.00  0.00    +0.000 HD
ATOM     17  H   UNL     1      -0.372  13.923  17.448  0.00  0.00    +0.000 HD
ENDROOT
BRANCH   8  18
ATOM     18  C   UNL     1      -1.940  12.500  23.307  0.00  0.00    +0.000 A 
ATOM     19  C   UNL     1      -1.486  13.770  23.695  0.00  0.00    +0.000 A 
ATOM     20  C   UNL     1      -2.339  14.640  24.359  0.00  0.00    +0.000 A 
ATOM     21  N   UNL     1      -3.636  14.375  24.603  0.00  0.00    +0.000 NA
ATOM     22  C   UNL     1      -4.089  13.179  24.178  0.00  0.00    +0.000 A 
ATOM     23  C   UNL     1      -3.294  12.225  23.555  0.00  0.00    +0.000 A 
ENDBRANCH   8  18
BRANCH   1  25
ATOM     24  C   UNL     1      -1.199  18.550  18.641  0.00  0.00    +0.000 C 
ATOM     25  C   UNL     1      -0.060  17.657  18.191  0.00  0.00    +0.000 C 
ENDBRANCH   1  25
TORSDOF 2
ENDMDL
MODEL 8
REMARK VINA RESULT:      -6.6      2.106      4.523
REMARK  Name = 
REMARK  4 active torsions:
REMARK  status: ('A' for Active; 'I' for Inactive)
REMARK    1  A    between atoms: C_1  and  C_2
REMARK    2  A    between atoms: C_2  and  N_3
REMARK    3  A    between atoms: C_10  and  C_11
REMARK    4  A    between atoms: C_19  and  C_20
REMARK                            x       y       z     vdW  Elec       q    Type
REMARK                         _______ _______ _______ _____ _____    ______ ____
ROOT
ATOM      1  N   UNL     1      -0.210  10.006  21.286  0.00  0.00    +0.000 N 
ATOM      2  C   UNL     1       0.833   9.207  20.876  0.00  0.00    +0.000 C 
ATOM      3  O   UNL     1       1.642   8.711  21.653  0.00  0.00    +0.000 OA
ATOM      4  N   UNL     1       0.875   9.090  19.504  0.00  0.00    +0.000 N 
ATOM      5  C   UNL     1       1.867   8.347  18.854  0.00  0.00    +0.000 A 
ATOM      6  C   UNL     1       2.214   7.070  19.275  0.00  0.00    +0.000 A 
ATOM      7  C   UNL     1       3.116   6.274  18.533  0.00  0.00    +0.000 A 
ATOM      8  C   UNL     1       3.360   4.881  18.789  0.00  0.00    +0.000 A 
ATOM      9  C   UNL     1       4.371   4.245  18.042  0.00  0.00    +0.000 A 
ATOM     10  C   UNL     1       5.130   4.927  17.092  0.00  0.00    +0.000 A 
ATOM     11  C   UNL     1       4.858   6.263  16.796  0.00  0.00    +0.000 A 
ATOM     12  C   UNL     1       5.714   6.960  15.771  0.00  0.00    +0.000 C 
ATOM     13  C   UNL     1       3.807   6.926  17.480  0.00  0.00    +0.000 A 
ATOM     14  C   UNL     1       3.390   8.229  17.157  0.00  0.00    +0.000 A 
ATOM     15  N   UNL     1       2.395   8.918  17.763  0.00  0.00    +0.000 NA
ATOM     16  H   UNL     1      -1.073   9.838  20.788  0.00  0.00    +0.000 HD
ATOM     17  H   UNL     1       0.623   9.928  19.003  0.00  0.00    +0.000 HD
ENDROOT
BRANCH   8  18
ATOM     18  C   UNL     1       2.564   4.055  19.751  0.00  0.00    +0.000 A 
ATOM     19  C   UNL     1       2.898   3.958  21.110  0.00  0.00    +0.000 A 
ATOM     20  C   UNL     1       2.145   3.155  21.954  0.00  0.00    +0.000 A 
ATOM     21  N   UNL     1       1.037   2.496  21.569  0.00  0.00    +0.000 NA
ATOM     22  C   UNL     1       0.681   2.637  20.277  0.00  0.00    +0.000 A 
ATOM     23  C   UNL     1       1.404   3.374  19.349  0.00  0.00    +0.000 A 
ENDBRANCH   8  18
BRANCH   1  25
ATOM     24  C   UNL     1      -1.282  11.456  22.958  0.00  0.00    +0.000 C 
ATOM     25  C   UNL     1      -0.291  10.342  22.689  0.00  0.00    +0.000 C 
ENDBRANCH   1  25
TORSDOF 2
ENDMDL
MODEL 9
REMARK VINA RESULT:      -6.4      7.521     10.767
REMARK  Name = 
REMARK  4 active torsions:
REMARK  status: ('A' for Active; 'I' for Inactive)
REMARK    1  A    between atoms: C_1  and  C_2
REMARK    2  A    between atoms: C_2  and  N_3
REMARK    3  A    between atoms: C_10  and  C_11
REMARK    4  A    between atoms: C_19  and  C_20
REMARK                            x       y       z     vdW  Elec       q    Type
REMARK                         _______ _______ _______ _____ _____    ______ ____
ROOT
ATOM      1  N   UNL     1      -4.359  11.697  16.163  0.00  0.00    +0.000 N 
ATOM      2  C   UNL     1      -4.471  11.568  17.528  0.00  0.00    +0.000 C 
ATOM      3  O   UNL     1      -4.210  10.529  18.126  0.00  0.00    +0.000 OA
ATOM      4  N   UNL     1      -4.956  12.719  18.110  0.00  0.00    +0.000 N 
ATOM      5  C   UNL     1      -5.181  12.814  19.488  0.00  0.00    +0.000 A 
ATOM      6  C   UNL     1      -4.235  12.388  20.410  0.00  0.00    +0.000 A 
ATOM      7  C   UNL     1      -4.409  12.614  21.795  0.00  0.00    +0.000 A 
ATOM      8  C   UNL     1      -3.388  12.391  22.782  0.00  0.00    +0.000 A 
ATOM      9  C   UNL     1      -3.742  12.550  24.137  0.00  0.00    +0.000 A 
ATOM     10  C   UNL     1      -5.033  12.897  24.529  0.00  0.00    +0.000 A 
ATOM     11  C   UNL     1      -6.012  13.173  23.575  0.00  0.00    +0.000 A 
ATOM     12  C   UNL     1      -7.396  13.533  24.049  0.00  0.00    +0.000 C 
ATOM     13  C   UNL     1      -5.684  13.086  22.198  0.00  0.00    +0.000 A 
ATOM     14  C   UNL     1      -6.573  13.465  21.176  0.00  0.00    +0.000 A 
ATOM     15  N   UNL     1      -6.325  13.412  19.847  0.00  0.00    +0.000 NA
ATOM     16  H   UNL     1      -3.981  12.586  15.866  0.00  0.00    +0.000 HD
ATOM     17  H   UNL     1      -5.655  13.201  17.565  0.00  0.00    +0.000 HD
ENDROOT
BRANCH   8  18
ATOM     18  C   UNL     1      -1.964  12.066  22.454  0.00  0.00    +0.000 A 
ATOM     19  C   UNL     1      -1.363  10.859  22.845  0.00  0.00    +0.000 A 
ATOM     20  C   UNL     1      -0.030  10.619  22.542  0.00  0.00    +0.000 A 
ATOM     21  N   UNL     1       0.735  11.454  21.815  0.00  0.00    +0.000 NA
ATOM     22  C   UNL     1       0.140  12.586  21.389  0.00  0.00    +0.000 A 
ATOM     23  C   UNL     1      -1.170  12.934  21.690  0.00  0.00    +0.000 A 
ENDBRANCH   8  18
BRANCH   1  25
ATOM     24  C   UNL     1      -2.506  10.304  15.339  0.00  0.00    +0.000 C 
ATOM     25  C   UNL     1      -4.005  10.522  15.400  0.00  0.00    +0.000 C 
ENDBRANCH   1  25
TORSDOF 2
ENDMDL
