MODEL 1
REMARK VINA RESULT:      -8.1      0.000      0.000
REMARK  Name = 
REMARK  2 active torsions:
REMARK  status: ('A' for Active; 'I' for Inactive)
REMARK    1  A    between atoms: C_1  and  C_2
REMARK    2  A    between atoms: C_13  and  C_14
REMARK                            x       y       z     vdW  Elec       q    Type
REMARK                         _______ _______ _______ _____ _____    ______ ____
ROOT
ATOM      1  C   UNL     1       6.167   5.380  15.817  0.00  0.00    +0.000 C 
ATOM      2  C   UNL     1       4.954   5.732  16.624  0.00  0.00    +0.000 A 
ATOM      3  N   UNL     1       4.421   4.757  17.404  0.00  0.00    +0.000 NA
ATOM      4  C   UNL     1       3.402   5.059  18.237  0.00  0.00    +0.000 A 
ATOM      5  N   UNL     1       2.815   4.135  19.083  0.00  0.00    +0.000 N 
ATOM      6  C   UNL     1       2.996   2.713  18.802  0.00  0.00    +0.000 C 
ATOM      7  C   UNL     1       1.791   1.977  19.413  0.00  0.00    +0.000 C 
ATOM      8  C   UNL     1       1.551   2.343  20.886  0.00  0.00    +0.000 C 
ATOM      9  C   UNL     1       1.603   3.853  21.129  0.00  0.00    +0.000 C 
ATOM     10  C   UNL     1       2.867   4.444  20.513  0.00  0.00    +0.000 C 
ATOM     11  C   UNL     1       2.945   6.371  18.190  0.00  0.00    +0.000 A 
ATOM     12  N   UNL     1       1.923   7.003  18.851  0.00  0.00    +0.000 N 
ATOM     13  C   UNL     1       2.016   8.366  18.684  0.00  0.00    +0.000 A 
ATOM     14  C   UNL     1       2.918   8.556  17.645  0.00  0.00    +0.000 A 
ATOM     15  C   UNL     1       3.534   7.311  17.373  0.00  0.00    +0.000 A 
ATOM     16  N   UNL     1       4.559   7.017  16.548  0.00  0.00    +0.000 NA
ATOM     17  H   UNL     1       1.287   6.531  19.480  0.00  0.00    +0.000 HD
ENDROOT
BRANCH  13  18
ATOM     18  C   UNL     1       1.308   9.318  19.532  0.00  0.00    +0.000 A 
ATOM     19  C   UNL     1       1.039  10.615  19.082  0.00  0.00    +0.000 A 
ATOM     20  C   UNL     1       0.443  11.552  19.931  0.00  0.00    +0.000 A 
ATOM     21  C   UNL     1       0.110  11.202  21.240  0.00  0.00    +0.000 A 
ATOM     22  C   UNL     1       0.367   9.911  21.691  0.00  0.00    +0.000 A 
ATOM     23 CL   UNL     1      -0.018   9.479  23.312  0.00  0.00    +0.000 Cl
ATOM     24  C   UNL     1       0.957   8.971  20.848  0.00  0.00    +0.000 A 
ENDBRANCH  13  18
TORSDOF 1
ENDMDL
MODEL 2
REMARK VINA RESULT:      -8.1      5.428      7.956
REMARK  Name = 
REMARK  2 active torsions:
REMARK  status: ('A' for Active; 'I' for Inactive)
REMARK    1  A    between atoms: C_1  and  C_2
REMARK    2  A    between atoms: C_13  and  C_14
REMARK                            x       y       z     vdW  Elec       q    Type
REMARK                         _______ _______ _______ _____ _____    ______ ____
ROOT
ATOM      1  C   UNL     1       7.792   7.707  18.086  0.00  0.00    +0.000 C 
ATOM      2  C   UNL     1       7.240   6.498  17.393  0.00  0.00    +0.000 A 
ATOM      3  N   UNL     1       6.336   5.748  18.075  0.00  0.00    +0.000 NA
ATOM      4  C   UNL     1       5.722   4.721  17.450  0.00  0.00    +0.000 A 
ATOM      5  N   UNL     1       4.772   3.920  18.060  0.00  0.00    +0.000 N 
ATOM      6  C   UNL     1       4.709   3.897  19.519  0.00  0.00    +0.000 C 
ATOM      7  C   UNL     1       4.104   2.539  19.919  0.00  0.00    +0.000 C 
ATOM      8  C   UNL     1       2.789   2.231  19.187  0.00  0.00    +0.000 C 
ATOM      9  C   UNL     1       2.881   2.501  17.683  0.00  0.00    +0.000 C 
ATOM     10  C   UNL     1       3.450   3.894  17.431  0.00  0.00    +0.000 C 
ATOM     11  C   UNL     1       6.114   4.485  16.137  0.00  0.00    +0.000 A 
ATOM     12  N   UNL     1       5.740   3.523  15.235  0.00  0.00    +0.000 N 
ATOM     13  C   UNL     1       6.190   3.847  13.975  0.00  0.00    +0.000 A 
ATOM     14  C   UNL     1       7.126   4.857  14.159  0.00  0.00    +0.000 A 
ATOM     15  C   UNL     1       7.039   5.287  15.505  0.00  0.00    +0.000 A 
ATOM     16  N   UNL     1       7.645   6.322  16.121  0.00  0.00    +0.000 NA
ATOM     17  H   UNL     1       5.105   2.766  15.454  0.00  0.00    +0.000 HD
ENDROOT
BRANCH  13  18
ATOM     18  C   UNL     1       5.667   3.227  12.762  0.00  0.00    +0.000 A 
ATOM     19  C   UNL     1       6.266   2.079  12.231  0.00  0.00    +0.000 A 
ATOM     20  C   UNL     1       5.819   1.543  11.019  0.00  0.00    +0.000 A 
ATOM     21  C   UNL     1       4.771   2.149  10.327  0.00  0.00    +0.000 A 
ATOM     22  C   UNL     1       4.166   3.285  10.855  0.00  0.00    +0.000 A 
ATOM     23 CL   UNL     1       2.888   4.053   9.994  0.00  0.00    +0.000 Cl
ATOM     24  C   UNL     1       4.603   3.823  12.064  0.00  0.00    +0.000 A 
ENDBRANCH  13  18
TORSDOF 1
ENDMDL
MODEL 3
REMARK VINA RESULT:      -8.0      1.443      1.727
REMARK  Name = 
REMARK  2 active torsions:
REMARK  status: ('A' for Active; 'I' for Inactive)
REMARK    1  A    between atoms: C_1  and  C_2
REMARK    2  A    between atoms: C_13  and  C_14
REMARK                            x       y       z     vdW  Elec       q    Type
REMARK                         _______ _______ _______ _____ _____    ______ ____
ROOT
ATOM      1  C   UNL     1       6.852   5.268  16.540  0.00  0.00    +0.000 C 
ATOM      2  C   UNL     1       5.494   5.608  17.077  0.00  0.00    +0.000 A 
ATOM      3  N   UNL     1       4.857   4.655  17.804  0.00  0.00    +0.000 NA
ATOM      4  C   UNL     1       3.687   4.956  18.409  0.00  0.00    +0.000 A 
ATOM      5  N   UNL     1       2.982   4.055  19.187  0.00  0.00    +0.000 N 
ATOM      6  C   UNL     1       3.264   2.630  19.039  0.00  0.00    +0.000 C 
ATOM      7  C   UNL     1       1.991   1.874  19.458  0.00  0.00    +0.000 C 
ATOM      8  C   UNL     1       1.461   2.312  20.832  0.00  0.00    +0.000 C 
ATOM      9  C   UNL     1       1.411   3.835  20.980  0.00  0.00    +0.000 C 
ATOM     10  C   UNL     1       2.748   4.449  20.578  0.00  0.00    +0.000 C 
ATOM     11  C   UNL     1       3.201   6.240  18.190  0.00  0.00    +0.000 A 
ATOM     12  N   UNL     1       2.050   6.860  18.603  0.00  0.00    +0.000 N 
ATOM     13  C   UNL     1       2.124   8.214  18.368  0.00  0.00    +0.000 A 
ATOM     14  C   UNL     1       3.202   8.387  17.508  0.00  0.00    +0.000 A 
ATOM     15  C   UNL     1       3.902   7.158  17.439  0.00  0.00    +0.000 A 
ATOM     16  N   UNL     1       5.076   6.866  16.844  0.00  0.00    +0.000 NA
ATOM     17  H   UNL     1       1.322   6.395  19.130  0.00  0.00    +0.000 HD
ENDROOT
BRANCH  13  18
ATOM     18  C   UNL     1       1.233   9.179  19.002  0.00  0.00    +0.000 A 
ATOM     19  C   UNL     1       1.083   9.207  20.393  0.00  0.00    +0.000 A 
ATOM     20  C   UNL     1       0.159  10.069  20.990  0.00  0.00    +0.000 A 
ATOM     21  C   UNL     1      -0.625  10.912  20.202  0.00  0.00    +0.000 A 
ATOM     22  C   UNL     1      -0.475  10.895  18.820  0.00  0.00    +0.000 A 
ATOM     23 CL   UNL     1      -1.456  11.915  17.839  0.00  0.00    +0.000 Cl
ATOM     24  C   UNL     1       0.448  10.041  18.218  0.00  0.00    +0.000 A 
ENDBRANCH  13  18
TORSDOF 1
ENDMDL
MODEL 4
REMARK VINA RESULT:      -7.9      1.581      3.994
REMARK  Name = 
REMARK  2 active torsions:
REMARK  status: ('A' for Active; 'I' for Inactive)
REMARK    1  A    between atoms: C_1  and  C_2
REMARK    2  A    between atoms: C_13  and  C_14
REMARK                            x       y       z     vdW  Elec       q    Type
REMARK                         _______ _______ _______ _____ _____    ______ ____
ROOT
ATOM      1  C   UNL     1       3.162   1.262  18.957  0.00  0.00    +0.000 C 
ATOM      2  C   UNL     1       3.271   2.730  19.241  0.00  0.00    +0.000 A 
ATOM      3  N   UNL     1       4.349   3.383  18.736  0.00  0.00    +0.000 NA
ATOM      4  C   UNL     1       4.428   4.725  18.863  0.00  0.00    +0.000 A 
ATOM      5  N   UNL     1       5.477   5.474  18.359  0.00  0.00    +0.000 N 
ATOM      6  C   UNL     1       6.732   4.796  18.042  0.00  0.00    +0.000 C 
ATOM      7  C   UNL     1       7.850   5.849  18.151  0.00  0.00    +0.000 C 
ATOM      8  C   UNL     1       7.553   7.121  17.343  0.00  0.00    +0.000 C 
ATOM      9  C   UNL     1       6.129   7.637  17.567  0.00  0.00    +0.000 C 
ATOM     10  C   UNL     1       5.123   6.505  17.382  0.00  0.00    +0.000 C 
ATOM     11  C   UNL     1       3.391   5.334  19.560  0.00  0.00    +0.000 A 
ATOM     12  N   UNL     1       3.173   6.642  19.907  0.00  0.00    +0.000 N 
ATOM     13  C   UNL     1       1.882   6.809  20.358  0.00  0.00    +0.000 A 
ATOM     14  C   UNL     1       1.399   5.528  20.593  0.00  0.00    +0.000 A 
ATOM     15  C   UNL     1       2.326   4.608  20.046  0.00  0.00    +0.000 A 
ATOM     16  N   UNL     1       2.235   3.270  19.911  0.00  0.00    +0.000 NA
ATOM     17  H   UNL     1       3.830   7.389  19.719  0.00  0.00    +0.000 HD
ENDROOT
BRANCH  13  18
ATOM     18  C   UNL     1       1.243   8.116  20.464  0.00  0.00    +0.000 A 
ATOM     19  C   UNL     1       1.365   9.057  19.436  0.00  0.00    +0.000 A 
ATOM     20  C   UNL     1       0.830  10.340  19.583  0.00  0.00    +0.000 A 
ATOM     21  C   UNL     1       0.167  10.695  20.758  0.00  0.00    +0.000 A 
ATOM     22  C   UNL     1       0.035   9.761  21.780  0.00  0.00    +0.000 A 
ATOM     23 CL   UNL     1      -0.760  10.198  23.243  0.00  0.00    +0.000 Cl
ATOM     24  C   UNL     1       0.563   8.478  21.639  0.00  0.00    +0.000 A 
ENDBRANCH  13  18
TORSDOF 1
ENDMDL
MODEL 5
REMARK VINA RESULT:      -7.7      1.884      1.965
REMARK  Name = 
REMARK  2 active torsions:
REMARK  status: ('A' for Active; 'I' for Inactive)
REMARK    1  A    between atoms: C_1  and  C_2
REMARK    2  A    between atoms: C_13  and  C_14
REMARK                            x       y       z     vdW  Elec       q    Type
REMARK                         _______ _______ _______ _____ _____    ______ ____
ROOT
ATOM      1  C   UNL     1       7.448   4.750  17.437  0.00  0.00    +0.000 C 
ATOM      2  C   UNL     1       6.042   5.243  17.598  0.00  0.00    +0.000 A 
ATOM      3  N   UNL     1       5.181   4.453  18.290  0.00  0.00    +0.000 NA
ATOM      4  C   UNL     1       3.940   4.908  18.564  0.00  0.00    +0.000 A 
ATOM      5  N   UNL     1       3.007   4.182  19.283  0.00  0.00    +0.000 N 
ATOM      6  C   UNL     1       3.189   2.738  19.409  0.00  0.00    +0.000 C 
ATOM      7  C   UNL     1       1.794   2.128  19.632  0.00  0.00    +0.000 C 
ATOM      8  C   UNL     1       1.020   2.806  20.772  0.00  0.00    +0.000 C 
ATOM      9  C   UNL     1       1.072   4.334  20.685  0.00  0.00    +0.000 C 
ATOM     10  C   UNL     1       2.513   4.803  20.513  0.00  0.00    +0.000 C 
ATOM     11  C   UNL     1       3.626   6.165  18.058  0.00  0.00    +0.000 A 
ATOM     12  N   UNL     1       2.472   6.903  18.106  0.00  0.00    +0.000 N 
ATOM     13  C   UNL     1       2.714   8.197  17.702  0.00  0.00    +0.000 A 
ATOM     14  C   UNL     1       3.962   8.172  17.094  0.00  0.00    +0.000 A 
ATOM     15  C   UNL     1       4.550   6.913  17.363  0.00  0.00    +0.000 A 
ATOM     16  N   UNL     1       5.795   6.468  17.098  0.00  0.00    +0.000 NA
ATOM     17  H   UNL     1       1.609   6.568  18.516  0.00  0.00    +0.000 HD
ENDROOT
BRANCH  13  18
ATOM     18  C   UNL     1       1.794   9.296  17.973  0.00  0.00    +0.000 A 
ATOM     19  C   UNL     1       2.260  10.504  18.502  0.00  0.00    +0.000 A 
ATOM     20  C   UNL     1       1.364  11.520  18.847  0.00  0.00    +0.000 A 
ATOM     21  C   UNL     1      -0.007  11.339  18.666  0.00  0.00    +0.000 A 
ATOM     22  C   UNL     1      -0.476  10.143  18.132  0.00  0.00    +0.000 A 
ATOM     23 CL   UNL     1      -2.169   9.901  17.929  0.00  0.00    +0.000 Cl
ATOM     24  C   UNL     1       0.412   9.127  17.783  0.00  0.00    +0.000 A 
ENDBRANCH  13  18
TORSDOF 1
ENDMDL
MODEL 6
REMARK VINA RESULT:      -7.7      0.993      1.038
REMARK  Name = 
REMARK  2 active torsions:
REMARK  status: ('A' for Active; 'I' for Inactive)
REMARK    1  A    between atoms: C_1  and  C_2
REMARK    2  A    between atoms: C_13  and  C_14
REMARK                            x       y       z     vdW  Elec       q    Type
REMARK                         _______ _______ _______ _____ _____    ______ ____
ROOT
ATOM      1  C   UNL     1       7.217   5.743  17.215  0.00  0.00    +0.000 C 
ATOM      2  C   UNL     1       5.770   5.965  17.536  0.00  0.00    +0.000 A 
ATOM      3  N   UNL     1       5.106   4.951  18.147  0.00  0.00    +0.000 NA
ATOM      4  C   UNL     1       3.836   5.148  18.563  0.00  0.00    +0.000 A 
ATOM      5  N   UNL     1       3.093   4.179  19.216  0.00  0.00    +0.000 N 
ATOM      6  C   UNL     1       3.509   2.784  19.103  0.00  0.00    +0.000 C 
ATOM      7  C   UNL     1       2.250   1.923  19.312  0.00  0.00    +0.000 C 
ATOM      8  C   UNL     1       1.480   2.291  20.589  0.00  0.00    +0.000 C 
ATOM      9  C   UNL     1       1.285   3.802  20.739  0.00  0.00    +0.000 C 
ATOM     10  C   UNL     1       2.615   4.526  20.555  0.00  0.00    +0.000 C 
ATOM     11  C   UNL     1       3.288   6.394  18.280  0.00  0.00    +0.000 A 
ATOM     12  N   UNL     1       2.041   6.913  18.512  0.00  0.00    +0.000 N 
ATOM     13  C   UNL     1       2.042   8.274  18.301  0.00  0.00    +0.000 A 
ATOM     14  C   UNL     1       3.222   8.547  17.622  0.00  0.00    +0.000 A 
ATOM     15  C   UNL     1       4.021   7.379  17.655  0.00  0.00    +0.000 A 
ATOM     16  N   UNL     1       5.293   7.191  17.249  0.00  0.00    +0.000 NA
ATOM     17  H   UNL     1       1.279   6.383  18.916  0.00  0.00    +0.000 HD
ENDROOT
BRANCH  13  18
ATOM     18  C   UNL     1       0.988   9.153  18.795  0.00  0.00    +0.000 A 
ATOM     19  C   UNL     1       0.156   9.842  17.906  0.00  0.00    +0.000 A 
ATOM     20  C   UNL     1      -0.790  10.754  18.382  0.00  0.00    +0.000 A 
ATOM     21  C   UNL     1      -0.914  10.988  19.751  0.00  0.00    +0.000 A 
ATOM     22  C   UNL     1      -0.095  10.300  20.641  0.00  0.00    +0.000 A 
ATOM     23 CL   UNL     1      -0.225  10.600  22.331  0.00  0.00    +0.000 Cl
ATOM     24  C   UNL     1       0.848   9.386  20.174  0.00  0.00    +0.000 A 
ENDBRANCH  13  18
TORSDOF 1
ENDMDL
MODEL 7
REMARK VINA RESULT:      -7.7      3.472      6.896
REMARK  Name = 
REMARK  2 active torsions:
REMARK  status: ('A' for Active; 'I' for Inactive)
REMARK    1  A    between atoms: C_1  and  C_2
REMARK    2  A    between atoms: C_13  and  C_14
REMARK                            x       y       z     vdW  Elec       q    Type
REMARK                         _______ _______ _______ _____ _____    ______ ____
ROOT
ATOM      1  C   UNL     1       1.677   8.935  19.038  0.00  0.00    +0.000 C 
ATOM      2  C   UNL     1       2.502   7.801  18.506  0.00  0.00    +0.000 A 
ATOM      3  N   UNL     1       2.181   6.550  18.923  0.00  0.00    +0.000 NA
ATOM      4  C   UNL     1       2.815   5.489  18.379  0.00  0.00    +0.000 A 
ATOM      5  N   UNL     1       2.536   4.178  18.727  0.00  0.00    +0.000 N 
ATOM      6  C   UNL     1       1.845   3.920  19.987  0.00  0.00    +0.000 C 
ATOM      7  C   UNL     1       2.237   2.500  20.431  0.00  0.00    +0.000 C 
ATOM      8  C   UNL     1       2.032   1.451  19.327  0.00  0.00    +0.000 C 
ATOM      9  C   UNL     1       2.593   1.905  17.978  0.00  0.00    +0.000 C 
ATOM     10  C   UNL     1       2.088   3.305  17.641  0.00  0.00    +0.000 C 
ATOM     11  C   UNL     1       3.803   5.782  17.447  0.00  0.00    +0.000 A 
ATOM     12  N   UNL     1       4.659   4.974  16.742  0.00  0.00    +0.000 N 
ATOM     13  C   UNL     1       5.276   5.688  15.740  0.00  0.00    +0.000 A 
ATOM     14  C   UNL     1       5.039   7.025  16.032  0.00  0.00    +0.000 A 
ATOM     15  C   UNL     1       4.078   7.078  17.070  0.00  0.00    +0.000 A 
ATOM     16  N   UNL     1       3.438   8.140  17.600  0.00  0.00    +0.000 NA
ATOM     17  H   UNL     1       4.710   3.970  16.865  0.00  0.00    +0.000 HD
ENDROOT
BRANCH  13  18
ATOM     18  C   UNL     1       5.956   5.052  14.617  0.00  0.00    +0.000 A 
ATOM     19  C   UNL     1       7.267   5.406  14.281  0.00  0.00    +0.000 A 
ATOM     20  C   UNL     1       7.881   4.862  13.149  0.00  0.00    +0.000 A 
ATOM     21  C   UNL     1       7.190   3.959  12.341  0.00  0.00    +0.000 A 
ATOM     22  C   UNL     1       5.890   3.596  12.675  0.00  0.00    +0.000 A 
ATOM     23 CL   UNL     1       5.022   2.501  11.669  0.00  0.00    +0.000 Cl
ATOM     24  C   UNL     1       5.272   4.131  13.804  0.00  0.00    +0.000 A 
ENDBRANCH  13  18
TORSDOF 1
ENDMDL
MODEL 8
REMARK VINA RESULT:      -7.7      5.571      7.992
REMARK  Name = 
REMARK  2 active torsions:
REMARK  status: ('A' for Active; 'I' for Inactive)
REMARK    1  A    between atoms: C_1  and  C_2
REMARK    2  A    between atoms: C_13  and  C_14
REMARK                            x       y       z     vdW  Elec       q    Type
REMARK                         _______ _______ _______ _____ _____    ______ ____
ROOT
ATOM      1  C   UNL     1       7.844   7.823  18.224  0.00  0.00    +0.000 C 
ATOM      2  C   UNL     1       7.267   6.632  17.519  0.00  0.00    +0.000 A 
ATOM      3  N   UNL     1       6.330   5.909  18.186  0.00  0.00    +0.000 NA
ATOM      4  C   UNL     1       5.696   4.902  17.549  0.00  0.00    +0.000 A 
ATOM      5  N   UNL     1       4.713   4.129  18.142  0.00  0.00    +0.000 N 
ATOM      6  C   UNL     1       4.625   4.105  19.599  0.00  0.00    +0.000 C 
ATOM      7  C   UNL     1       3.974   2.766  19.988  0.00  0.00    +0.000 C 
ATOM      8  C   UNL     1       2.663   2.498  19.234  0.00  0.00    +0.000 C 
ATOM      9  C   UNL     1       2.786   2.768  17.732  0.00  0.00    +0.000 C 
ATOM     10  C   UNL     1       3.401   4.143  17.492  0.00  0.00    +0.000 C 
ATOM     11  C   UNL     1       6.101   4.656  16.242  0.00  0.00    +0.000 A 
ATOM     12  N   UNL     1       5.713   3.707  15.331  0.00  0.00    +0.000 N 
ATOM     13  C   UNL     1       6.193   4.020  14.079  0.00  0.00    +0.000 A 
ATOM     14  C   UNL     1       7.155   5.001  14.281  0.00  0.00    +0.000 A 
ATOM     15  C   UNL     1       7.060   5.431  15.626  0.00  0.00    +0.000 A 
ATOM     16  N   UNL     1       7.686   6.446  16.254  0.00  0.00    +0.000 NA
ATOM     17  H   UNL     1       5.052   2.969  15.539  0.00  0.00    +0.000 HD
ENDROOT
BRANCH  13  18
ATOM     18  C   UNL     1       5.671   3.418  12.858  0.00  0.00    +0.000 A 
ATOM     19  C   UNL     1       4.619   4.018  12.157  0.00  0.00    +0.000 A 
ATOM     20  C   UNL     1       4.060   3.390  11.040  0.00  0.00    +0.000 A 
ATOM     21  C   UNL     1       4.547   2.155  10.613  0.00  0.00    +0.000 A 
ATOM     22  C   UNL     1       5.599   1.557  11.300  0.00  0.00    +0.000 A 
ATOM     23 CL   UNL     1       6.189   0.021  10.793  0.00  0.00    +0.000 Cl
ATOM     24  C   UNL     1       6.163   2.179  12.412  0.00  0.00    +0.000 A 
ENDBRANCH  13  18
TORSDOF 1
ENDMDL
MODEL 9
REMARK VINA RESULT:      -7.6      1.928      4.268
REMARK  Name = 
REMARK  2 active torsions:
REMARK  status: ('A' for Active; 'I' for Inactive)
REMARK    1  A    between atoms: C_1  and  C_2
REMARK    2  A    between atoms: C_13  and  C_14
REMARK                            x       y       z     vdW  Elec       q    Type
REMARK                         _______ _______ _______ _____ _____    ______ ____
ROOT
ATOM      1  C   UNL     1       3.220   1.133  18.879  0.00  0.00    +0.000 C 
ATOM      2  C   UNL     1       3.319   2.593  19.201  0.00  0.00    +0.000 A 
ATOM      3  N   UNL     1       4.377   3.273  18.689  0.00  0.00    +0.000 NA
ATOM      4  C   UNL     1       4.443   4.612  18.851  0.00  0.00    +0.000 A 
ATOM      5  N   UNL     1       5.471   5.387  18.344  0.00  0.00    +0.000 N 
ATOM      6  C   UNL     1       6.726   4.734  17.979  0.00  0.00    +0.000 C 
ATOM      7  C   UNL     1       7.834   5.797  18.091  0.00  0.00    +0.000 C 
ATOM      8  C   UNL     1       7.503   7.088  17.326  0.00  0.00    +0.000 C 
ATOM      9  C   UNL     1       6.079   7.579  17.597  0.00  0.00    +0.000 C 
ATOM     10  C   UNL     1       5.082   6.441  17.405  0.00  0.00    +0.000 C 
ATOM     11  C   UNL     1       3.416   5.188  19.590  0.00  0.00    +0.000 A 
ATOM     12  N   UNL     1       3.191   6.484  19.978  0.00  0.00    +0.000 N 
ATOM     13  C   UNL     1       1.910   6.622  20.464  0.00  0.00    +0.000 A 
ATOM     14  C   UNL     1       1.447   5.330  20.675  0.00  0.00    +0.000 A 
ATOM     15  C   UNL     1       2.371   4.437  20.081  0.00  0.00    +0.000 A 
ATOM     16  N   UNL     1       2.293   3.102  19.910  0.00  0.00    +0.000 NA
ATOM     17  H   UNL     1       3.834   7.243  19.796  0.00  0.00    +0.000 HD
ENDROOT
BRANCH  13  18
ATOM     18  C   UNL     1       1.258   7.918  20.622  0.00  0.00    +0.000 A 
ATOM     19  C   UNL     1       0.340   8.135  21.656  0.00  0.00    +0.000 A 
ATOM     20  C   UNL     1      -0.351   9.347  21.747  0.00  0.00    +0.000 A 
ATOM     21  C   UNL     1      -0.132  10.353  20.806  0.00  0.00    +0.000 A 
ATOM     22  C   UNL     1       0.786  10.146  19.781  0.00  0.00    +0.000 A 
ATOM     23 CL   UNL     1       1.043  11.374  18.602  0.00  0.00    +0.000 Cl
ATOM     24  C   UNL     1       1.481   8.942  19.686  0.00  0.00    +0.000 A 
ENDBRANCH  13  18
TORSDOF 1
ENDMDL
