MODEL 1
REMARK VINA RESULT:      -6.5      0.000      0.000
REMARK  Name = 
REMARK  6 active torsions:
REMARK  status: ('A' for Active; 'I' for Inactive)
REMARK    1  A    between atoms: C_1  and  N_2
REMARK    2  A    between atoms: C_4  and  C_5
REMARK    3  A    between atoms: C_11  and  C_12
REMARK    4  A    between atoms: C_18  and  C_19
REMARK    5  A    between atoms: N_21  and  C_22
REMARK    6  A    between atoms: C_27  and  C_28
REMARK                            x       y       z     vdW  Elec       q    Type
REMARK                         _______ _______ _______ _____ _____    ______ ____
ROOT
ATOM      1  C   UNL     1      -7.376  12.287  20.455  0.00  0.00    +0.000 C 
ATOM      2  N   UNL     1      -5.936  12.293  20.292  0.00  0.00    +0.000 N 
ATOM      3  N   UNL     1      -5.449  11.752  19.144  0.00  0.00    +0.000 NA
ATOM      4  C   UNL     1      -4.163  11.703  18.969  0.00  0.00    +0.000 A 
ATOM      5  C   UNL     1      -3.167  12.259  19.961  0.00  0.00    +0.000 A 
ATOM      6  C   UNL     1      -3.679  12.822  21.081  0.00  0.00    +0.000 A 
ATOM      7  C   UNL     1      -5.153  12.790  21.310  0.00  0.00    +0.000 A 
ATOM      8  O   UNL     1      -5.632  13.198  22.374  0.00  0.00    +0.000 OA
ENDROOT
BRANCH   4   9
ATOM      9  C   UNL     1      -3.708  11.078  17.674  0.00  0.00    +0.000 A 
ATOM     10  C   UNL     1      -2.788  10.015  17.726  0.00  0.00    +0.000 A 
ATOM     11  C   UNL     1      -2.293   9.438  16.550  0.00  0.00    +0.000 A 
ATOM     12  C   UNL     1      -2.718   9.905  15.310  0.00  0.00    +0.000 A 
ATOM     13  C   UNL     1      -3.610  10.969  15.245  0.00  0.00    +0.000 A 
ATOM     14  C   UNL     1      -4.073  11.573  16.419  0.00  0.00    +0.000 A 
ENDBRANCH   4   9
BRANCH   5  15
ATOM     15  C   UNL     1      -1.713  12.228  19.712  0.00  0.00    +0.000 A 
ATOM     16  C   UNL     1      -1.117  13.204  18.893  0.00  0.00    +0.000 A 
ATOM     17  C   UNL     1       0.260  13.192  18.663  0.00  0.00    +0.000 A 
ATOM     18  C   UNL     1       1.045  12.176  19.204  0.00  0.00    +0.000 A 
ATOM     19  C   UNL     1       0.460  11.184  19.993  0.00  0.00    +0.000 A 
ATOM     20  C   UNL     1      -0.910  11.217  20.262  0.00  0.00    +0.000 A 
ENDBRANCH   5  15
BRANCH   6  21
ATOM     21  C   UNL     1      -2.809  13.558  22.071  0.00  0.00    +0.000 C 
ATOM     22  O   UNL     1      -2.167  12.952  22.927  0.00  0.00    +0.000 OA
ATOM     23  N   UNL     1      -2.814  14.932  21.971  0.00  0.00    +0.000 N 
ATOM     24  H   UNL     1      -3.535  15.380  21.401  0.00  0.00    +0.000 HD
BRANCH  23  25
ATOM     25  C   UNL     1      -2.024  15.796  22.764  0.00  0.00    +0.000 A 
ATOM     26  C   UNL     1      -0.798  16.279  22.287  0.00  0.00    +0.000 A 
ATOM     27  C   UNL     1      -0.041  17.177  23.043  0.00  0.00    +0.000 A 
ATOM     28  C   UNL     1      -0.497  17.601  24.288  0.00  0.00    +0.000 A 
ATOM     29  C   UNL     1      -1.707  17.116  24.785  0.00  0.00    +0.000 A 
ATOM     30  C   UNL     1      -2.471  16.208  24.033  0.00  0.00    +0.000 A 
BRANCH  30  31
ATOM     31  C   UNL     1      -3.682  15.586  24.637  0.00  0.00    +0.000 C 
ATOM     32  N   UNL     1      -3.470  14.532  25.487  0.00  0.00    +0.000 N 
ATOM     33  O   UNL     1      -4.817  15.940  24.343  0.00  0.00    +0.000 OA
ATOM     34  H   UNL     1      -2.579  14.056  25.533  0.00  0.00    +0.000 HD
ATOM     35  H   UNL     1      -4.289  14.011  25.773  0.00  0.00    +0.000 HD
ENDBRANCH  30  31
ENDBRANCH  23  25
ENDBRANCH   6  21
TORSDOF 5
ENDMDL
MODEL 2
REMARK VINA RESULT:      -6.4      8.253     11.900
REMARK  Name = 
REMARK  6 active torsions:
REMARK  status: ('A' for Active; 'I' for Inactive)
REMARK    1  A    between atoms: C_1  and  N_2
REMARK    2  A    between atoms: C_4  and  C_5
REMARK    3  A    between atoms: C_11  and  C_12
REMARK    4  A    between atoms: C_18  and  C_19
REMARK    5  A    between atoms: N_21  and  C_22
REMARK    6  A    between atoms: C_27  and  C_28
REMARK                            x       y       z     vdW  Elec       q    Type
REMARK                         _______ _______ _______ _____ _____    ______ ____
ROOT
ATOM      1  C   UNL     1       6.029  11.588  25.260  0.00  0.00    +0.000 C 
ATOM      2  N   UNL     1       6.164  12.537  24.174  0.00  0.00    +0.000 N 
ATOM      3  N   UNL     1       5.170  13.454  24.036  0.00  0.00    +0.000 NA
ATOM      4  C   UNL     1       5.230  14.303  23.055  0.00  0.00    +0.000 A 
ATOM      5  C   UNL     1       6.377  14.359  22.072  0.00  0.00    +0.000 A 
ATOM      6  C   UNL     1       7.370  13.455  22.251  0.00  0.00    +0.000 A 
ATOM      7  C   UNL     1       7.244  12.429  23.325  0.00  0.00    +0.000 A 
ATOM      8  O   UNL     1       8.083  11.529  23.435  0.00  0.00    +0.000 OA
ENDROOT
BRANCH   4   9
ATOM      9  C   UNL     1       4.082  15.278  22.970  0.00  0.00    +0.000 A 
ATOM     10  C   UNL     1       4.067  16.378  23.846  0.00  0.00    +0.000 A 
ATOM     11  C   UNL     1       2.996  17.280  23.846  0.00  0.00    +0.000 A 
ATOM     12  C   UNL     1       1.935  17.104  22.962  0.00  0.00    +0.000 A 
ATOM     13  C   UNL     1       1.928  16.009  22.106  0.00  0.00    +0.000 A 
ATOM     14  C   UNL     1       2.977  15.084  22.136  0.00  0.00    +0.000 A 
ENDBRANCH   4   9
BRANCH   5  15
ATOM     15  C   UNL     1       6.437  15.365  20.994  0.00  0.00    +0.000 A 
ATOM     16  C   UNL     1       7.060  16.605  21.223  0.00  0.00    +0.000 A 
ATOM     17  C   UNL     1       7.135  17.558  20.206  0.00  0.00    +0.000 A 
ATOM     18  C   UNL     1       6.543  17.304  18.971  0.00  0.00    +0.000 A 
ATOM     19  C   UNL     1       5.896  16.088  18.742  0.00  0.00    +0.000 A 
ATOM     20  C   UNL     1       5.856  15.115  19.742  0.00  0.00    +0.000 A 
ENDBRANCH   5  15
BRANCH   6  21
ATOM     21  C   UNL     1       8.646  13.506  21.445  0.00  0.00    +0.000 C 
ATOM     22  O   UNL     1       9.485  14.384  21.636  0.00  0.00    +0.000 OA
ATOM     23  N   UNL     1       8.784  12.537  20.476  0.00  0.00    +0.000 N 
ATOM     24  H   UNL     1       7.963  11.986  20.212  0.00  0.00    +0.000 HD
BRANCH  23  25
ATOM     25  C   UNL     1       9.926  12.379  19.657  0.00  0.00    +0.000 A 
ATOM     26  C   UNL     1      11.077  11.753  20.156  0.00  0.00    +0.000 A 
ATOM     27  C   UNL     1      12.188  11.544  19.335  0.00  0.00    +0.000 A 
ATOM     28  C   UNL     1      12.165  11.960  18.007  0.00  0.00    +0.000 A 
ATOM     29  C   UNL     1      11.033  12.600  17.500  0.00  0.00    +0.000 A 
ATOM     30  C   UNL     1       9.914  12.819  18.322  0.00  0.00    +0.000 A 
BRANCH  30  31
ATOM     31  C   UNL     1       8.775  13.632  17.813  0.00  0.00    +0.000 C 
ATOM     32  N   UNL     1       7.829  12.967  17.077  0.00  0.00    +0.000 N 
ATOM     33  O   UNL     1       8.711  14.845  17.974  0.00  0.00    +0.000 OA
ATOM     34  H   UNL     1       7.995  12.041  16.707  0.00  0.00    +0.000 HD
ATOM     35  H   UNL     1       7.142  13.539  16.601  0.00  0.00    +0.000 HD
ENDBRANCH  30  31
ENDBRANCH  23  25
ENDBRANCH   6  21
TORSDOF 5
ENDMDL
MODEL 3
REMARK VINA RESULT:      -6.3      0.653      1.074
REMARK  Name = 
REMARK  6 active torsions:
REMARK  status: ('A' for Active; 'I' for Inactive)
REMARK    1  A    between atoms: C_1  and  N_2
REMARK    2  A    between atoms: C_4  and  C_5
REMARK    3  A    between atoms: C_11  and  C_12
REMARK    4  A    between atoms: C_18  and  C_19
REMARK    5  A    between atoms: N_21  and  C_22
REMARK    6  A    between atoms: C_27  and  C_28
REMARK                            x       y       z     vdW  Elec       q    Type
REMARK                         _______ _______ _______ _____ _____    ______ ____
ROOT
ATOM      1  C   UNL     1      -7.122  12.282  20.636  0.00  0.00    +0.000 C 
ATOM      2  N   UNL     1      -5.694  12.252  20.398  0.00  0.00    +0.000 N 
ATOM      3  N   UNL     1      -5.283  11.743  19.207  0.00  0.00    +0.000 NA
ATOM      4  C   UNL     1      -4.009  11.662  18.962  0.00  0.00    +0.000 A 
ATOM      5  C   UNL     1      -2.947  12.149  19.921  0.00  0.00    +0.000 A 
ATOM      6  C   UNL     1      -3.383  12.682  21.088  0.00  0.00    +0.000 A 
ATOM      7  C   UNL     1      -4.844  12.684  21.393  0.00  0.00    +0.000 A 
ATOM      8  O   UNL     1      -5.254  13.063  22.495  0.00  0.00    +0.000 OA
ENDROOT
BRANCH   4   9
ATOM      9  C   UNL     1      -3.642  11.077  17.622  0.00  0.00    +0.000 A 
ATOM     10  C   UNL     1      -2.663  10.068  17.574  0.00  0.00    +0.000 A 
ATOM     11  C   UNL     1      -2.246   9.531  16.350  0.00  0.00    +0.000 A 
ATOM     12  C   UNL     1      -2.810   9.985  15.161  0.00  0.00    +0.000 A 
ATOM     13  C   UNL     1      -3.762  10.996  15.193  0.00  0.00    +0.000 A 
ATOM     14  C   UNL     1      -4.148  11.562  16.413  0.00  0.00    +0.000 A 
ENDBRANCH   4   9
BRANCH   5  15
ATOM     15  C   UNL     1      -1.509  12.085  19.596  0.00  0.00    +0.000 A 
ATOM     16  C   UNL     1      -0.734  10.999  20.041  0.00  0.00    +0.000 A 
ATOM     17  C   UNL     1       0.623  10.921  19.727  0.00  0.00    +0.000 A 
ATOM     18  C   UNL     1       1.231  11.952  19.013  0.00  0.00    +0.000 A 
ATOM     19  C   UNL     1       0.478  13.050  18.592  0.00  0.00    +0.000 A 
ATOM     20  C   UNL     1      -0.890  13.110  18.867  0.00  0.00    +0.000 A 
ENDBRANCH   5  15
BRANCH   6  21
ATOM     21  C   UNL     1      -2.441  13.351  22.058  0.00  0.00    +0.000 C 
ATOM     22  O   UNL     1      -1.655  12.694  22.738  0.00  0.00    +0.000 OA
ATOM     23  N   UNL     1      -2.546  14.721  22.151  0.00  0.00    +0.000 N 
ATOM     24  H   UNL     1      -3.363  15.180  21.740  0.00  0.00    +0.000 HD
BRANCH  23  25
ATOM     25  C   UNL     1      -1.717  15.536  22.956  0.00  0.00    +0.000 A 
ATOM     26  C   UNL     1      -0.472  15.971  22.483  0.00  0.00    +0.000 A 
ATOM     27  C   UNL     1       0.327  16.822  23.252  0.00  0.00    +0.000 A 
ATOM     28  C   UNL     1      -0.108  17.246  24.504  0.00  0.00    +0.000 A 
ATOM     29  C   UNL     1      -1.337  16.809  24.997  0.00  0.00    +0.000 A 
ATOM     30  C   UNL     1      -2.143  15.947  24.232  0.00  0.00    +0.000 A 
BRANCH  30  31
ATOM     31  C   UNL     1      -3.379  15.371  24.829  0.00  0.00    +0.000 C 
ATOM     32  N   UNL     1      -4.442  16.224  24.978  0.00  0.00    +0.000 N 
ATOM     33  O   UNL     1      -3.435  14.218  25.237  0.00  0.00    +0.000 OA
ATOM     34  H   UNL     1      -4.336  17.227  24.902  0.00  0.00    +0.000 HD
ATOM     35  H   UNL     1      -5.224  15.881  25.522  0.00  0.00    +0.000 HD
ENDBRANCH  30  31
ENDBRANCH  23  25
ENDBRANCH   6  21
TORSDOF 5
ENDMDL
MODEL 4
REMARK VINA RESULT:      -6.3      2.653      5.991
REMARK  Name = 
REMARK  6 active torsions:
REMARK  status: ('A' for Active; 'I' for Inactive)
REMARK    1  A    between atoms: C_1  and  N_2
REMARK    2  A    between atoms: C_4  and  C_5
REMARK    3  A    between atoms: C_11  and  C_12
REMARK    4  A    between atoms: C_18  and  C_19
REMARK    5  A    between atoms: N_21  and  C_22
REMARK    6  A    between atoms: C_27  and  C_28
REMARK                            x       y       z     vdW  Elec       q    Type
REMARK                         _______ _______ _______ _____ _____    ______ ____
ROOT
ATOM      1  C   UNL     1      -5.836  10.839  18.042  0.00  0.00    +0.000 C 
ATOM      2  N   UNL     1      -5.153  11.628  19.048  0.00  0.00    +0.000 N 
ATOM      3  N   UNL     1      -5.914  12.114  20.064  0.00  0.00    +0.000 NA
ATOM      4  C   UNL     1      -5.353  12.856  20.971  0.00  0.00    +0.000 A 
ATOM      5  C   UNL     1      -3.876  13.178  20.984  0.00  0.00    +0.000 A 
ATOM      6  C   UNL     1      -3.134  12.655  19.978  0.00  0.00    +0.000 A 
ATOM      7  C   UNL     1      -3.807  11.880  18.895  0.00  0.00    +0.000 A 
ATOM      8  O   UNL     1      -3.168  11.489  17.913  0.00  0.00    +0.000 OA
ENDROOT
BRANCH   4   9
ATOM      9  C   UNL     1      -6.271  13.361  22.055  0.00  0.00    +0.000 A 
ATOM     10  C   UNL     1      -6.779  14.668  21.952  0.00  0.00    +0.000 A 
ATOM     11  C   UNL     1      -7.590  15.203  22.960  0.00  0.00    +0.000 A 
ATOM     12  C   UNL     1      -7.915  14.437  24.076  0.00  0.00    +0.000 A 
ATOM     13  C   UNL     1      -7.401  13.152  24.200  0.00  0.00    +0.000 A 
ATOM     14  C   UNL     1      -6.556  12.632  23.213  0.00  0.00    +0.000 A 
ENDBRANCH   4   9
BRANCH   5  15
ATOM     15  C   UNL     1      -3.260  13.987  22.052  0.00  0.00    +0.000 A 
ATOM     16  C   UNL     1      -2.855  13.378  23.253  0.00  0.00    +0.000 A 
ATOM     17  C   UNL     1      -2.259  14.132  24.265  0.00  0.00    +0.000 A 
ATOM     18  C   UNL     1      -2.110  15.508  24.109  0.00  0.00    +0.000 A 
ATOM     19  C   UNL     1      -2.535  16.129  22.934  0.00  0.00    +0.000 A 
ATOM     20  C   UNL     1      -3.093  15.372  21.902  0.00  0.00    +0.000 A 
ENDBRANCH   5  15
BRANCH   6  21
ATOM     21  C   UNL     1      -1.628  12.761  19.962  0.00  0.00    +0.000 C 
ATOM     22  O   UNL     1      -0.938  12.148  20.773  0.00  0.00    +0.000 OA
ATOM     23  N   UNL     1      -1.096  13.607  19.013  0.00  0.00    +0.000 N 
ATOM     24  H   UNL     1      -1.719  14.257  18.529  0.00  0.00    +0.000 HD
BRANCH  23  25
ATOM     25  C   UNL     1       0.289  13.800  18.798  0.00  0.00    +0.000 A 
ATOM     26  C   UNL     1       1.130  12.706  18.556  0.00  0.00    +0.000 A 
ATOM     27  C   UNL     1       2.488  12.895  18.288  0.00  0.00    +0.000 A 
ATOM     28  C   UNL     1       3.023  14.179  18.261  0.00  0.00    +0.000 A 
ATOM     29  C   UNL     1       2.202  15.278  18.517  0.00  0.00    +0.000 A 
ATOM     30  C   UNL     1       0.837  15.095  18.794  0.00  0.00    +0.000 A 
BRANCH  30  31
ATOM     31  C   UNL     1       0.007  16.259  19.211  0.00  0.00    +0.000 C 
ATOM     32  N   UNL     1      -0.489  17.048  18.206  0.00  0.00    +0.000 N 
ATOM     33  O   UNL     1      -0.171  16.551  20.387  0.00  0.00    +0.000 OA
ATOM     34  H   UNL     1      -0.139  16.989  17.259  0.00  0.00    +0.000 HD
ATOM     35  H   UNL     1      -0.918  17.921  18.487  0.00  0.00    +0.000 HD
ENDBRANCH  30  31
ENDBRANCH  23  25
ENDBRANCH   6  21
TORSDOF 5
ENDMDL
MODEL 5
REMARK VINA RESULT:      -6.2      2.674      5.894
REMARK  Name = 
REMARK  6 active torsions:
REMARK  status: ('A' for Active; 'I' for Inactive)
REMARK    1  A    between atoms: C_1  and  N_2
REMARK    2  A    between atoms: C_4  and  C_5
REMARK    3  A    between atoms: C_11  and  C_12
REMARK    4  A    between atoms: C_18  and  C_19
REMARK    5  A    between atoms: N_21  and  C_22
REMARK    6  A    between atoms: C_27  and  C_28
REMARK                            x       y       z     vdW  Elec       q    Type
REMARK                         _______ _______ _______ _____ _____    ______ ____
ROOT
ATOM      1  C   UNL     1      -5.954  10.896  18.185  0.00  0.00    +0.000 C 
ATOM      2  N   UNL     1      -5.217  11.690  19.148  0.00  0.00    +0.000 N 
ATOM      3  N   UNL     1      -5.935  12.243  20.161  0.00  0.00    +0.000 NA
ATOM      4  C   UNL     1      -5.324  12.992  21.029  0.00  0.00    +0.000 A 
ATOM      5  C   UNL     1      -3.835  13.251  21.001  0.00  0.00    +0.000 A 
ATOM      6  C   UNL     1      -3.137  12.662  20.000  0.00  0.00    +0.000 A 
ATOM      7  C   UNL     1      -3.866  11.880  18.959  0.00  0.00    +0.000 A 
ATOM      8  O   UNL     1      -3.265  11.428  17.978  0.00  0.00    +0.000 OA
ENDROOT
BRANCH   4   9
ATOM      9  C   UNL     1      -6.196  13.572  22.113  0.00  0.00    +0.000 A 
ATOM     10  C   UNL     1      -6.578  12.746  23.185  0.00  0.00    +0.000 A 
ATOM     11  C   UNL     1      -7.432  13.220  24.188  0.00  0.00    +0.000 A 
ATOM     12  C   UNL     1      -7.905  14.529  24.141  0.00  0.00    +0.000 A 
ATOM     13  C   UNL     1      -7.553  15.349  23.075  0.00  0.00    +0.000 A 
ATOM     14  C   UNL     1      -6.733  14.861  22.051  0.00  0.00    +0.000 A 
ENDBRANCH   4   9
BRANCH   5  15
ATOM     15  C   UNL     1      -3.163  14.071  22.027  0.00  0.00    +0.000 A 
ATOM     16  C   UNL     1      -2.872  15.422  21.770  0.00  0.00    +0.000 A 
ATOM     17  C   UNL     1      -2.249  16.210  22.739  0.00  0.00    +0.000 A 
ATOM     18  C   UNL     1      -1.863  15.643  23.952  0.00  0.00    +0.000 A 
ATOM     19  C   UNL     1      -2.118  14.295  24.206  0.00  0.00    +0.000 A 
ATOM     20  C   UNL     1      -2.780  13.514  23.256  0.00  0.00    +0.000 A 
ENDBRANCH   5  15
BRANCH   6  21
ATOM     21  C   UNL     1      -1.629  12.705  19.949  0.00  0.00    +0.000 C 
ATOM     22  O   UNL     1      -0.947  12.002  20.691  0.00  0.00    +0.000 OA
ATOM     23  N   UNL     1      -1.083  13.597  19.052  0.00  0.00    +0.000 N 
ATOM     24  H   UNL     1      -1.689  14.309  18.637  0.00  0.00    +0.000 HD
BRANCH  23  25
ATOM     25  C   UNL     1       0.303  13.746  18.813  0.00  0.00    +0.000 A 
ATOM     26  C   UNL     1       1.104  12.626  18.551  0.00  0.00    +0.000 A 
ATOM     27  C   UNL     1       2.462  12.773  18.258  0.00  0.00    +0.000 A 
ATOM     28  C   UNL     1       3.038  14.039  18.229  0.00  0.00    +0.000 A 
ATOM     29  C   UNL     1       2.259  15.163  18.505  0.00  0.00    +0.000 A 
ATOM     30  C   UNL     1       0.893  15.023  18.806  0.00  0.00    +0.000 A 
BRANCH  30  31
ATOM     31  C   UNL     1       0.109  16.211  19.243  0.00  0.00    +0.000 C 
ATOM     32  N   UNL     1      -0.731  16.766  18.313  0.00  0.00    +0.000 N 
ATOM     33  O   UNL     1       0.251  16.720  20.348  0.00  0.00    +0.000 OA
ATOM     34  H   UNL     1      -0.664  16.537  17.331  0.00  0.00    +0.000 HD
ATOM     35  H   UNL     1      -1.143  17.659  18.553  0.00  0.00    +0.000 HD
ENDBRANCH  30  31
ENDBRANCH  23  25
ENDBRANCH   6  21
TORSDOF 5
ENDMDL
MODEL 6
REMARK VINA RESULT:      -6.2      2.503      6.482
REMARK  Name = 
REMARK  6 active torsions:
REMARK  status: ('A' for Active; 'I' for Inactive)
REMARK    1  A    between atoms: C_1  and  N_2
REMARK    2  A    between atoms: C_4  and  C_5
REMARK    3  A    between atoms: C_11  and  C_12
REMARK    4  A    between atoms: C_18  and  C_19
REMARK    5  A    between atoms: N_21  and  C_22
REMARK    6  A    between atoms: C_27  and  C_28
REMARK                            x       y       z     vdW  Elec       q    Type
REMARK                         _______ _______ _______ _____ _____    ______ ____
ROOT
ATOM      1  C   UNL     1      -2.241  18.095  20.894  0.00  0.00    +0.000 C 
ATOM      2  N   UNL     1      -1.880  16.707  20.693  0.00  0.00    +0.000 N 
ATOM      3  N   UNL     1      -0.571  16.447  20.433  0.00  0.00    +0.000 NA
ATOM      4  C   UNL     1      -0.205  15.220  20.210  0.00  0.00    +0.000 A 
ATOM      5  C   UNL     1      -1.156  14.046  20.267  0.00  0.00    +0.000 A 
ATOM      6  C   UNL     1      -2.448  14.328  20.560  0.00  0.00    +0.000 A 
ATOM      7  C   UNL     1      -2.870  15.750  20.723  0.00  0.00    +0.000 A 
ATOM      8  O   UNL     1      -4.062  16.036  20.881  0.00  0.00    +0.000 OA
ENDROOT
BRANCH   4   9
ATOM      9  C   UNL     1       1.261  15.023  19.921  0.00  0.00    +0.000 A 
ATOM     10  C   UNL     1       1.685  14.992  18.580  0.00  0.00    +0.000 A 
ATOM     11  C   UNL     1       3.026  14.756  18.257  0.00  0.00    +0.000 A 
ATOM     12  C   UNL     1       3.964  14.561  19.268  0.00  0.00    +0.000 A 
ATOM     13  C   UNL     1       3.554  14.568  20.596  0.00  0.00    +0.000 A 
ATOM     14  C   UNL     1       2.206  14.762  20.917  0.00  0.00    +0.000 A 
ENDBRANCH   4   9
BRANCH   5  15
ATOM     15  C   UNL     1      -0.701  12.659  20.054  0.00  0.00    +0.000 A 
ATOM     16  C   UNL     1      -0.111  11.941  21.109  0.00  0.00    +0.000 A 
ATOM     17  C   UNL     1       0.310  10.623  20.921  0.00  0.00    +0.000 A 
ATOM     18  C   UNL     1       0.194  10.029  19.666  0.00  0.00    +0.000 A 
ATOM     19  C   UNL     1      -0.362  10.743  18.603  0.00  0.00    +0.000 A 
ATOM     20  C   UNL     1      -0.824  12.046  18.798  0.00  0.00    +0.000 A 
ENDBRANCH   5  15
BRANCH   6  21
ATOM     21  C   UNL     1      -3.463  13.239  20.808  0.00  0.00    +0.000 C 
ATOM     22  O   UNL     1      -3.433  12.562  21.834  0.00  0.00    +0.000 OA
ATOM     23  N   UNL     1      -4.388  13.039  19.806  0.00  0.00    +0.000 N 
ATOM     24  H   UNL     1      -4.223  13.468  18.893  0.00  0.00    +0.000 HD
BRANCH  23  25
ATOM     25  C   UNL     1      -5.452  12.110  19.872  0.00  0.00    +0.000 A 
ATOM     26  C   UNL     1      -6.327  12.106  20.967  0.00  0.00    +0.000 A 
ATOM     27  C   UNL     1      -7.413  11.228  21.010  0.00  0.00    +0.000 A 
ATOM     28  C   UNL     1      -7.637  10.341  19.961  0.00  0.00    +0.000 A 
ATOM     29  C   UNL     1      -6.766  10.321  18.871  0.00  0.00    +0.000 A 
ATOM     30  C   UNL     1      -5.668  11.197  18.824  0.00  0.00    +0.000 A 
BRANCH  30  31
ATOM     31  C   UNL     1      -4.666  11.063  17.731  0.00  0.00    +0.000 C 
ATOM     32  N   UNL     1      -3.794  10.010  17.825  0.00  0.00    +0.000 N 
ATOM     33  O   UNL     1      -4.567  11.884  16.828  0.00  0.00    +0.000 OA
ATOM     34  H   UNL     1      -3.681   9.487  18.683  0.00  0.00    +0.000 HD
ATOM     35  H   UNL     1      -3.018  10.006  17.174  0.00  0.00    +0.000 HD
ENDBRANCH  30  31
ENDBRANCH  23  25
ENDBRANCH   6  21
TORSDOF 5
ENDMDL
MODEL 7
REMARK VINA RESULT:      -6.1      8.443     12.101
REMARK  Name = 
REMARK  6 active torsions:
REMARK  status: ('A' for Active; 'I' for Inactive)
REMARK    1  A    between atoms: C_1  and  N_2
REMARK    2  A    between atoms: C_4  and  C_5
REMARK    3  A    between atoms: C_11  and  C_12
REMARK    4  A    between atoms: C_18  and  C_19
REMARK    5  A    between atoms: N_21  and  C_22
REMARK    6  A    between atoms: C_27  and  C_28
REMARK                            x       y       z     vdW  Elec       q    Type
REMARK                         _______ _______ _______ _____ _____    ______ ____
ROOT
ATOM      1  C   UNL     1       5.961  11.316  24.960  0.00  0.00    +0.000 C 
ATOM      2  N   UNL     1       6.179  12.392  24.015  0.00  0.00    +0.000 N 
ATOM      3  N   UNL     1       5.298  13.427  24.052  0.00  0.00    +0.000 NA
ATOM      4  C   UNL     1       5.433  14.399  23.201  0.00  0.00    +0.000 A 
ATOM      5  C   UNL     1       6.552  14.466  22.187  0.00  0.00    +0.000 A 
ATOM      6  C   UNL     1       7.435  13.439  22.191  0.00  0.00    +0.000 A 
ATOM      7  C   UNL     1       7.215  12.287  23.113  0.00  0.00    +0.000 A 
ATOM      8  O   UNL     1       7.944  11.290  23.057  0.00  0.00    +0.000 OA
ENDROOT
BRANCH   4   9
ATOM      9  C   UNL     1       4.408  15.500  23.306  0.00  0.00    +0.000 A 
ATOM     10  C   UNL     1       3.297  15.470  22.443  0.00  0.00    +0.000 A 
ATOM     11  C   UNL     1       2.347  16.498  22.463  0.00  0.00    +0.000 A 
ATOM     12  C   UNL     1       2.485  17.560  23.351  0.00  0.00    +0.000 A 
ATOM     13  C   UNL     1       3.590  17.612  24.193  0.00  0.00    +0.000 A 
ATOM     14  C   UNL     1       4.562  16.607  24.144  0.00  0.00    +0.000 A 
ENDBRANCH   4   9
BRANCH   5  15
ATOM     15  C   UNL     1       6.703  15.606  21.262  0.00  0.00    +0.000 A 
ATOM     16  C   UNL     1       6.045  15.596  20.019  0.00  0.00    +0.000 A 
ATOM     17  C   UNL     1       6.171  16.675  19.143  0.00  0.00    +0.000 A 
ATOM     18  C   UNL     1       6.996  17.748  19.475  0.00  0.00    +0.000 A 
ATOM     19  C   UNL     1       7.678  17.754  20.693  0.00  0.00    +0.000 A 
ATOM     20  C   UNL     1       7.521  16.697  21.591  0.00  0.00    +0.000 A 
ENDBRANCH   5  15
BRANCH   6  21
ATOM     21  C   UNL     1       8.685  13.461  21.346  0.00  0.00    +0.000 C 
ATOM     22  O   UNL     1       9.781  13.726  21.837  0.00  0.00    +0.000 OA
ATOM     23  N   UNL     1       8.509  13.202  20.005  0.00  0.00    +0.000 N 
ATOM     24  H   UNL     1       7.561  13.218  19.622  0.00  0.00    +0.000 HD
BRANCH  23  25
ATOM     25  C   UNL     1       9.558  13.119  19.060  0.00  0.00    +0.000 A 
ATOM     26  C   UNL     1      10.104  14.283  18.500  0.00  0.00    +0.000 A 
ATOM     27  C   UNL     1      11.178  14.209  17.609  0.00  0.00    +0.000 A 
ATOM     28  C   UNL     1      11.716  12.974  17.262  0.00  0.00    +0.000 A 
ATOM     29  C   UNL     1      11.172  11.805  17.797  0.00  0.00    +0.000 A 
ATOM     30  C   UNL     1      10.088  11.870  18.689  0.00  0.00    +0.000 A 
BRANCH  30  31
ATOM     31  C   UNL     1       9.424  10.615  19.135  0.00  0.00    +0.000 C 
ATOM     32  N   UNL     1       8.756   9.901  18.174  0.00  0.00    +0.000 N 
ATOM     33  O   UNL     1       9.406  10.262  20.308  0.00  0.00    +0.000 OA
ATOM     34  H   UNL     1       8.530  10.302  17.273  0.00  0.00    +0.000 HD
ATOM     35  H   UNL     1       8.176   9.138  18.499  0.00  0.00    +0.000 HD
ENDBRANCH  30  31
ENDBRANCH  23  25
ENDBRANCH   6  21
TORSDOF 5
ENDMDL
MODEL 8
REMARK VINA RESULT:      -6.1      3.148      6.848
REMARK  Name = 
REMARK  6 active torsions:
REMARK  status: ('A' for Active; 'I' for Inactive)
REMARK    1  A    between atoms: C_1  and  N_2
REMARK    2  A    between atoms: C_4  and  C_5
REMARK    3  A    between atoms: C_11  and  C_12
REMARK    4  A    between atoms: C_18  and  C_19
REMARK    5  A    between atoms: N_21  and  C_22
REMARK    6  A    between atoms: C_27  and  C_28
REMARK                            x       y       z     vdW  Elec       q    Type
REMARK                         _______ _______ _______ _____ _____    ______ ____
ROOT
ATOM      1  C   UNL     1       1.899   9.698  17.889  0.00  0.00    +0.000 C 
ATOM      2  N   UNL     1       1.424  10.901  18.542  0.00  0.00    +0.000 N 
ATOM      3  N   UNL     1       2.234  11.991  18.482  0.00  0.00    +0.000 NA
ATOM      4  C   UNL     1       1.867  13.082  19.082  0.00  0.00    +0.000 A 
ATOM      5  C   UNL     1       0.553  13.225  19.817  0.00  0.00    +0.000 A 
ATOM      6  C   UNL     1      -0.251  12.135  19.834  0.00  0.00    +0.000 A 
ATOM      7  C   UNL     1       0.224  10.862  19.218  0.00  0.00    +0.000 A 
ATOM      8  O   UNL     1      -0.444   9.828  19.319  0.00  0.00    +0.000 OA
ENDROOT
BRANCH   4   9
ATOM      9  C   UNL     1       2.829  14.238  18.974  0.00  0.00    +0.000 A 
ATOM     10  C   UNL     1       3.717  14.477  20.038  0.00  0.00    +0.000 A 
ATOM     11  C   UNL     1       4.591  15.570  20.011  0.00  0.00    +0.000 A 
ATOM     12  C   UNL     1       4.600  16.430  18.916  0.00  0.00    +0.000 A 
ATOM     13  C   UNL     1       3.713  16.217  17.868  0.00  0.00    +0.000 A 
ATOM     14  C   UNL     1       2.810  15.149  17.915  0.00  0.00    +0.000 A 
ENDBRANCH   4   9
BRANCH   5  15
ATOM     15  C   UNL     1       0.144  14.492  20.451  0.00  0.00    +0.000 A 
ATOM     16  C   UNL     1      -0.545  15.464  19.704  0.00  0.00    +0.000 A 
ATOM     17  C   UNL     1      -0.949  16.660  20.299  0.00  0.00    +0.000 A 
ATOM     18  C   UNL     1      -0.623  16.920  21.628  0.00  0.00    +0.000 A 
ATOM     19  C   UNL     1       0.088  15.976  22.371  0.00  0.00    +0.000 A 
ATOM     20  C   UNL     1       0.456  14.759  21.793  0.00  0.00    +0.000 A 
ENDBRANCH   5  15
BRANCH   6  21
ATOM     21  C   UNL     1      -1.654  12.190  20.388  0.00  0.00    +0.000 C 
ATOM     22  O   UNL     1      -1.880  11.954  21.573  0.00  0.00    +0.000 OA
ATOM     23  N   UNL     1      -2.648  12.485  19.480  0.00  0.00    +0.000 N 
ATOM     24  H   UNL     1      -2.429  12.443  18.482  0.00  0.00    +0.000 HD
BRANCH  23  25
ATOM     25  C   UNL     1      -4.014  12.641  19.810  0.00  0.00    +0.000 A 
ATOM     26  C   UNL     1      -4.393  13.359  20.952  0.00  0.00    +0.000 A 
ATOM     27  C   UNL     1      -5.743  13.563  21.252  0.00  0.00    +0.000 A 
ATOM     28  C   UNL     1      -6.730  13.049  20.416  0.00  0.00    +0.000 A 
ATOM     29  C   UNL     1      -6.369  12.317  19.284  0.00  0.00    +0.000 A 
ATOM     30  C   UNL     1      -5.014  12.102  18.980  0.00  0.00    +0.000 A 
BRANCH  30  31
ATOM     31  C   UNL     1      -4.646  11.197  17.857  0.00  0.00    +0.000 C 
ATOM     32  N   UNL     1      -5.287  11.410  16.664  0.00  0.00    +0.000 N 
ATOM     33  O   UNL     1      -3.868  10.261  17.996  0.00  0.00    +0.000 OA
ATOM     34  H   UNL     1      -6.114  11.987  16.599  0.00  0.00    +0.000 HD
ATOM     35  H   UNL     1      -5.157  10.705  15.949  0.00  0.00    +0.000 HD
ENDBRANCH  30  31
ENDBRANCH  23  25
ENDBRANCH   6  21
TORSDOF 5
ENDMDL
MODEL 9
REMARK VINA RESULT:      -6.1      3.258      5.897
REMARK  Name = 
REMARK  6 active torsions:
REMARK  status: ('A' for Active; 'I' for Inactive)
REMARK    1  A    between atoms: C_1  and  N_2
REMARK    2  A    between atoms: C_4  and  C_5
REMARK    3  A    between atoms: C_11  and  C_12
REMARK    4  A    between atoms: C_18  and  C_19
REMARK    5  A    between atoms: N_21  and  C_22
REMARK    6  A    between atoms: C_27  and  C_28
REMARK                            x       y       z     vdW  Elec       q    Type
REMARK                         _______ _______ _______ _____ _____    ______ ____
ROOT
ATOM      1  C   UNL     1       0.622   9.182  22.210  0.00  0.00    +0.000 C 
ATOM      2  N   UNL     1       0.286  10.580  22.033  0.00  0.00    +0.000 N 
ATOM      3  N   UNL     1       1.122  11.315  21.253  0.00  0.00    +0.000 NA
ATOM      4  C   UNL     1       0.881  12.582  21.092  0.00  0.00    +0.000 A 
ATOM      5  C   UNL     1      -0.314  13.284  21.696  0.00  0.00    +0.000 A 
ATOM      6  C   UNL     1      -1.149  12.522  22.442  0.00  0.00    +0.000 A 
ATOM      7  C   UNL     1      -0.811  11.090  22.692  0.00  0.00    +0.000 A 
ATOM      8  O   UNL     1      -1.498  10.408  23.458  0.00  0.00    +0.000 OA
ENDROOT
BRANCH   4   9
ATOM      9  C   UNL     1       1.863  13.323  20.221  0.00  0.00    +0.000 A 
ATOM     10  C   UNL     1       1.711  13.252  18.824  0.00  0.00    +0.000 A 
ATOM     11  C   UNL     1       2.628  13.877  17.970  0.00  0.00    +0.000 A 
ATOM     12  C   UNL     1       3.700  14.590  18.499  0.00  0.00    +0.000 A 
ATOM     13  C   UNL     1       3.874  14.650  19.877  0.00  0.00    +0.000 A 
ATOM     14  C   UNL     1       2.981  13.990  20.729  0.00  0.00    +0.000 A 
ENDBRANCH   4   9
BRANCH   5  15
ATOM     15  C   UNL     1      -0.584  14.715  21.459  0.00  0.00    +0.000 A 
ATOM     16  C   UNL     1      -0.017  15.687  22.301  0.00  0.00    +0.000 A 
ATOM     17  C   UNL     1      -0.255  17.044  22.077  0.00  0.00    +0.000 A 
ATOM     18  C   UNL     1      -1.103  17.440  21.045  0.00  0.00    +0.000 A 
ATOM     19  C   UNL     1      -1.697  16.481  20.222  0.00  0.00    +0.000 A 
ATOM     20  C   UNL     1      -1.427  15.125  20.415  0.00  0.00    +0.000 A 
ENDBRANCH   5  15
BRANCH   6  21
ATOM     21  C   UNL     1      -2.460  13.057  22.964  0.00  0.00    +0.000 C 
ATOM     22  O   UNL     1      -2.495  13.856  23.898  0.00  0.00    +0.000 OA
ATOM     23  N   UNL     1      -3.595  12.568  22.354  0.00  0.00    +0.000 N 
ATOM     24  H   UNL     1      -3.513  11.745  21.752  0.00  0.00    +0.000 HD
BRANCH  23  25
ATOM     25  C   UNL     1      -4.911  12.986  22.657  0.00  0.00    +0.000 A 
ATOM     26  C   UNL     1      -5.486  12.683  23.899  0.00  0.00    +0.000 A 
ATOM     27  C   UNL     1      -6.765  13.141  24.226  0.00  0.00    +0.000 A 
ATOM     28  C   UNL     1      -7.487  13.905  23.314  0.00  0.00    +0.000 A 
ATOM     29  C   UNL     1      -6.937  14.201  22.067  0.00  0.00    +0.000 A 
ATOM     30  C   UNL     1      -5.653  13.738  21.729  0.00  0.00    +0.000 A 
BRANCH  30  31
ATOM     31  C   UNL     1      -5.140  13.934  20.345  0.00  0.00    +0.000 C 
ATOM     32  N   UNL     1      -5.186  15.211  19.850  0.00  0.00    +0.000 N 
ATOM     33  O   UNL     1      -4.761  13.001  19.648  0.00  0.00    +0.000 OA
ATOM     34  H   UNL     1      -5.734  15.936  20.295  0.00  0.00    +0.000 HD
ATOM     35  H   UNL     1      -4.986  15.321  18.864  0.00  0.00    +0.000 HD
ENDBRANCH  30  31
ENDBRANCH  23  25
ENDBRANCH   6  21
TORSDOF 5
ENDMDL
