MODEL 1
REMARK VINA RESULT:      -7.9      0.000      0.000
REMARK  Name = 
REMARK  7 active torsions:
REMARK  status: ('A' for Active; 'I' for Inactive)
REMARK    1  A    between atoms: C_1  and  N_2
REMARK    2  A    between atoms: C_6  and  C_7
REMARK    3  A    between atoms: C_7  and  N_8
REMARK    4  A    between atoms: N_8  and  C_9
REMARK    5  A    between atoms: N_8  and  C_10
REMARK    6  A    between atoms: C_12  and  C_13
REMARK    7  A    between atoms: N_23  and  C_24
REMARK                            x       y       z     vdW  Elec       q    Type
REMARK                         _______ _______ _______ _____ _____    ______ ____
ROOT
ATOM      1  C   UNL     1       4.882   4.550  17.061  0.00  0.00    +0.000 A 
ATOM      2  N   UNL     1       5.222   4.022  15.875  0.00  0.00    +0.000 NA
ATOM      3  C   UNL     1       6.535   3.959  15.569  0.00  0.00    +0.000 A 
ATOM      4  N   UNL     1       7.558   4.250  16.417  0.00  0.00    +0.000 NA
ATOM      5  C   UNL     1       7.114   4.991  17.467  0.00  0.00    +0.000 A 
ATOM      6  C   UNL     1       5.809   5.481  17.553  0.00  0.00    +0.000 A 
ATOM      7  C   UNL     1       6.183   6.835  17.201  0.00  0.00    +0.000 A 
ATOM      8  N   UNL     1       7.400   7.162  17.682  0.00  0.00    +0.000 NA
ATOM      9  N   UNL     1       7.788   5.962  18.216  0.00  0.00    +0.000 N 
ATOM     10  C   UNL     1       7.842   5.942  19.677  0.00  0.00    +0.000 C 
ENDROOT
BRANCH   3  11
ATOM     11  C   UNL     1       6.792   3.798  14.095  0.00  0.00    +0.000 C 
ATOM     12  C   UNL     1       5.487   3.641  13.318  0.00  0.00    +0.000 C 
ATOM     13  C   UNL     1       5.917   3.814  11.870  0.00  0.00    +0.000 C 
ATOM     14  C   UNL     1       7.159   4.711  11.909  0.00  0.00    +0.000 C 
ATOM     15  C   UNL     1       7.485   4.947  13.387  0.00  0.00    +0.000 C 
ENDBRANCH   3  11
BRANCH   1  16
ATOM     16  N   UNL     1       3.892   3.904  17.841  0.00  0.00    +0.000 N 
ATOM     17  C   UNL     1       3.854   2.443  17.641  0.00  0.00    +0.000 C 
BRANCH  16  18
ATOM     18  C   UNL     1       2.564   4.547  17.749  0.00  0.00    +0.000 C 
BRANCH  18  24
ATOM     19  C   UNL     1       0.890   9.717  21.157  0.00  0.00    +0.000 C 
ATOM     20  N   UNL     1       1.482   8.479  21.603  0.00  0.00    +0.000 N 
ATOM     21  C   UNL     1       1.747   7.563  20.593  0.00  0.00    +0.000 A 
ATOM     22  N   UNL     1       2.081   7.973  19.364  0.00  0.00    +0.000 NA
ATOM     23  C   UNL     1       2.337   7.012  18.444  0.00  0.00    +0.000 A 
ATOM     24  C   UNL     1       2.266   5.661  18.712  0.00  0.00    +0.000 A 
ATOM     25  C   UNL     1       1.905   5.360  20.004  0.00  0.00    +0.000 A 
ATOM     26  N   UNL     1       1.639   6.279  20.956  0.00  0.00    +0.000 NA
ATOM     27  H   UNL     1       0.960   7.969  22.308  0.00  0.00    +0.000 HD
ENDBRANCH  18  24
ENDBRANCH  16  18
ENDBRANCH   1  16
TORSDOF 4
ENDMDL
MODEL 2
REMARK VINA RESULT:      -7.8      2.097      6.299
REMARK  Name = 
REMARK  7 active torsions:
REMARK  status: ('A' for Active; 'I' for Inactive)
REMARK    1  A    between atoms: C_1  and  N_2
REMARK    2  A    between atoms: C_6  and  C_7
REMARK    3  A    between atoms: C_7  and  N_8
REMARK    4  A    between atoms: N_8  and  C_9
REMARK    5  A    between atoms: N_8  and  C_10
REMARK    6  A    between atoms: C_12  and  C_13
REMARK    7  A    between atoms: N_23  and  C_24
REMARK                            x       y       z     vdW  Elec       q    Type
REMARK                         _______ _______ _______ _____ _____    ______ ____
ROOT
ATOM      1  C   UNL     1       4.469   4.726  17.209  0.00  0.00    +0.000 A 
ATOM      2  N   UNL     1       3.843   5.901  17.376  0.00  0.00    +0.000 NA
ATOM      3  C   UNL     1       3.273   6.145  18.574  0.00  0.00    +0.000 A 
ATOM      4  N   UNL     1       3.401   5.365  19.681  0.00  0.00    +0.000 NA
ATOM      5  C   UNL     1       3.826   4.119  19.344  0.00  0.00    +0.000 A 
ATOM      6  C   UNL     1       3.968   3.697  18.020  0.00  0.00    +0.000 A 
ATOM      7  C   UNL     1       2.755   2.905  18.033  0.00  0.00    +0.000 A 
ATOM      8  N   UNL     1       2.538   2.338  19.237  0.00  0.00    +0.000 NA
ATOM      9  N   UNL     1       3.560   2.892  19.963  0.00  0.00    +0.000 N 
ATOM     10  C   UNL     1       4.611   1.949  20.341  0.00  0.00    +0.000 C 
ENDROOT
BRANCH   3  11
ATOM     11  C   UNL     1       2.234   7.231  18.526  0.00  0.00    +0.000 C 
ATOM     12  C   UNL     1       1.963   7.801  19.917  0.00  0.00    +0.000 C 
ATOM     13  C   UNL     1       1.160   9.060  19.630  0.00  0.00    +0.000 C 
ATOM     14  C   UNL     1       1.596   9.524  18.236  0.00  0.00    +0.000 C 
ATOM     15  C   UNL     1       2.561   8.463  17.702  0.00  0.00    +0.000 C 
ENDBRANCH   3  11
BRANCH   1  16
ATOM     16  N   UNL     1       5.730   4.706  16.563  0.00  0.00    +0.000 N 
ATOM     17  C   UNL     1       5.878   3.590  15.610  0.00  0.00    +0.000 C 
BRANCH  16  18
ATOM     18  C   UNL     1       6.867   4.840  17.497  0.00  0.00    +0.000 C 
BRANCH  18  24
ATOM     19  C   UNL     1       9.833  10.350  18.906  0.00  0.00    +0.000 C 
ATOM     20  N   UNL     1       8.542  10.135  18.297  0.00  0.00    +0.000 N 
ATOM     21  C   UNL     1       8.181   8.801  18.155  0.00  0.00    +0.000 A 
ATOM     22  N   UNL     1       8.582   7.882  19.040  0.00  0.00    +0.000 NA
ATOM     23  C   UNL     1       8.171   6.608  18.832  0.00  0.00    +0.000 A 
ATOM     24  C   UNL     1       7.380   6.225  17.770  0.00  0.00    +0.000 A 
ATOM     25  C   UNL     1       7.037   7.252  16.922  0.00  0.00    +0.000 A 
ATOM     26  N   UNL     1       7.422   8.536  17.085  0.00  0.00    +0.000 NA
ATOM     27  H   UNL     1       8.408  10.556  17.384  0.00  0.00    +0.000 HD
ENDBRANCH  18  24
ENDBRANCH  16  18
ENDBRANCH   1  16
TORSDOF 4
ENDMDL
MODEL 3
REMARK VINA RESULT:      -7.6      2.057      6.298
REMARK  Name = 
REMARK  7 active torsions:
REMARK  status: ('A' for Active; 'I' for Inactive)
REMARK    1  A    between atoms: C_1  and  N_2
REMARK    2  A    between atoms: C_6  and  C_7
REMARK    3  A    between atoms: C_7  and  N_8
REMARK    4  A    between atoms: N_8  and  C_9
REMARK    5  A    between atoms: N_8  and  C_10
REMARK    6  A    between atoms: C_12  and  C_13
REMARK    7  A    between atoms: N_23  and  C_24
REMARK                            x       y       z     vdW  Elec       q    Type
REMARK                         _______ _______ _______ _____ _____    ______ ____
ROOT
ATOM      1  C   UNL     1       4.177   4.835  17.202  0.00  0.00    +0.000 A 
ATOM      2  N   UNL     1       3.587   6.025  17.394  0.00  0.00    +0.000 NA
ATOM      3  C   UNL     1       3.069   6.280  18.613  0.00  0.00    +0.000 A 
ATOM      4  N   UNL     1       3.218   5.494  19.713  0.00  0.00    +0.000 NA
ATOM      5  C   UNL     1       3.598   4.238  19.358  0.00  0.00    +0.000 A 
ATOM      6  C   UNL     1       3.681   3.817  18.029  0.00  0.00    +0.000 A 
ATOM      7  C   UNL     1       2.450   3.055  18.086  0.00  0.00    +0.000 A 
ATOM      8  N   UNL     1       2.262   2.491  19.296  0.00  0.00    +0.000 NA
ATOM      9  N   UNL     1       3.324   3.017  19.984  0.00  0.00    +0.000 N 
ATOM     10  C   UNL     1       4.364   2.046  20.321  0.00  0.00    +0.000 C 
ENDROOT
BRANCH   3  11
ATOM     11  C   UNL     1       2.057   7.392  18.606  0.00  0.00    +0.000 C 
ATOM     12  C   UNL     1       1.869   7.981  20.003  0.00  0.00    +0.000 C 
ATOM     13  C   UNL     1       1.085   9.257  19.744  0.00  0.00    +0.000 C 
ATOM     14  C   UNL     1       1.464   9.699  18.326  0.00  0.00    +0.000 C 
ATOM     15  C   UNL     1       2.374   8.608  17.755  0.00  0.00    +0.000 C 
ENDBRANCH   3  11
BRANCH   1  16
ATOM     16  N   UNL     1       5.412   4.785  16.509  0.00  0.00    +0.000 N 
ATOM     17  C   UNL     1       5.466   3.719  15.492  0.00  0.00    +0.000 C 
BRANCH  16  18
ATOM     18  C   UNL     1       6.586   4.805  17.407  0.00  0.00    +0.000 C 
BRANCH  18  24
ATOM     19  C   UNL     1       8.501  10.860  18.312  0.00  0.00    +0.000 C 
ATOM     20  N   UNL     1       9.130   9.629  18.728  0.00  0.00    +0.000 N 
ATOM     21  C   UNL     1       8.459   8.475  18.343  0.00  0.00    +0.000 A 
ATOM     22  N   UNL     1       7.764   8.432  17.202  0.00  0.00    +0.000 NA
ATOM     23  C   UNL     1       7.153   7.261  16.898  0.00  0.00    +0.000 A 
ATOM     24  C   UNL     1       7.213   6.139  17.697  0.00  0.00    +0.000 A 
ATOM     25  C   UNL     1       7.948   6.304  18.848  0.00  0.00    +0.000 A 
ATOM     26  N   UNL     1       8.573   7.449  19.196  0.00  0.00    +0.000 NA
ATOM     27  H   UNL     1       9.297   9.532  19.723  0.00  0.00    +0.000 HD
ENDBRANCH  18  24
ENDBRANCH  16  18
ENDBRANCH   1  16
TORSDOF 4
ENDMDL
MODEL 4
REMARK VINA RESULT:      -7.5      1.866      7.146
REMARK  Name = 
REMARK  7 active torsions:
REMARK  status: ('A' for Active; 'I' for Inactive)
REMARK    1  A    between atoms: C_1  and  N_2
REMARK    2  A    between atoms: C_6  and  C_7
REMARK    3  A    between atoms: C_7  and  N_8
REMARK    4  A    between atoms: N_8  and  C_9
REMARK    5  A    between atoms: N_8  and  C_10
REMARK    6  A    between atoms: C_12  and  C_13
REMARK    7  A    between atoms: N_23  and  C_24
REMARK                            x       y       z     vdW  Elec       q    Type
REMARK                         _______ _______ _______ _____ _____    ______ ____
ROOT
ATOM      1  C   UNL     1       2.811   3.984  18.048  0.00  0.00    +0.000 A 
ATOM      2  N   UNL     1       2.668   5.301  17.834  0.00  0.00    +0.000 NA
ATOM      3  C   UNL     1       2.430   6.088  18.903  0.00  0.00    +0.000 A 
ATOM      4  N   UNL     1       2.466   5.687  20.203  0.00  0.00    +0.000 NA
ATOM      5  C   UNL     1       2.370   4.334  20.289  0.00  0.00    +0.000 A 
ATOM      6  C   UNL     1       2.130   3.517  19.182  0.00  0.00    +0.000 A 
ATOM      7  C   UNL     1       0.739   3.292  19.519  0.00  0.00    +0.000 A 
ATOM      8  N   UNL     1       0.546   3.238  20.852  0.00  0.00    +0.000 NA
ATOM      9  N   UNL     1       1.804   3.547  21.299  0.00  0.00    +0.000 N 
ATOM     10  C   UNL     1       2.511   2.432  21.927  0.00  0.00    +0.000 C 
ENDROOT
BRANCH   3  11
ATOM     11  C   UNL     1       1.840   7.423  18.536  0.00  0.00    +0.000 C 
ATOM     12  C   UNL     1       1.572   8.271  19.778  0.00  0.00    +0.000 C 
ATOM     13  C   UNL     1       1.295   9.652  19.207  0.00  0.00    +0.000 C 
ATOM     14  C   UNL     1       2.067   9.719  17.885  0.00  0.00    +0.000 C 
ATOM     15  C   UNL     1       2.684   8.335  17.666  0.00  0.00    +0.000 C 
ENDBRANCH   3  11
BRANCH   1  16
ATOM     16  N   UNL     1       3.857   3.291  17.391  0.00  0.00    +0.000 N 
ATOM     17  C   UNL     1       3.842   1.838  17.643  0.00  0.00    +0.000 C 
BRANCH  16  18
ATOM     18  C   UNL     1       5.184   3.911  17.589  0.00  0.00    +0.000 C 
BRANCH  18  24
ATOM     19  C   UNL     1       7.672   5.517  11.900  0.00  0.00    +0.000 C 
ATOM     20  N   UNL     1       8.256   5.620  13.216  0.00  0.00    +0.000 N 
ATOM     21  C   UNL     1       7.450   5.154  14.247  0.00  0.00    +0.000 A 
ATOM     22  N   UNL     1       6.600   4.140  14.051  0.00  0.00    +0.000 NA
ATOM     23  C   UNL     1       5.863   3.740  15.116  0.00  0.00    +0.000 A 
ATOM     24  C   UNL     1       5.947   4.322  16.363  0.00  0.00    +0.000 A 
ATOM     25  C   UNL     1       6.847   5.359  16.443  0.00  0.00    +0.000 A 
ATOM     26  N   UNL     1       7.602   5.795  15.412  0.00  0.00    +0.000 NA
ATOM     27  H   UNL     1       8.552   6.549  13.496  0.00  0.00    +0.000 HD
ENDBRANCH  18  24
ENDBRANCH  16  18
ENDBRANCH   1  16
TORSDOF 4
ENDMDL
MODEL 5
REMARK VINA RESULT:      -7.5      0.631      1.352
REMARK  Name = 
REMARK  7 active torsions:
REMARK  status: ('A' for Active; 'I' for Inactive)
REMARK    1  A    between atoms: C_1  and  N_2
REMARK    2  A    between atoms: C_6  and  C_7
REMARK    3  A    between atoms: C_7  and  N_8
REMARK    4  A    between atoms: N_8  and  C_9
REMARK    5  A    between atoms: N_8  and  C_10
REMARK    6  A    between atoms: C_12  and  C_13
REMARK    7  A    between atoms: N_23  and  C_24
REMARK                            x       y       z     vdW  Elec       q    Type
REMARK                         _______ _______ _______ _____ _____    ______ ____
ROOT
ATOM      1  C   UNL     1       4.779   5.000  17.094  0.00  0.00    +0.000 A 
ATOM      2  N   UNL     1       4.917   4.575  15.828  0.00  0.00    +0.000 NA
ATOM      3  C   UNL     1       6.163   4.534  15.312  0.00  0.00    +0.000 A 
ATOM      4  N   UNL     1       7.313   4.748  16.008  0.00  0.00    +0.000 NA
ATOM      5  C   UNL     1       7.054   5.397  17.173  0.00  0.00    +0.000 A 
ATOM      6  C   UNL     1       5.788   5.882  17.509  0.00  0.00    +0.000 A 
ATOM      7  C   UNL     1       6.125   7.260  17.216  0.00  0.00    +0.000 A 
ATOM      8  N   UNL     1       7.408   7.541  17.522  0.00  0.00    +0.000 NA
ATOM      9  N   UNL     1       7.855   6.298  17.885  0.00  0.00    +0.000 N 
ATOM     10  C   UNL     1       8.141   6.152  19.311  0.00  0.00    +0.000 C 
ENDROOT
BRANCH   3  11
ATOM     11  C   UNL     1       6.180   4.500  13.808  0.00  0.00    +0.000 C 
ATOM     12  C   UNL     1       7.533   4.948  13.259  0.00  0.00    +0.000 C 
ATOM     13  C   UNL     1       7.467   4.548  11.794  0.00  0.00    +0.000 C 
ATOM     14  C   UNL     1       6.514   3.349  11.732  0.00  0.00    +0.000 C 
ATOM     15  C   UNL     1       5.964   3.152  13.147  0.00  0.00    +0.000 C 
ENDBRANCH   3  11
BRANCH   1  16
ATOM     16  N   UNL     1       3.915   4.292  17.965  0.00  0.00    +0.000 N 
ATOM     17  C   UNL     1       4.021   2.828  17.829  0.00  0.00    +0.000 C 
BRANCH  16  18
ATOM     18  C   UNL     1       2.523   4.788  17.937  0.00  0.00    +0.000 C 
BRANCH  18  24
ATOM     19  C   UNL     1       1.467   9.199  22.473  0.00  0.00    +0.000 C 
ATOM     20  N   UNL     1       1.201   9.262  21.056  0.00  0.00    +0.000 N 
ATOM     21  C   UNL     1       1.528   8.110  20.351  0.00  0.00    +0.000 A 
ATOM     22  N   UNL     1       1.432   6.904  20.923  0.00  0.00    +0.000 NA
ATOM     23  C   UNL     1       1.756   5.834  20.157  0.00  0.00    +0.000 A 
ATOM     24  C   UNL     1       2.176   5.932  18.848  0.00  0.00    +0.000 A 
ATOM     25  C   UNL     1       2.245   7.220  18.371  0.00  0.00    +0.000 A 
ATOM     26  N   UNL     1       1.934   8.318  19.093  0.00  0.00    +0.000 NA
ATOM     27  H   UNL     1       1.644  10.025  20.557  0.00  0.00    +0.000 HD
ENDBRANCH  18  24
ENDBRANCH  16  18
ENDBRANCH   1  16
TORSDOF 4
ENDMDL
MODEL 6
REMARK VINA RESULT:      -7.5      1.966      7.118
REMARK  Name = 
REMARK  7 active torsions:
REMARK  status: ('A' for Active; 'I' for Inactive)
REMARK    1  A    between atoms: C_1  and  N_2
REMARK    2  A    between atoms: C_6  and  C_7
REMARK    3  A    between atoms: C_7  and  N_8
REMARK    4  A    between atoms: N_8  and  C_9
REMARK    5  A    between atoms: N_8  and  C_10
REMARK    6  A    between atoms: C_12  and  C_13
REMARK    7  A    between atoms: N_23  and  C_24
REMARK                            x       y       z     vdW  Elec       q    Type
REMARK                         _______ _______ _______ _____ _____    ______ ____
ROOT
ATOM      1  C   UNL     1       5.143   4.977  18.018  0.00  0.00    +0.000 A 
ATOM      2  N   UNL     1       4.379   6.079  18.088  0.00  0.00    +0.000 NA
ATOM      3  C   UNL     1       3.422   6.122  19.037  0.00  0.00    +0.000 A 
ATOM      4  N   UNL     1       3.254   5.206  20.030  0.00  0.00    +0.000 NA
ATOM      5  C   UNL     1       3.892   4.046  19.725  0.00  0.00    +0.000 A 
ATOM      6  C   UNL     1       4.509   3.819  18.492  0.00  0.00    +0.000 A 
ATOM      7  C   UNL     1       3.448   2.961  18.003  0.00  0.00    +0.000 A 
ATOM      8  N   UNL     1       2.902   2.223  18.990  0.00  0.00    +0.000 NA
ATOM      9  N   UNL     1       3.563   2.732  20.077  0.00  0.00    +0.000 N 
ATOM     10  C   UNL     1       4.520   1.810  20.687  0.00  0.00    +0.000 C 
ENDROOT
BRANCH   3  11
ATOM     11  C   UNL     1       2.352   7.141  18.755  0.00  0.00    +0.000 C 
ATOM     12  C   UNL     1       1.957   7.896  20.023  0.00  0.00    +0.000 C 
ATOM     13  C   UNL     1       1.135   9.060  19.497  0.00  0.00    +0.000 C 
ATOM     14  C   UNL     1       1.659   9.335  18.083  0.00  0.00    +0.000 C 
ATOM     15  C   UNL     1       2.698   8.252  17.781  0.00  0.00    +0.000 C 
ENDBRANCH   3  11
BRANCH   1  16
ATOM     16  N   UNL     1       6.541   5.121  17.845  0.00  0.00    +0.000 N 
ATOM     17  C   UNL     1       7.214   5.719  19.012  0.00  0.00    +0.000 C 
BRANCH  16  18
ATOM     18  C   UNL     1       6.908   5.755  16.561  0.00  0.00    +0.000 C 
BRANCH  18  24
ATOM     19  C   UNL     1       4.400   3.089  11.294  0.00  0.00    +0.000 C 
ATOM     20  N   UNL     1       5.767   3.091  11.757  0.00  0.00    +0.000 N 
ATOM     21  C   UNL     1       5.971   3.745  12.965  0.00  0.00    +0.000 A 
ATOM     22  N   UNL     1       5.023   3.757  13.908  0.00  0.00    +0.000 NA
ATOM     23  C   UNL     1       5.313   4.406  15.062  0.00  0.00    +0.000 A 
ATOM     24  C   UNL     1       6.512   5.043  15.299  0.00  0.00    +0.000 A 
ATOM     25  C   UNL     1       7.405   4.972  14.255  0.00  0.00    +0.000 A 
ATOM     26  N   UNL     1       7.164   4.339  13.087  0.00  0.00    +0.000 NA
ATOM     27  H   UNL     1       6.450   3.477  11.114  0.00  0.00    +0.000 HD
ENDBRANCH  18  24
ENDBRANCH  16  18
ENDBRANCH   1  16
TORSDOF 4
ENDMDL
MODEL 7
REMARK VINA RESULT:      -7.4      1.960      7.531
REMARK  Name = 
REMARK  7 active torsions:
REMARK  status: ('A' for Active; 'I' for Inactive)
REMARK    1  A    between atoms: C_1  and  N_2
REMARK    2  A    between atoms: C_6  and  C_7
REMARK    3  A    between atoms: C_7  and  N_8
REMARK    4  A    between atoms: N_8  and  C_9
REMARK    5  A    between atoms: N_8  and  C_10
REMARK    6  A    between atoms: C_12  and  C_13
REMARK    7  A    between atoms: N_23  and  C_24
REMARK                            x       y       z     vdW  Elec       q    Type
REMARK                         _______ _______ _______ _____ _____    ______ ____
ROOT
ATOM      1  C   UNL     1       3.638   5.418  18.512  0.00  0.00    +0.000 A 
ATOM      2  N   UNL     1       3.181   6.678  18.445  0.00  0.00    +0.000 NA
ATOM      3  C   UNL     1       2.311   7.083  19.393  0.00  0.00    +0.000 A 
ATOM      4  N   UNL     1       1.963   6.372  20.499  0.00  0.00    +0.000 NA
ATOM      5  C   UNL     1       2.273   5.058  20.342  0.00  0.00    +0.000 A 
ATOM      6  C   UNL     1       2.754   4.529  19.143  0.00  0.00    +0.000 A 
ATOM      7  C   UNL     1       1.490   3.918  18.785  0.00  0.00    +0.000 A 
ATOM      8  N   UNL     1       0.822   3.473  19.869  0.00  0.00    +0.000 NA
ATOM      9  N   UNL     1       1.640   3.927  20.870  0.00  0.00    +0.000 N 
ATOM     10  C   UNL     1       2.359   2.874  21.585  0.00  0.00    +0.000 C 
ENDROOT
BRANCH   3  11
ATOM     11  C   UNL     1       1.521   8.299  18.992  0.00  0.00    +0.000 C 
ATOM     12  C   UNL     1       1.191   9.170  20.203  0.00  0.00    +0.000 C 
ATOM     13  C   UNL     1       0.696  10.464  19.580  0.00  0.00    +0.000 C 
ATOM     14  C   UNL     1       1.390  10.564  18.217  0.00  0.00    +0.000 C 
ATOM     15  C   UNL     1       2.188   9.269  18.035  0.00  0.00    +0.000 C 
ENDBRANCH   3  11
BRANCH   1  16
ATOM     16  N   UNL     1       5.017   5.175  18.303  0.00  0.00    +0.000 N 
ATOM     17  C   UNL     1       5.820   5.276  19.536  0.00  0.00    +0.000 C 
BRANCH  16  18
ATOM     18  C   UNL     1       5.579   5.937  17.168  0.00  0.00    +0.000 C 
BRANCH  18  24
ATOM     19  C   UNL     1       5.658   2.696  11.633  0.00  0.00    +0.000 C 
ATOM     20  N   UNL     1       6.747   3.329  12.339  0.00  0.00    +0.000 N 
ATOM     21  C   UNL     1       6.389   3.931  13.539  0.00  0.00    +0.000 A 
ATOM     22  N   UNL     1       5.402   3.432  14.291  0.00  0.00    +0.000 NA
ATOM     23  C   UNL     1       5.131   4.075  15.453  0.00  0.00    +0.000 A 
ATOM     24  C   UNL     1       5.809   5.196  15.882  0.00  0.00    +0.000 A 
ATOM     25  C   UNL     1       6.795   5.622  15.023  0.00  0.00    +0.000 A 
ATOM     26  N   UNL     1       7.103   5.018  13.855  0.00  0.00    +0.000 NA
ATOM     27  H   UNL     1       7.260   4.032  11.819  0.00  0.00    +0.000 HD
ENDBRANCH  18  24
ENDBRANCH  16  18
ENDBRANCH   1  16
TORSDOF 4
ENDMDL
MODEL 8
REMARK VINA RESULT:      -7.3      1.316      2.050
REMARK  Name = 
REMARK  7 active torsions:
REMARK  status: ('A' for Active; 'I' for Inactive)
REMARK    1  A    between atoms: C_1  and  N_2
REMARK    2  A    between atoms: C_6  and  C_7
REMARK    3  A    between atoms: C_7  and  N_8
REMARK    4  A    between atoms: N_8  and  C_9
REMARK    5  A    between atoms: N_8  and  C_10
REMARK    6  A    between atoms: C_12  and  C_13
REMARK    7  A    between atoms: N_23  and  C_24
REMARK                            x       y       z     vdW  Elec       q    Type
REMARK                         _______ _______ _______ _____ _____    ______ ____
ROOT
ATOM      1  C   UNL     1       4.574   5.415  17.476  0.00  0.00    +0.000 A 
ATOM      2  N   UNL     1       4.615   4.968  16.211  0.00  0.00    +0.000 NA
ATOM      3  C   UNL     1       5.811   4.584  15.718  0.00  0.00    +0.000 A 
ATOM      4  N   UNL     1       6.961   4.473  16.436  0.00  0.00    +0.000 NA
ATOM      5  C   UNL     1       6.869   5.169  17.600  0.00  0.00    +0.000 A 
ATOM      6  C   UNL     1       5.780   5.985  17.913  0.00  0.00    +0.000 A 
ATOM      7  C   UNL     1       6.489   7.217  17.634  0.00  0.00    +0.000 A 
ATOM      8  N   UNL     1       7.793   7.132  17.965  0.00  0.00    +0.000 NA
ATOM      9  N   UNL     1       7.874   5.814  18.330  0.00  0.00    +0.000 N 
ATOM     10  C   UNL     1       8.080   5.596  19.761  0.00  0.00    +0.000 C 
ENDROOT
BRANCH   3  11
ATOM     11  C   UNL     1       5.847   4.546  14.215  0.00  0.00    +0.000 C 
ATOM     12  C   UNL     1       7.259   4.793  13.687  0.00  0.00    +0.000 C 
ATOM     13  C   UNL     1       7.159   4.405  12.221  0.00  0.00    +0.000 C 
ATOM     14  C   UNL     1       6.044   3.356  12.143  0.00  0.00    +0.000 C 
ATOM     15  C   UNL     1       5.448   3.242  13.548  0.00  0.00    +0.000 C 
ENDBRANCH   3  11
BRANCH   1  16
ATOM     16  N   UNL     1       3.532   4.974  18.327  0.00  0.00    +0.000 N 
ATOM     17  C   UNL     1       2.306   4.598  17.600  0.00  0.00    +0.000 C 
BRANCH  16  18
ATOM     18  C   UNL     1       3.288   5.880  19.469  0.00  0.00    +0.000 C 
BRANCH  18  24
ATOM     19  C   UNL     1       0.515  11.653  19.114  0.00  0.00    +0.000 C 
ATOM     20  N   UNL     1       0.742  10.681  18.072  0.00  0.00    +0.000 N 
ATOM     21  C   UNL     1       1.352   9.507  18.494  0.00  0.00    +0.000 A 
ATOM     22  N   UNL     1       1.134   9.023  19.722  0.00  0.00    +0.000 NA
ATOM     23  C   UNL     1       1.758   7.864  20.045  0.00  0.00    +0.000 A 
ATOM     24  C   UNL     1       2.590   7.180  19.185  0.00  0.00    +0.000 A 
ATOM     25  C   UNL     1       2.746   7.776  17.956  0.00  0.00    +0.000 A 
ATOM     26  N   UNL     1       2.148   8.929  17.587  0.00  0.00    +0.000 NA
ATOM     27  H   UNL     1       1.285  11.003  17.278  0.00  0.00    +0.000 HD
ENDBRANCH  18  24
ENDBRANCH  16  18
ENDBRANCH   1  16
TORSDOF 4
ENDMDL
MODEL 9
REMARK VINA RESULT:      -7.3      2.225      4.773
REMARK  Name = 
REMARK  7 active torsions:
REMARK  status: ('A' for Active; 'I' for Inactive)
REMARK    1  A    between atoms: C_1  and  N_2
REMARK    2  A    between atoms: C_6  and  C_7
REMARK    3  A    between atoms: C_7  and  N_8
REMARK    4  A    between atoms: N_8  and  C_9
REMARK    5  A    between atoms: N_8  and  C_10
REMARK    6  A    between atoms: C_12  and  C_13
REMARK    7  A    between atoms: N_23  and  C_24
REMARK                            x       y       z     vdW  Elec       q    Type
REMARK                         _______ _______ _______ _____ _____    ______ ____
ROOT
ATOM      1  C   UNL     1       2.734   6.243  19.172  0.00  0.00    +0.000 A 
ATOM      2  N   UNL     1       3.718   6.410  18.275  0.00  0.00    +0.000 NA
ATOM      3  C   UNL     1       3.937   5.414  17.391  0.00  0.00    +0.000 A 
ATOM      4  N   UNL     1       3.154   4.313  17.232  0.00  0.00    +0.000 NA
ATOM      5  C   UNL     1       2.363   4.126  18.321  0.00  0.00    +0.000 A 
ATOM      6  C   UNL     1       2.469   4.900  19.479  0.00  0.00    +0.000 A 
ATOM      7  C   UNL     1       3.156   3.869  20.230  0.00  0.00    +0.000 A 
ATOM      8  N   UNL     1       2.728   2.634  19.897  0.00  0.00    +0.000 NA
ATOM      9  N   UNL     1       1.873   2.935  18.869  0.00  0.00    +0.000 N 
ATOM     10  C   UNL     1       0.460   2.725  19.179  0.00  0.00    +0.000 C 
ENDROOT
BRANCH   3  11
ATOM     11  C   UNL     1       5.300   5.475  16.757  0.00  0.00    +0.000 C 
ATOM     12  C   UNL     1       6.331   4.707  17.584  0.00  0.00    +0.000 C 
ATOM     13  C   UNL     1       7.527   4.610  16.651  0.00  0.00    +0.000 C 
ATOM     14  C   UNL     1       6.952   4.644  15.231  0.00  0.00    +0.000 C 
ATOM     15  C   UNL     1       5.445   4.872  15.373  0.00  0.00    +0.000 C 
ENDBRANCH   3  11
BRANCH   1  16
ATOM     16  N   UNL     1       1.853   7.321  19.433  0.00  0.00    +0.000 N 
ATOM     17  C   UNL     1       2.167   8.532  18.652  0.00  0.00    +0.000 C 
BRANCH  16  18
ATOM     18  C   UNL     1       1.661   7.582  20.875  0.00  0.00    +0.000 C 
BRANCH  18  24
ATOM     19  C   UNL     1      -2.448  12.387  21.957  0.00  0.00    +0.000 C 
ATOM     20  N   UNL     1      -1.190  12.096  22.602  0.00  0.00    +0.000 N 
ATOM     21  C   UNL     1      -0.527  10.981  22.106  0.00  0.00    +0.000 A 
ATOM     22  N   UNL     1      -0.629  10.637  20.817  0.00  0.00    +0.000 NA
ATOM     23  C   UNL     1       0.064   9.544  20.416  0.00  0.00    +0.000 A 
ATOM     24  C   UNL     1       0.847   8.785  21.259  0.00  0.00    +0.000 A 
ATOM     25  C   UNL     1       0.869   9.228  22.561  0.00  0.00    +0.000 A 
ATOM     26  N   UNL     1       0.196  10.309  23.010  0.00  0.00    +0.000 NA
ATOM     27  H   UNL     1      -1.228  11.970  23.607  0.00  0.00    +0.000 HD
ENDBRANCH  18  24
ENDBRANCH  16  18
ENDBRANCH   1  16
TORSDOF 4
ENDMDL
