MODEL 1
REMARK VINA RESULT:      -8.0      0.000      0.000
REMARK  Name = 
REMARK  4 active torsions:
REMARK  status: ('A' for Active; 'I' for Inactive)
REMARK    1  A    between atoms: C_2  and  O_15
REMARK    2  A    between atoms: N_3  and  C_4
REMARK    3  A    between atoms: O_15  and  C_16
REMARK    4  A    between atoms: C_16  and  C_17
REMARK                            x       y       z     vdW  Elec       q    Type
REMARK                         _______ _______ _______ _____ _____    ______ ____
ROOT
ATOM      1  O   UNL     1       8.112   6.767  18.711  0.00  0.00    +0.000 OA
ATOM      2  C   UNL     1       7.702   7.434  17.773  0.00  0.00    +0.000 C 
ATOM      3  N   UNL     1       6.554   7.216  17.045  0.00  0.00    +0.000 N 
ATOM      4  H   UNL     1       6.453   7.809  16.234  0.00  0.00    +0.000 HD
ENDROOT
BRANCH   3   5
ATOM      5  C   UNL     1       5.597   6.203  17.276  0.00  0.00    +0.000 A 
ATOM      6  C   UNL     1       5.468   5.086  16.442  0.00  0.00    +0.000 A 
ATOM      7  C   UNL     1       4.455   4.147  16.646  0.00  0.00    +0.000 A 
ATOM      8  C   UNL     1       3.556   4.322  17.695  0.00  0.00    +0.000 A 
ATOM      9  C   UNL     1       2.426   3.374  17.867  0.00  0.00    +0.000 A 
ATOM     10  O   UNL     1       2.265   2.410  17.130  0.00  0.00    +0.000 OA
ATOM     11  N   UNL     1       1.554   3.653  18.898  0.00  0.00    +0.000 N 
ATOM     12  C   UNL     1       1.693   4.706  19.762  0.00  0.00    +0.000 A 
ATOM     13  C   UNL     1       2.711   5.569  19.658  0.00  0.00    +0.000 A 
ATOM     14  C   UNL     1       3.690   5.406  18.575  0.00  0.00    +0.000 A 
ATOM     15  C   UNL     1       4.729   6.332  18.374  0.00  0.00    +0.000 A 
ATOM     16  H   UNL     1       0.774   3.014  18.989  0.00  0.00    +0.000 HD
ENDBRANCH   3   5
BRANCH   2  17
ATOM     17  O   UNL     1       8.341   8.538  17.300  0.00  0.00    +0.000 OA
BRANCH  17  18
ATOM     18  C   UNL     1       7.963   9.769  17.941  0.00  0.00    +0.000 C 
BRANCH  18  19
ATOM     19  C   UNL     1       9.154  10.485  18.528  0.00  0.00    +0.000 A 
ATOM     20  C   UNL     1      10.115  11.069  17.694  0.00  0.00    +0.000 A 
ATOM     21  C   UNL     1      11.199  11.765  18.235  0.00  0.00    +0.000 A 
ATOM     22  C   UNL     1      11.335  11.878  19.619  0.00  0.00    +0.000 A 
ATOM     23  C   UNL     1      10.389  11.296  20.459  0.00  0.00    +0.000 A 
ATOM     24  C   UNL     1       9.305  10.599  19.919  0.00  0.00    +0.000 A 
ENDBRANCH  18  19
ENDBRANCH  17  18
ENDBRANCH   2  17
TORSDOF 4
ENDMDL
MODEL 2
REMARK VINA RESULT:      -7.8      4.833      7.040
REMARK  Name = 
REMARK  4 active torsions:
REMARK  status: ('A' for Active; 'I' for Inactive)
REMARK    1  A    between atoms: C_2  and  O_15
REMARK    2  A    between atoms: N_3  and  C_4
REMARK    3  A    between atoms: O_15  and  C_16
REMARK    4  A    between atoms: C_16  and  C_17
REMARK                            x       y       z     vdW  Elec       q    Type
REMARK                         _______ _______ _______ _____ _____    ______ ____
ROOT
ATOM      1  O   UNL     1       5.581   5.923  14.939  0.00  0.00    +0.000 OA
ATOM      2  C   UNL     1       6.351   5.030  15.262  0.00  0.00    +0.000 C 
ATOM      3  N   UNL     1       6.264   4.231  16.379  0.00  0.00    +0.000 N 
ATOM      4  H   UNL     1       7.063   3.631  16.529  0.00  0.00    +0.000 HD
ENDROOT
BRANCH   3   5
ATOM      5  C   UNL     1       5.236   4.255  17.347  0.00  0.00    +0.000 A 
ATOM      6  C   UNL     1       5.326   5.011  18.523  0.00  0.00    +0.000 A 
ATOM      7  C   UNL     1       4.331   4.945  19.500  0.00  0.00    +0.000 A 
ATOM      8  C   UNL     1       3.230   4.114  19.307  0.00  0.00    +0.000 A 
ATOM      9  C   UNL     1       2.211   3.974  20.378  0.00  0.00    +0.000 A 
ATOM     10  O   UNL     1       2.284   4.592  21.431  0.00  0.00    +0.000 OA
ATOM     11  N   UNL     1       1.184   3.091  20.124  0.00  0.00    +0.000 N 
ATOM     12  C   UNL     1       1.045   2.385  18.959  0.00  0.00    +0.000 A 
ATOM     13  C   UNL     1       1.926   2.501  17.958  0.00  0.00    +0.000 A 
ATOM     14  C   UNL     1       3.090   3.382  18.119  0.00  0.00    +0.000 A 
ATOM     15  C   UNL     1       4.086   3.475  17.131  0.00  0.00    +0.000 A 
ATOM     16  H   UNL     1       0.509   2.985  20.872  0.00  0.00    +0.000 HD
ENDBRANCH   3   5
BRANCH   2  17
ATOM     17  O   UNL     1       7.441   4.676  14.530  0.00  0.00    +0.000 OA
BRANCH  17  18
ATOM     18  C   UNL     1       7.330   4.945  13.121  0.00  0.00    +0.000 C 
BRANCH  18  19
ATOM     19  C   UNL     1       6.790   3.756  12.364  0.00  0.00    +0.000 A 
ATOM     20  C   UNL     1       7.663   2.833  11.775  0.00  0.00    +0.000 A 
ATOM     21  C   UNL     1       7.166   1.711  11.107  0.00  0.00    +0.000 A 
ATOM     22  C   UNL     1       5.790   1.505  11.016  0.00  0.00    +0.000 A 
ATOM     23  C   UNL     1       4.912   2.420  11.593  0.00  0.00    +0.000 A 
ATOM     24  C   UNL     1       5.408   3.543  12.260  0.00  0.00    +0.000 A 
ENDBRANCH  18  19
ENDBRANCH  17  18
ENDBRANCH   2  17
TORSDOF 4
ENDMDL
MODEL 3
REMARK VINA RESULT:      -7.8      1.149      1.586
REMARK  Name = 
REMARK  4 active torsions:
REMARK  status: ('A' for Active; 'I' for Inactive)
REMARK    1  A    between atoms: C_2  and  O_15
REMARK    2  A    between atoms: N_3  and  C_4
REMARK    3  A    between atoms: O_15  and  C_16
REMARK    4  A    between atoms: C_16  and  C_17
REMARK                            x       y       z     vdW  Elec       q    Type
REMARK                         _______ _______ _______ _____ _____    ______ ____
ROOT
ATOM      1  O   UNL     1       8.040   5.348  19.520  0.00  0.00    +0.000 OA
ATOM      2  C   UNL     1       7.694   6.246  18.767  0.00  0.00    +0.000 C 
ATOM      3  N   UNL     1       6.483   6.360  18.123  0.00  0.00    +0.000 N 
ATOM      4  H   UNL     1       6.434   7.113  17.452  0.00  0.00    +0.000 HD
ENDROOT
BRANCH   3   5
ATOM      5  C   UNL     1       5.381   5.485  18.249  0.00  0.00    +0.000 A 
ATOM      6  C   UNL     1       5.099   4.490  17.305  0.00  0.00    +0.000 A 
ATOM      7  C   UNL     1       3.955   3.698  17.412  0.00  0.00    +0.000 A 
ATOM      8  C   UNL     1       3.076   3.898  18.474  0.00  0.00    +0.000 A 
ATOM      9  C   UNL     1       1.815   3.118  18.549  0.00  0.00    +0.000 A 
ATOM     10  O   UNL     1       1.523   2.269  17.717  0.00  0.00    +0.000 OA
ATOM     11  N   UNL     1       0.979   3.418  19.603  0.00  0.00    +0.000 N 
ATOM     12  C   UNL     1       1.261   4.346  20.570  0.00  0.00    +0.000 A 
ATOM     13  C   UNL     1       2.398   5.052  20.555  0.00  0.00    +0.000 A 
ATOM     14  C   UNL     1       3.357   4.855  19.460  0.00  0.00    +0.000 A 
ATOM     15  C   UNL     1       4.526   5.630  19.355  0.00  0.00    +0.000 A 
ATOM     16  H   UNL     1       0.111   2.897  19.629  0.00  0.00    +0.000 HD
ENDBRANCH   3   5
BRANCH   2  17
ATOM     17  O   UNL     1       8.482   7.308  18.452  0.00  0.00    +0.000 OA
BRANCH  17  18
ATOM     18  C   UNL     1       7.779   8.429  17.887  0.00  0.00    +0.000 C 
BRANCH  18  19
ATOM     19  C   UNL     1       8.419   9.742  18.265  0.00  0.00    +0.000 A 
ATOM     20  C   UNL     1       9.252   9.829  19.388  0.00  0.00    +0.000 A 
ATOM     21  C   UNL     1       9.877  11.034  19.718  0.00  0.00    +0.000 A 
ATOM     22  C   UNL     1       9.670  12.167  18.931  0.00  0.00    +0.000 A 
ATOM     23  C   UNL     1       8.839  12.093  17.815  0.00  0.00    +0.000 A 
ATOM     24  C   UNL     1       8.213  10.889  17.484  0.00  0.00    +0.000 A 
ENDBRANCH  18  19
ENDBRANCH  17  18
ENDBRANCH   2  17
TORSDOF 4
ENDMDL
MODEL 4
REMARK VINA RESULT:      -7.7      4.716      6.945
REMARK  Name = 
REMARK  4 active torsions:
REMARK  status: ('A' for Active; 'I' for Inactive)
REMARK    1  A    between atoms: C_2  and  O_15
REMARK    2  A    between atoms: N_3  and  C_4
REMARK    3  A    between atoms: O_15  and  C_16
REMARK    4  A    between atoms: C_16  and  C_17
REMARK                            x       y       z     vdW  Elec       q    Type
REMARK                         _______ _______ _______ _____ _____    ______ ____
ROOT
ATOM      1  O   UNL     1       6.361   6.271  15.864  0.00  0.00    +0.000 OA
ATOM      2  C   UNL     1       6.603   5.082  15.721  0.00  0.00    +0.000 C 
ATOM      3  N   UNL     1       6.044   4.037  16.422  0.00  0.00    +0.000 N 
ATOM      4  H   UNL     1       6.463   3.137  16.237  0.00  0.00    +0.000 HD
ENDROOT
BRANCH   3   5
ATOM      5  C   UNL     1       5.040   4.135  17.411  0.00  0.00    +0.000 A 
ATOM      6  C   UNL     1       5.206   4.887  18.580  0.00  0.00    +0.000 A 
ATOM      7  C   UNL     1       4.230   4.893  19.578  0.00  0.00    +0.000 A 
ATOM      8  C   UNL     1       3.071   4.139  19.412  0.00  0.00    +0.000 A 
ATOM      9  C   UNL     1       2.068   4.073  20.505  0.00  0.00    +0.000 A 
ATOM     10  O   UNL     1       2.204   4.689  21.553  0.00  0.00    +0.000 OA
ATOM     11  N   UNL     1       0.977   3.260  20.276  0.00  0.00    +0.000 N 
ATOM     12  C   UNL     1       0.766   2.561  19.118  0.00  0.00    +0.000 A 
ATOM     13  C   UNL     1       1.632   2.613  18.099  0.00  0.00    +0.000 A 
ATOM     14  C   UNL     1       2.857   3.413  18.231  0.00  0.00    +0.000 A 
ATOM     15  C   UNL     1       3.836   3.434  17.222  0.00  0.00    +0.000 A 
ATOM     16  H   UNL     1       0.313   3.204  21.039  0.00  0.00    +0.000 HD
ENDBRANCH   3   5
BRANCH   2  17
ATOM     17  O   UNL     1       7.487   4.599  14.807  0.00  0.00    +0.000 OA
BRANCH  17  18
ATOM     18  C   UNL     1       7.230   5.007  13.452  0.00  0.00    +0.000 C 
BRANCH  18  19
ATOM     19  C   UNL     1       6.616   3.896  12.638  0.00  0.00    +0.000 A 
ATOM     20  C   UNL     1       5.225   3.800  12.500  0.00  0.00    +0.000 A 
ATOM     21  C   UNL     1       4.656   2.795  11.715  0.00  0.00    +0.000 A 
ATOM     22  C   UNL     1       5.472   1.870  11.064  0.00  0.00    +0.000 A 
ATOM     23  C   UNL     1       6.857   1.952  11.198  0.00  0.00    +0.000 A 
ATOM     24  C   UNL     1       7.427   2.956  11.983  0.00  0.00    +0.000 A 
ENDBRANCH  18  19
ENDBRANCH  17  18
ENDBRANCH   2  17
TORSDOF 4
ENDMDL
MODEL 5
REMARK VINA RESULT:      -7.7      1.258      1.979
REMARK  Name = 
REMARK  4 active torsions:
REMARK  status: ('A' for Active; 'I' for Inactive)
REMARK    1  A    between atoms: C_2  and  O_15
REMARK    2  A    between atoms: N_3  and  C_4
REMARK    3  A    between atoms: O_15  and  C_16
REMARK    4  A    between atoms: C_16  and  C_17
REMARK                            x       y       z     vdW  Elec       q    Type
REMARK                         _______ _______ _______ _____ _____    ______ ____
ROOT
ATOM      1  O   UNL     1       7.620   6.634  16.380  0.00  0.00    +0.000 OA
ATOM      2  C   UNL     1       7.479   7.121  17.492  0.00  0.00    +0.000 C 
ATOM      3  N   UNL     1       6.436   6.900  18.362  0.00  0.00    +0.000 N 
ATOM      4  H   UNL     1       6.443   7.488  19.183  0.00  0.00    +0.000 HD
ENDROOT
BRANCH   3   5
ATOM      5  C   UNL     1       5.347   6.024  18.157  0.00  0.00    +0.000 A 
ATOM      6  C   UNL     1       4.103   6.466  17.688  0.00  0.00    +0.000 A 
ATOM      7  C   UNL     1       3.021   5.590  17.580  0.00  0.00    +0.000 A 
ATOM      8  C   UNL     1       3.177   4.256  17.944  0.00  0.00    +0.000 A 
ATOM      9  C   UNL     1       2.009   3.338  17.912  0.00  0.00    +0.000 A 
ATOM     10  O   UNL     1       0.902   3.705  17.543  0.00  0.00    +0.000 OA
ATOM     11  N   UNL     1       2.242   2.048  18.340  0.00  0.00    +0.000 N 
ATOM     12  C   UNL     1       3.462   1.580  18.748  0.00  0.00    +0.000 A 
ATOM     13  C   UNL     1       4.545   2.365  18.768  0.00  0.00    +0.000 A 
ATOM     14  C   UNL     1       4.423   3.775  18.372  0.00  0.00    +0.000 A 
ATOM     15  C   UNL     1       5.512   4.660  18.454  0.00  0.00    +0.000 A 
ATOM     16  H   UNL     1       1.432   1.440  18.337  0.00  0.00    +0.000 HD
ENDBRANCH   3   5
BRANCH   2  17
ATOM     17  O   UNL     1       8.372   7.977  18.056  0.00  0.00    +0.000 OA
BRANCH  17  18
ATOM     18  C   UNL     1       8.048   9.370  17.901  0.00  0.00    +0.000 C 
BRANCH  18  19
ATOM     19  C   UNL     1       9.075  10.262  18.552  0.00  0.00    +0.000 A 
ATOM     20  C   UNL     1       9.126  10.389  19.947  0.00  0.00    +0.000 A 
ATOM     21  C   UNL     1      10.100  11.184  20.554  0.00  0.00    +0.000 A 
ATOM     22  C   UNL     1      11.032  11.866  19.772  0.00  0.00    +0.000 A 
ATOM     23  C   UNL     1      10.988  11.753  18.383  0.00  0.00    +0.000 A 
ATOM     24  C   UNL     1      10.013  10.958  17.775  0.00  0.00    +0.000 A 
ENDBRANCH  18  19
ENDBRANCH  17  18
ENDBRANCH   2  17
TORSDOF 4
ENDMDL
MODEL 6
REMARK VINA RESULT:      -7.7      4.688      6.932
REMARK  Name = 
REMARK  4 active torsions:
REMARK  status: ('A' for Active; 'I' for Inactive)
REMARK    1  A    between atoms: C_2  and  O_15
REMARK    2  A    between atoms: N_3  and  C_4
REMARK    3  A    between atoms: O_15  and  C_16
REMARK    4  A    between atoms: C_16  and  C_17
REMARK                            x       y       z     vdW  Elec       q    Type
REMARK                         _______ _______ _______ _____ _____    ______ ____
ROOT
ATOM      1  O   UNL     1       7.585   4.393  16.678  0.00  0.00    +0.000 OA
ATOM      2  C   UNL     1       7.013   4.665  15.633  0.00  0.00    +0.000 C 
ATOM      3  N   UNL     1       5.673   4.934  15.473  0.00  0.00    +0.000 N 
ATOM      4  H   UNL     1       5.374   5.020  14.512  0.00  0.00    +0.000 HD
ENDROOT
BRANCH   3   5
ATOM      5  C   UNL     1       4.704   4.996  16.499  0.00  0.00    +0.000 A 
ATOM      6  C   UNL     1       4.513   6.139  17.286  0.00  0.00    +0.000 A 
ATOM      7  C   UNL     1       3.607   6.140  18.348  0.00  0.00    +0.000 A 
ATOM      8  C   UNL     1       2.880   4.987  18.633  0.00  0.00    +0.000 A 
ATOM      9  C   UNL     1       1.978   4.953  19.813  0.00  0.00    +0.000 A 
ATOM     10  O   UNL     1       1.820   5.924  20.541  0.00  0.00    +0.000 OA
ATOM     11  N   UNL     1       1.339   3.755  20.051  0.00  0.00    +0.000 N 
ATOM     12  C   UNL     1       1.466   2.643  19.262  0.00  0.00    +0.000 A 
ATOM     13  C   UNL     1       2.248   2.638  18.176  0.00  0.00    +0.000 A 
ATOM     14  C   UNL     1       3.016   3.843  17.833  0.00  0.00    +0.000 A 
ATOM     15  C   UNL     1       3.913   3.861  16.751  0.00  0.00    +0.000 A 
ATOM     16  H   UNL     1       0.746   3.738  20.873  0.00  0.00    +0.000 HD
ENDBRANCH   3   5
BRANCH   2  17
ATOM     17  O   UNL     1       7.645   4.757  14.432  0.00  0.00    +0.000 OA
BRANCH  17  18
ATOM     18  C   UNL     1       6.777   5.034  13.318  0.00  0.00    +0.000 C 
BRANCH  18  19
ATOM     19  C   UNL     1       6.551   3.811  12.465  0.00  0.00    +0.000 A 
ATOM     20  C   UNL     1       7.637   3.108  11.927  0.00  0.00    +0.000 A 
ATOM     21  C   UNL     1       7.431   1.953  11.169  0.00  0.00    +0.000 A 
ATOM     22  C   UNL     1       6.136   1.492  10.936  0.00  0.00    +0.000 A 
ATOM     23  C   UNL     1       5.047   2.186  11.460  0.00  0.00    +0.000 A 
ATOM     24  C   UNL     1       5.252   3.341  12.218  0.00  0.00    +0.000 A 
ENDBRANCH  18  19
ENDBRANCH  17  18
ENDBRANCH   2  17
TORSDOF 4
ENDMDL
MODEL 7
REMARK VINA RESULT:      -7.7      4.731      6.876
REMARK  Name = 
REMARK  4 active torsions:
REMARK  status: ('A' for Active; 'I' for Inactive)
REMARK    1  A    between atoms: C_2  and  O_15
REMARK    2  A    between atoms: N_3  and  C_4
REMARK    3  A    between atoms: O_15  and  C_16
REMARK    4  A    between atoms: C_16  and  C_17
REMARK                            x       y       z     vdW  Elec       q    Type
REMARK                         _______ _______ _______ _____ _____    ______ ____
ROOT
ATOM      1  O   UNL     1       7.299   4.208  17.091  0.00  0.00    +0.000 OA
ATOM      2  C   UNL     1       6.775   4.568  16.048  0.00  0.00    +0.000 C 
ATOM      3  N   UNL     1       5.460   4.932  15.868  0.00  0.00    +0.000 N 
ATOM      4  H   UNL     1       5.194   5.084  14.906  0.00  0.00    +0.000 HD
ENDROOT
BRANCH   3   5
ATOM      5  C   UNL     1       4.468   5.009  16.872  0.00  0.00    +0.000 A 
ATOM      6  C   UNL     1       4.373   6.092  17.754  0.00  0.00    +0.000 A 
ATOM      7  C   UNL     1       3.437   6.098  18.790  0.00  0.00    +0.000 A 
ATOM      8  C   UNL     1       2.583   5.010  18.952  0.00  0.00    +0.000 A 
ATOM      9  C   UNL     1       1.643   4.972  20.101  0.00  0.00    +0.000 A 
ATOM     10  O   UNL     1       1.565   5.886  20.910  0.00  0.00    +0.000 OA
ATOM     11  N   UNL     1       0.873   3.834  20.215  0.00  0.00    +0.000 N 
ATOM     12  C   UNL     1       0.909   2.788  19.331  0.00  0.00    +0.000 A 
ATOM     13  C   UNL     1       1.722   2.793  18.268  0.00  0.00    +0.000 A 
ATOM     14  C   UNL     1       2.624   3.933  18.055  0.00  0.00    +0.000 A 
ATOM     15  C   UNL     1       3.554   3.949  17.001  0.00  0.00    +0.000 A 
ATOM     16  H   UNL     1       0.255   3.808  21.016  0.00  0.00    +0.000 HD
ENDBRANCH   3   5
BRANCH   2  17
ATOM     17  O   UNL     1       7.444   4.675  14.868  0.00  0.00    +0.000 OA
BRANCH  17  18
ATOM     18  C   UNL     1       6.620   5.017  13.740  0.00  0.00    +0.000 C 
BRANCH  18  19
ATOM     19  C   UNL     1       6.475   3.863  12.780  0.00  0.00    +0.000 A 
ATOM     20  C   UNL     1       5.213   3.327  12.496  0.00  0.00    +0.000 A 
ATOM     21  C   UNL     1       5.073   2.284  11.578  0.00  0.00    +0.000 A 
ATOM     22  C   UNL     1       6.196   1.762  10.938  0.00  0.00    +0.000 A 
ATOM     23  C   UNL     1       7.458   2.283  11.216  0.00  0.00    +0.000 A 
ATOM     24  C   UNL     1       7.599   3.325  12.135  0.00  0.00    +0.000 A 
ENDBRANCH  18  19
ENDBRANCH  17  18
ENDBRANCH   2  17
TORSDOF 4
ENDMDL
MODEL 8
REMARK VINA RESULT:      -7.6      0.834      1.261
REMARK  Name = 
REMARK  4 active torsions:
REMARK  status: ('A' for Active; 'I' for Inactive)
REMARK    1  A    between atoms: C_2  and  O_15
REMARK    2  A    between atoms: N_3  and  C_4
REMARK    3  A    between atoms: O_15  and  C_16
REMARK    4  A    between atoms: C_16  and  C_17
REMARK                            x       y       z     vdW  Elec       q    Type
REMARK                         _______ _______ _______ _____ _____    ______ ____
ROOT
ATOM      1  O   UNL     1       8.082   6.603  18.699  0.00  0.00    +0.000 OA
ATOM      2  C   UNL     1       7.561   7.395  17.927  0.00  0.00    +0.000 C 
ATOM      3  N   UNL     1       6.343   7.257  17.302  0.00  0.00    +0.000 N 
ATOM      4  H   UNL     1       6.143   7.966  16.611  0.00  0.00    +0.000 HD
ENDROOT
BRANCH   3   5
ATOM      5  C   UNL     1       5.431   6.191  17.472  0.00  0.00    +0.000 A 
ATOM      6  C   UNL     1       5.354   5.117  16.576  0.00  0.00    +0.000 A 
ATOM      7  C   UNL     1       4.384   4.124  16.723  0.00  0.00    +0.000 A 
ATOM      8  C   UNL     1       3.475   4.200  17.776  0.00  0.00    +0.000 A 
ATOM      9  C   UNL     1       2.388   3.195  17.890  0.00  0.00    +0.000 A 
ATOM     10  O   UNL     1       2.273   2.268  17.100  0.00  0.00    +0.000 OA
ATOM     11  N   UNL     1       1.502   3.377  18.930  0.00  0.00    +0.000 N 
ATOM     12  C   UNL     1       1.592   4.387  19.851  0.00  0.00    +0.000 A 
ATOM     13  C   UNL     1       2.571   5.299  19.801  0.00  0.00    +0.000 A 
ATOM     14  C   UNL     1       3.558   5.239  18.715  0.00  0.00    +0.000 A 
ATOM     15  C   UNL     1       4.555   6.220  18.571  0.00  0.00    +0.000 A 
ATOM     16  H   UNL     1       0.751   2.700  18.982  0.00  0.00    +0.000 HD
ENDBRANCH   3   5
BRANCH   2  17
ATOM     17  O   UNL     1       8.127   8.579  17.569  0.00  0.00    +0.000 OA
BRANCH  17  18
ATOM     18  C   UNL     1       8.740   9.302  18.651  0.00  0.00    +0.000 C 
BRANCH  18  19
ATOM     19  C   UNL     1       9.213  10.667  18.217  0.00  0.00    +0.000 A 
ATOM     20  C   UNL     1       8.292  11.653  17.841  0.00  0.00    +0.000 A 
ATOM     21  C   UNL     1       8.726  12.929  17.476  0.00  0.00    +0.000 A 
ATOM     22  C   UNL     1      10.087  13.231  17.477  0.00  0.00    +0.000 A 
ATOM     23  C   UNL     1      11.014  12.257  17.843  0.00  0.00    +0.000 A 
ATOM     24  C   UNL     1      10.581  10.980  18.208  0.00  0.00    +0.000 A 
ENDBRANCH  18  19
ENDBRANCH  17  18
ENDBRANCH   2  17
TORSDOF 4
ENDMDL
MODEL 9
REMARK VINA RESULT:      -7.5      4.581      7.070
REMARK  Name = 
REMARK  4 active torsions:
REMARK  status: ('A' for Active; 'I' for Inactive)
REMARK    1  A    between atoms: C_2  and  O_15
REMARK    2  A    between atoms: N_3  and  C_4
REMARK    3  A    between atoms: O_15  and  C_16
REMARK    4  A    between atoms: C_16  and  C_17
REMARK                            x       y       z     vdW  Elec       q    Type
REMARK                         _______ _______ _______ _____ _____    ______ ____
ROOT
ATOM      1  O   UNL     1       1.644   4.573  19.048  0.00  0.00    +0.000 OA
ATOM      2  C   UNL     1       2.726   4.954  19.470  0.00  0.00    +0.000 C 
ATOM      3  N   UNL     1       3.078   6.245  19.790  0.00  0.00    +0.000 N 
ATOM      4  H   UNL     1       4.056   6.371  20.009  0.00  0.00    +0.000 HD
ENDROOT
BRANCH   3   5
ATOM      5  C   UNL     1       2.237   7.379  19.740  0.00  0.00    +0.000 A 
ATOM      6  C   UNL     1       2.112   8.174  18.594  0.00  0.00    +0.000 A 
ATOM      7  C   UNL     1       1.341   9.337  18.605  0.00  0.00    +0.000 A 
ATOM      8  C   UNL     1       0.684   9.717  19.772  0.00  0.00    +0.000 A 
ATOM      9  C   UNL     1      -0.069  10.996  19.816  0.00  0.00    +0.000 A 
ATOM     10  O   UNL     1      -0.164  11.730  18.842  0.00  0.00    +0.000 OA
ATOM     11  N   UNL     1      -0.644  11.319  21.027  0.00  0.00    +0.000 N 
ATOM     12  C   UNL     1      -0.583  10.529  22.144  0.00  0.00    +0.000 A 
ATOM     13  C   UNL     1       0.063   9.357  22.141  0.00  0.00    +0.000 A 
ATOM     14  C   UNL     1       0.752   8.915  20.921  0.00  0.00    +0.000 A 
ATOM     15  C   UNL     1       1.513   7.733  20.892  0.00  0.00    +0.000 A 
ATOM     16  H   UNL     1      -1.133  12.206  21.050  0.00  0.00    +0.000 HD
ENDBRANCH   3   5
BRANCH   2  17
ATOM     17  O   UNL     1       3.776   4.121  19.703  0.00  0.00    +0.000 OA
BRANCH  17  18
ATOM     18  C   UNL     1       4.149   3.299  18.583  0.00  0.00    +0.000 C 
BRANCH  18  19
ATOM     19  C   UNL     1       5.083   4.021  17.643  0.00  0.00    +0.000 A 
ATOM     20  C   UNL     1       6.275   4.583  18.116  0.00  0.00    +0.000 A 
ATOM     21  C   UNL     1       7.159   5.218  17.241  0.00  0.00    +0.000 A 
ATOM     22  C   UNL     1       6.856   5.303  15.882  0.00  0.00    +0.000 A 
ATOM     23  C   UNL     1       5.670   4.753  15.400  0.00  0.00    +0.000 A 
ATOM     24  C   UNL     1       4.785   4.118  16.275  0.00  0.00    +0.000 A 
ENDBRANCH  18  19
ENDBRANCH  17  18
ENDBRANCH   2  17
TORSDOF 4
ENDMDL
