MODEL 1
REMARK VINA RESULT:      -8.0      0.000      0.000
REMARK  Name = 
REMARK  9 active torsions:
REMARK  status: ('A' for Active; 'I' for Inactive)
REMARK    1  A    between atoms: C_1  and  C_2
REMARK    2  A    between atoms: C_2  and  C_3
REMARK    3  A    between atoms: N_5  and  C_6
REMARK    4  A    between atoms: C_10  and  N_11
REMARK    5  A    between atoms: N_11  and  C_12
REMARK    6  A    between atoms: C_12  and  C_13
REMARK    7  A    between atoms: C_20  and  C_21
REMARK    8  A    between atoms: C_21  and  C_22
REMARK    9  A    between atoms: C_24  and  O_25
REMARK                            x       y       z     vdW  Elec       q    Type
REMARK                         _______ _______ _______ _____ _____    ______ ____
ROOT
ATOM      1  C   UNL     1       2.614   6.329  19.130  0.00  0.00    +0.000 C 
ATOM      2  C   UNL     1       2.553   5.513  20.413  0.00  0.00    +0.000 C 
ATOM      3  C   UNL     1       2.227   7.649  19.118  0.00  0.00    +0.000 C 
ATOM      4  C   UNL     1       2.447   8.442  17.869  0.00  0.00    +0.000 C 
ATOM      5  O   UNL     1       3.002   7.961  16.878  0.00  0.00    +0.000 OA
ATOM      6  O   UNL     1       2.039   9.718  17.819  0.00  0.00    +0.000 OA
ATOM      7  C   UNL     1       1.380  10.341  18.824  0.00  0.00    +0.000 C 
ATOM      8  O   UNL     1       0.943  11.472  18.655  0.00  0.00    +0.000 OA
ATOM      9  C   UNL     1       1.168   9.648  20.094  0.00  0.00    +0.000 C 
ATOM     10  C   UNL     1       1.572   8.371  20.201  0.00  0.00    +0.000 C 
ENDROOT
BRANCH   9  11
ATOM     11  C   UNL     1       0.453  10.287  21.245  0.00  0.00    +0.000 C 
ATOM     12  C   UNL     1      -0.940  10.846  21.090  0.00  0.00    +0.000 C 
ATOM     13  O   UNL     1       1.033  10.376  22.328  0.00  0.00    +0.000 OA
ENDBRANCH   9  11
BRANCH   1  14
ATOM     14  N   UNL     1       3.158   5.666  18.015  0.00  0.00    +0.000 N 
ATOM     15  H   UNL     1       2.452   5.169  17.458  0.00  0.00    +0.000 HD
BRANCH  14  20
ATOM     16  C   UNL     1       6.014   4.546  15.883  0.00  0.00    +0.000 A 
ATOM     17  C   UNL     1       7.066   4.559  16.792  0.00  0.00    +0.000 A 
ATOM     18  C   UNL     1       6.836   4.891  18.123  0.00  0.00    +0.000 A 
ATOM     19  C   UNL     1       5.548   5.209  18.560  0.00  0.00    +0.000 A 
ATOM     20  C   UNL     1       4.471   5.264  17.671  0.00  0.00    +0.000 A 
ATOM     21  C   UNL     1       4.737   4.950  16.319  0.00  0.00    +0.000 A 
BRANCH  16  24
ATOM     22  C   UNL     1       7.047   4.619  13.605  0.00  0.00    +0.000 C 
ATOM     23  O   UNL     1       7.831   5.549  13.766  0.00  0.00    +0.000 OA
ATOM     24  N   UNL     1       6.157   4.115  14.542  0.00  0.00    +0.000 N 
ATOM     25  H   UNL     1       5.645   3.280  14.286  0.00  0.00    +0.000 HD
BRANCH  22  27
ATOM     26  C   UNL     1       5.735   3.120  12.060  0.00  0.00    +0.000 C 
ATOM     27  C   UNL     1       7.034   3.867  12.288  0.00  0.00    +0.000 C 
ENDBRANCH  22  27
ENDBRANCH  16  24
ENDBRANCH  14  20
ENDBRANCH   1  14
BRANCH  10  28
ATOM     28  O   UNL     1       1.345   7.630  21.345  0.00  0.00    +0.000 OA
ATOM     29  H   UNL     1       1.832   8.043  22.092  0.00  0.00    +0.000 HD
ENDBRANCH  10  28
TORSDOF 6
ENDMDL
MODEL 2
REMARK VINA RESULT:      -7.9      2.335      4.260
REMARK  Name = 
REMARK  9 active torsions:
REMARK  status: ('A' for Active; 'I' for Inactive)
REMARK    1  A    between atoms: C_1  and  C_2
REMARK    2  A    between atoms: C_2  and  C_3
REMARK    3  A    between atoms: N_5  and  C_6
REMARK    4  A    between atoms: C_10  and  N_11
REMARK    5  A    between atoms: N_11  and  C_12
REMARK    6  A    between atoms: C_12  and  C_13
REMARK    7  A    between atoms: C_20  and  C_21
REMARK    8  A    between atoms: C_21  and  C_22
REMARK    9  A    between atoms: C_24  and  O_25
REMARK                            x       y       z     vdW  Elec       q    Type
REMARK                         _______ _______ _______ _____ _____    ______ ____
ROOT
ATOM      1  C   UNL     1       1.643   8.515  19.526  0.00  0.00    +0.000 C 
ATOM      2  C   UNL     1       1.835   8.278  18.035  0.00  0.00    +0.000 C 
ATOM      3  C   UNL     1       1.178   9.723  19.990  0.00  0.00    +0.000 C 
ATOM      4  C   UNL     1       0.867   9.850  21.448  0.00  0.00    +0.000 C 
ATOM      5  O   UNL     1       0.972   8.899  22.225  0.00  0.00    +0.000 OA
ATOM      6  O   UNL     1       0.453  11.030  21.932  0.00  0.00    +0.000 OA
ATOM      7  C   UNL     1       0.342  12.156  21.188  0.00  0.00    +0.000 C 
ATOM      8  O   UNL     1       0.066  13.218  21.730  0.00  0.00    +0.000 OA
ATOM      9  C   UNL     1       0.583  12.101  19.747  0.00  0.00    +0.000 C 
ATOM     10  C   UNL     1       0.985  10.938  19.209  0.00  0.00    +0.000 C 
ENDROOT
BRANCH   9  11
ATOM     11  C   UNL     1       0.469  13.310  18.870  0.00  0.00    +0.000 C 
ATOM     12  C   UNL     1       1.536  14.378  18.864  0.00  0.00    +0.000 C 
ATOM     13  O   UNL     1      -0.533  13.439  18.164  0.00  0.00    +0.000 OA
ENDBRANCH   9  11
BRANCH   1  14
ATOM     14  N   UNL     1       1.894   7.405  20.353  0.00  0.00    +0.000 N 
ATOM     15  H   UNL     1       1.998   7.657  21.343  0.00  0.00    +0.000 HD
BRANCH  14  20
ATOM     16  C   UNL     1       4.115   4.660  19.134  0.00  0.00    +0.000 A 
ATOM     17  C   UNL     1       3.458   3.532  19.615  0.00  0.00    +0.000 A 
ATOM     18  C   UNL     1       2.256   3.663  20.303  0.00  0.00    +0.000 A 
ATOM     19  C   UNL     1       1.696   4.925  20.512  0.00  0.00    +0.000 A 
ATOM     20  C   UNL     1       2.348   6.089  20.098  0.00  0.00    +0.000 A 
ATOM     21  C   UNL     1       3.581   5.930  19.427  0.00  0.00    +0.000 A 
BRANCH  16  24
ATOM     22  C   UNL     1       6.573   4.907  18.735  0.00  0.00    +0.000 C 
ATOM     23  O   UNL     1       6.917   5.335  19.832  0.00  0.00    +0.000 OA
ATOM     24  N   UNL     1       5.282   4.592  18.336  0.00  0.00    +0.000 N 
ATOM     25  H   UNL     1       5.175   4.157  17.428  0.00  0.00    +0.000 HD
BRANCH  22  27
ATOM     26  C   UNL     1       7.033   4.534  16.284  0.00  0.00    +0.000 C 
ATOM     27  C   UNL     1       7.622   4.621  17.678  0.00  0.00    +0.000 C 
ENDBRANCH  22  27
ENDBRANCH  16  24
ENDBRANCH  14  20
ENDBRANCH   1  14
BRANCH  10  28
ATOM     28  O   UNL     1       1.298  10.827  17.868  0.00  0.00    +0.000 OA
ATOM     29  H   UNL     1       2.266  10.690  17.779  0.00  0.00    +0.000 HD
ENDBRANCH  10  28
TORSDOF 6
ENDMDL
MODEL 3
REMARK VINA RESULT:      -7.9      3.428      8.021
REMARK  Name = 
REMARK  9 active torsions:
REMARK  status: ('A' for Active; 'I' for Inactive)
REMARK    1  A    between atoms: C_1  and  C_2
REMARK    2  A    between atoms: C_2  and  C_3
REMARK    3  A    between atoms: N_5  and  C_6
REMARK    4  A    between atoms: C_10  and  N_11
REMARK    5  A    between atoms: N_11  and  C_12
REMARK    6  A    between atoms: C_12  and  C_13
REMARK    7  A    between atoms: C_20  and  C_21
REMARK    8  A    between atoms: C_21  and  C_22
REMARK    9  A    between atoms: C_24  and  O_25
REMARK                            x       y       z     vdW  Elec       q    Type
REMARK                         _______ _______ _______ _____ _____    ______ ____
ROOT
ATOM      1  C   UNL     1       2.215   7.336  19.628  0.00  0.00    +0.000 C 
ATOM      2  C   UNL     1       1.420   6.938  20.863  0.00  0.00    +0.000 C 
ATOM      3  C   UNL     1       2.932   6.398  18.922  0.00  0.00    +0.000 C 
ATOM      4  C   UNL     1       3.572   6.816  17.636  0.00  0.00    +0.000 C 
ATOM      5  O   UNL     1       3.435   7.951  17.175  0.00  0.00    +0.000 OA
ATOM      6  O   UNL     1       4.312   5.931  16.952  0.00  0.00    +0.000 OA
ATOM      7  C   UNL     1       4.570   4.672  17.378  0.00  0.00    +0.000 C 
ATOM      8  O   UNL     1       5.348   3.965  16.749  0.00  0.00    +0.000 OA
ATOM      9  C   UNL     1       3.943   4.175  18.601  0.00  0.00    +0.000 C 
ATOM     10  C   UNL     1       3.179   5.018  19.317  0.00  0.00    +0.000 C 
ENDROOT
BRANCH   9  11
ATOM     11  C   UNL     1       4.184   2.790  19.119  0.00  0.00    +0.000 C 
ATOM     12  C   UNL     1       3.455   1.600  18.544  0.00  0.00    +0.000 C 
ATOM     13  O   UNL     1       4.975   2.634  20.050  0.00  0.00    +0.000 OA
ENDBRANCH   9  11
BRANCH   1  14
ATOM     14  N   UNL     1       2.091   8.682  19.236  0.00  0.00    +0.000 N 
ATOM     15  H   UNL     1       2.997   9.136  19.065  0.00  0.00    +0.000 HD
BRANCH  14  20
ATOM     16  C   UNL     1      -0.968  10.603  18.285  0.00  0.00    +0.000 A 
ATOM     17  C   UNL     1      -1.177  11.379  19.421  0.00  0.00    +0.000 A 
ATOM     18  C   UNL     1      -0.288  11.310  20.488  0.00  0.00    +0.000 A 
ATOM     19  C   UNL     1       0.824  10.468  20.428  0.00  0.00    +0.000 A 
ATOM     20  C   UNL     1       1.043   9.628  19.333  0.00  0.00    +0.000 A 
ATOM     21  C   UNL     1       0.110   9.696  18.275  0.00  0.00    +0.000 A 
BRANCH  16  24
ATOM     22  C   UNL     1      -3.083  10.275  16.989  0.00  0.00    +0.000 C 
ATOM     23  O   UNL     1      -3.758   9.704  17.840  0.00  0.00    +0.000 OA
ATOM     24  N   UNL     1      -1.770  10.703  17.123  0.00  0.00    +0.000 N 
ATOM     25  H   UNL     1      -1.384  11.246  16.362  0.00  0.00    +0.000 HD
BRANCH  22  27
ATOM     26  C   UNL     1      -2.891  10.110  14.481  0.00  0.00    +0.000 C 
ATOM     27  C   UNL     1      -3.703  10.628  15.651  0.00  0.00    +0.000 C 
ENDBRANCH  22  27
ENDBRANCH  16  24
ENDBRANCH  14  20
ENDBRANCH   1  14
BRANCH  10  28
ATOM     28  O   UNL     1       2.610   4.641  20.518  0.00  0.00    +0.000 OA
ATOM     29  H   UNL     1       1.694   4.992  20.558  0.00  0.00    +0.000 HD
ENDBRANCH  10  28
TORSDOF 6
ENDMDL
MODEL 4
REMARK VINA RESULT:      -7.7      1.918      3.788
REMARK  Name = 
REMARK  9 active torsions:
REMARK  status: ('A' for Active; 'I' for Inactive)
REMARK    1  A    between atoms: C_1  and  C_2
REMARK    2  A    between atoms: C_2  and  C_3
REMARK    3  A    between atoms: N_5  and  C_6
REMARK    4  A    between atoms: C_10  and  N_11
REMARK    5  A    between atoms: N_11  and  C_12
REMARK    6  A    between atoms: C_12  and  C_13
REMARK    7  A    between atoms: C_20  and  C_21
REMARK    8  A    between atoms: C_21  and  C_22
REMARK    9  A    between atoms: C_24  and  O_25
REMARK                            x       y       z     vdW  Elec       q    Type
REMARK                         _______ _______ _______ _____ _____    ______ ____
ROOT
ATOM      1  C   UNL     1       1.875   8.090  19.479  0.00  0.00    +0.000 C 
ATOM      2  C   UNL     1       2.047   7.811  17.992  0.00  0.00    +0.000 C 
ATOM      3  C   UNL     1       1.440   9.319  19.917  0.00  0.00    +0.000 C 
ATOM      4  C   UNL     1       1.148   9.489  21.375  0.00  0.00    +0.000 C 
ATOM      5  O   UNL     1       1.240   8.555  22.174  0.00  0.00    +0.000 OA
ATOM      6  O   UNL     1       0.763  10.689  21.833  0.00  0.00    +0.000 OA
ATOM      7  C   UNL     1       0.669  11.798  21.061  0.00  0.00    +0.000 C 
ATOM      8  O   UNL     1       0.421  12.879  21.580  0.00  0.00    +0.000 OA
ATOM      9  C   UNL     1       0.893  11.702  19.620  0.00  0.00    +0.000 C 
ATOM     10  C   UNL     1       1.266  10.518  19.108  0.00  0.00    +0.000 C 
ENDROOT
BRANCH   9  11
ATOM     11  C   UNL     1       0.796  12.891  18.714  0.00  0.00    +0.000 C 
ATOM     12  C   UNL     1      -0.542  13.429  18.266  0.00  0.00    +0.000 C 
ATOM     13  O   UNL     1       1.834  13.417  18.311  0.00  0.00    +0.000 OA
ENDBRANCH   9  11
BRANCH   1  14
ATOM     14  N   UNL     1       2.111   6.996  20.331  0.00  0.00    +0.000 N 
ATOM     15  H   UNL     1       2.198   7.266  21.318  0.00  0.00    +0.000 HD
BRANCH  14  20
ATOM     16  C   UNL     1       4.333   4.227  19.171  0.00  0.00    +0.000 A 
ATOM     17  C   UNL     1       3.685   3.110  19.688  0.00  0.00    +0.000 A 
ATOM     18  C   UNL     1       2.489   3.255  20.383  0.00  0.00    +0.000 A 
ATOM     19  C   UNL     1       1.925   4.520  20.562  0.00  0.00    +0.000 A 
ATOM     20  C   UNL     1       2.569   5.675  20.110  0.00  0.00    +0.000 A 
ATOM     21  C   UNL     1       3.797   5.502  19.432  0.00  0.00    +0.000 A 
BRANCH  16  24
ATOM     22  C   UNL     1       5.587   4.464  17.018  0.00  0.00    +0.000 C 
ATOM     23  O   UNL     1       4.674   4.840  16.290  0.00  0.00    +0.000 OA
ATOM     24  N   UNL     1       5.494   4.141  18.364  0.00  0.00    +0.000 N 
ATOM     25  H   UNL     1       6.359   3.941  18.850  0.00  0.00    +0.000 HD
BRANCH  22  27
ATOM     26  C   UNL     1       7.070   4.722  14.995  0.00  0.00    +0.000 C 
ATOM     27  C   UNL     1       6.998   4.372  16.468  0.00  0.00    +0.000 C 
ENDBRANCH  22  27
ENDBRANCH  16  24
ENDBRANCH  14  20
ENDBRANCH   1  14
BRANCH  10  28
ATOM     28  O   UNL     1       1.562  10.366  17.766  0.00  0.00    +0.000 OA
ATOM     29  H   UNL     1       2.537  10.370  17.655  0.00  0.00    +0.000 HD
ENDBRANCH  10  28
TORSDOF 6
ENDMDL
MODEL 5
REMARK VINA RESULT:      -7.7      1.106      2.311
REMARK  Name = 
REMARK  9 active torsions:
REMARK  status: ('A' for Active; 'I' for Inactive)
REMARK    1  A    between atoms: C_1  and  C_2
REMARK    2  A    between atoms: C_2  and  C_3
REMARK    3  A    between atoms: N_5  and  C_6
REMARK    4  A    between atoms: C_10  and  N_11
REMARK    5  A    between atoms: N_11  and  C_12
REMARK    6  A    between atoms: C_12  and  C_13
REMARK    7  A    between atoms: C_20  and  C_21
REMARK    8  A    between atoms: C_21  and  C_22
REMARK    9  A    between atoms: C_24  and  O_25
REMARK                            x       y       z     vdW  Elec       q    Type
REMARK                         _______ _______ _______ _____ _____    ______ ____
ROOT
ATOM      1  C   UNL     1       3.022   7.203  18.392  0.00  0.00    +0.000 C 
ATOM      2  C   UNL     1       3.323   7.956  17.104  0.00  0.00    +0.000 C 
ATOM      3  C   UNL     1       2.112   7.696  19.298  0.00  0.00    +0.000 C 
ATOM      4  C   UNL     1       1.746   6.845  20.471  0.00  0.00    +0.000 C 
ATOM      5  O   UNL     1       2.198   5.707  20.621  0.00  0.00    +0.000 OA
ATOM      6  O   UNL     1       0.894   7.321  21.390  0.00  0.00    +0.000 OA
ATOM      7  C   UNL     1       0.368   8.568  21.358  0.00  0.00    +0.000 C 
ATOM      8  O   UNL     1      -0.313   8.964  22.295  0.00  0.00    +0.000 OA
ATOM      9  C   UNL     1       0.640   9.444  20.219  0.00  0.00    +0.000 C 
ATOM     10  C   UNL     1       1.477   9.007  19.263  0.00  0.00    +0.000 C 
ENDROOT
BRANCH   9  11
ATOM     11  C   UNL     1       0.081  10.830  20.124  0.00  0.00    +0.000 C 
ATOM     12  C   UNL     1       0.678  11.973  20.909  0.00  0.00    +0.000 C 
ATOM     13  O   UNL     1      -0.902  11.025  19.408  0.00  0.00    +0.000 OA
ENDBRANCH   9  11
BRANCH   1  14
ATOM     14  N   UNL     1       3.670   5.962  18.533  0.00  0.00    +0.000 N 
ATOM     15  H   UNL     1       3.319   5.413  19.328  0.00  0.00    +0.000 HD
BRANCH  14  20
ATOM     16  C   UNL     1       6.093   4.444  16.130  0.00  0.00    +0.000 A 
ATOM     17  C   UNL     1       7.276   4.484  16.860  0.00  0.00    +0.000 A 
ATOM     18  C   UNL     1       7.277   4.967  18.164  0.00  0.00    +0.000 A 
ATOM     19  C   UNL     1       6.092   5.411  18.754  0.00  0.00    +0.000 A 
ATOM     20  C   UNL     1       4.891   5.443  18.040  0.00  0.00    +0.000 A 
ATOM     21  C   UNL     1       4.923   4.973  16.708  0.00  0.00    +0.000 A 
BRANCH  16  24
ATOM     22  C   UNL     1       6.629   4.317  13.689  0.00  0.00    +0.000 C 
ATOM     23  O   UNL     1       7.339   5.312  13.583  0.00  0.00    +0.000 OA
ATOM     24  N   UNL     1       6.000   3.866  14.840  0.00  0.00    +0.000 N 
ATOM     25  H   UNL     1       5.527   2.973  14.786  0.00  0.00    +0.000 HD
BRANCH  22  27
ATOM     26  C   UNL     1       4.976   3.391  12.025  0.00  0.00    +0.000 C 
ATOM     27  C   UNL     1       6.418   3.413  12.489  0.00  0.00    +0.000 C 
ENDBRANCH  22  27
ENDBRANCH  16  24
ENDBRANCH  14  20
ENDBRANCH   1  14
BRANCH  10  28
ATOM     28  O   UNL     1       1.836   9.804  18.193  0.00  0.00    +0.000 OA
ATOM     29  H   UNL     1       1.857  10.740  18.488  0.00  0.00    +0.000 HD
ENDBRANCH  10  28
TORSDOF 6
ENDMDL
MODEL 6
REMARK VINA RESULT:      -7.7      2.203      4.218
REMARK  Name = 
REMARK  9 active torsions:
REMARK  status: ('A' for Active; 'I' for Inactive)
REMARK    1  A    between atoms: C_1  and  C_2
REMARK    2  A    between atoms: C_2  and  C_3
REMARK    3  A    between atoms: N_5  and  C_6
REMARK    4  A    between atoms: C_10  and  N_11
REMARK    5  A    between atoms: N_11  and  C_12
REMARK    6  A    between atoms: C_12  and  C_13
REMARK    7  A    between atoms: C_20  and  C_21
REMARK    8  A    between atoms: C_21  and  C_22
REMARK    9  A    between atoms: C_24  and  O_25
REMARK                            x       y       z     vdW  Elec       q    Type
REMARK                         _______ _______ _______ _____ _____    ______ ____
ROOT
ATOM      1  C   UNL     1       1.247   9.101  19.705  0.00  0.00    +0.000 C 
ATOM      2  C   UNL     1       1.045   9.155  18.198  0.00  0.00    +0.000 C 
ATOM      3  C   UNL     1       0.546   9.941  20.539  0.00  0.00    +0.000 C 
ATOM      4  C   UNL     1       0.674   9.743  22.016  0.00  0.00    +0.000 C 
ATOM      5  O   UNL     1       1.346   8.828  22.498  0.00  0.00    +0.000 OA
ATOM      6  O   UNL     1       0.034  10.576  22.849  0.00  0.00    +0.000 OA
ATOM      7  C   UNL     1      -0.695  11.641  22.440  0.00  0.00    +0.000 C 
ATOM      8  O   UNL     1      -1.153  12.418  23.269  0.00  0.00    +0.000 OA
ATOM      9  C   UNL     1      -0.906  11.874  21.012  0.00  0.00    +0.000 C 
ATOM     10  C   UNL     1      -0.298  11.058  20.135  0.00  0.00    +0.000 C 
ENDROOT
BRANCH   9  11
ATOM     11  C   UNL     1      -1.708  13.029  20.499  0.00  0.00    +0.000 C 
ATOM     12  C   UNL     1      -3.217  12.995  20.491  0.00  0.00    +0.000 C 
ATOM     13  O   UNL     1      -1.115  14.012  20.052  0.00  0.00    +0.000 OA
ENDBRANCH   9  11
BRANCH   1  14
ATOM     14  N   UNL     1       2.120   8.097  20.163  0.00  0.00    +0.000 N 
ATOM     15  H   UNL     1       2.943   8.471  20.651  0.00  0.00    +0.000 HD
BRANCH  14  20
ATOM     16  C   UNL     1       3.491   5.066  18.464  0.00  0.00    +0.000 A 
ATOM     17  C   UNL     1       2.830   4.043  19.136  0.00  0.00    +0.000 A 
ATOM     18  C   UNL     1       1.894   4.344  20.120  0.00  0.00    +0.000 A 
ATOM     19  C   UNL     1       1.607   5.672  20.439  0.00  0.00    +0.000 A 
ATOM     20  C   UNL     1       2.287   6.731  19.831  0.00  0.00    +0.000 A 
ATOM     21  C   UNL     1       3.252   6.397  18.855  0.00  0.00    +0.000 A 
BRANCH  16  24
ATOM     22  C   UNL     1       5.708   4.471  17.468  0.00  0.00    +0.000 C 
ATOM     23  O   UNL     1       6.362   4.327  18.497  0.00  0.00    +0.000 OA
ATOM     24  N   UNL     1       4.372   4.834  17.380  0.00  0.00    +0.000 N 
ATOM     25  H   UNL     1       3.951   4.815  16.460  0.00  0.00    +0.000 HD
BRANCH  22  27
ATOM     26  C   UNL     1       5.522   4.705  14.964  0.00  0.00    +0.000 C 
ATOM     27  C   UNL     1       6.350   4.187  16.124  0.00  0.00    +0.000 C 
ENDBRANCH  22  27
ENDBRANCH  16  24
ENDBRANCH  14  20
ENDBRANCH   1  14
BRANCH  10  28
ATOM     28  O   UNL     1      -0.394  11.256  18.771  0.00  0.00    +0.000 OA
ATOM     29  H   UNL     1      -0.799  12.135  18.606  0.00  0.00    +0.000 HD
ENDBRANCH  10  28
TORSDOF 6
ENDMDL
MODEL 7
REMARK VINA RESULT:      -7.7      3.594      7.983
REMARK  Name = 
REMARK  9 active torsions:
REMARK  status: ('A' for Active; 'I' for Inactive)
REMARK    1  A    between atoms: C_1  and  C_2
REMARK    2  A    between atoms: C_2  and  C_3
REMARK    3  A    between atoms: N_5  and  C_6
REMARK    4  A    between atoms: C_10  and  N_11
REMARK    5  A    between atoms: N_11  and  C_12
REMARK    6  A    between atoms: C_12  and  C_13
REMARK    7  A    between atoms: C_20  and  C_21
REMARK    8  A    between atoms: C_21  and  C_22
REMARK    9  A    between atoms: C_24  and  O_25
REMARK                            x       y       z     vdW  Elec       q    Type
REMARK                         _______ _______ _______ _____ _____    ______ ____
ROOT
ATOM      1  C   UNL     1       1.820   7.860  20.065  0.00  0.00    +0.000 C 
ATOM      2  C   UNL     1       1.084   7.663  21.382  0.00  0.00    +0.000 C 
ATOM      3  C   UNL     1       2.353   6.786  19.391  0.00  0.00    +0.000 C 
ATOM      4  C   UNL     1       2.934   7.018  18.033  0.00  0.00    +0.000 C 
ATOM      5  O   UNL     1       2.905   8.125  17.489  0.00  0.00    +0.000 OA
ATOM      6  O   UNL     1       3.498   5.995  17.374  0.00  0.00    +0.000 OA
ATOM      7  C   UNL     1       3.628   4.748  17.884  0.00  0.00    +0.000 C 
ATOM      8  O   UNL     1       4.256   3.900  17.263  0.00  0.00    +0.000 OA
ATOM      9  C   UNL     1       3.044   4.430  19.186  0.00  0.00    +0.000 C 
ATOM     10  C   UNL     1       2.454   5.417  19.881  0.00  0.00    +0.000 C 
ENDROOT
BRANCH   9  11
ATOM     11  C   UNL     1       3.149   3.068  19.800  0.00  0.00    +0.000 C 
ATOM     12  C   UNL     1       4.490   2.439  20.092  0.00  0.00    +0.000 C 
ATOM     13  O   UNL     1       2.114   2.445  20.042  0.00  0.00    +0.000 OA
ENDBRANCH   9  11
BRANCH   1  14
ATOM     14  N   UNL     1       1.836   9.177  19.571  0.00  0.00    +0.000 N 
ATOM     15  H   UNL     1       2.786   9.546  19.442  0.00  0.00    +0.000 HD
BRANCH  14  20
ATOM     16  C   UNL     1      -1.069  11.166  18.323  0.00  0.00    +0.000 A 
ATOM     17  C   UNL     1      -1.212  12.117  19.328  0.00  0.00    +0.000 A 
ATOM     18  C   UNL     1      -0.326  12.140  20.400  0.00  0.00    +0.000 A 
ATOM     19  C   UNL     1       0.717  11.214  20.475  0.00  0.00    +0.000 A 
ATOM     20  C   UNL     1       0.866  10.206  19.519  0.00  0.00    +0.000 A 
ATOM     21  C   UNL     1      -0.065  10.187  18.455  0.00  0.00    +0.000 A 
BRANCH  16  24
ATOM     22  C   UNL     1      -2.964  10.338  16.914  0.00  0.00    +0.000 C 
ATOM     23  O   UNL     1      -3.405   9.466  17.656  0.00  0.00    +0.000 OA
ATOM     24  N   UNL     1      -1.867  11.153  17.153  0.00  0.00    +0.000 N 
ATOM     25  H   UNL     1      -1.688  11.892  16.485  0.00  0.00    +0.000 HD
BRANCH  22  27
ATOM     26  C   UNL     1      -2.963  10.055  14.408  0.00  0.00    +0.000 C 
ATOM     27  C   UNL     1      -3.675  10.645  15.610  0.00  0.00    +0.000 C 
ENDBRANCH  22  27
ENDBRANCH  16  24
ENDBRANCH  14  20
ENDBRANCH   1  14
BRANCH  10  28
ATOM     28  O   UNL     1       1.941   5.209  21.147  0.00  0.00    +0.000 OA
ATOM     29  H   UNL     1       2.684   5.040  21.766  0.00  0.00    +0.000 HD
ENDBRANCH  10  28
TORSDOF 6
ENDMDL
MODEL 8
REMARK VINA RESULT:      -7.6      1.336      2.559
REMARK  Name = 
REMARK  9 active torsions:
REMARK  status: ('A' for Active; 'I' for Inactive)
REMARK    1  A    between atoms: C_1  and  C_2
REMARK    2  A    between atoms: C_2  and  C_3
REMARK    3  A    between atoms: N_5  and  C_6
REMARK    4  A    between atoms: C_10  and  N_11
REMARK    5  A    between atoms: N_11  and  C_12
REMARK    6  A    between atoms: C_12  and  C_13
REMARK    7  A    between atoms: C_20  and  C_21
REMARK    8  A    between atoms: C_21  and  C_22
REMARK    9  A    between atoms: C_24  and  O_25
REMARK                            x       y       z     vdW  Elec       q    Type
REMARK                         _______ _______ _______ _____ _____    ______ ____
ROOT
ATOM      1  C   UNL     1       2.116   7.967  18.691  0.00  0.00    +0.000 C 
ATOM      2  C   UNL     1       2.317   8.729  17.389  0.00  0.00    +0.000 C 
ATOM      3  C   UNL     1       1.546   8.579  19.783  0.00  0.00    +0.000 C 
ATOM      4  C   UNL     1       1.237   7.743  20.984  0.00  0.00    +0.000 C 
ATOM      5  O   UNL     1       1.433   6.526  21.003  0.00  0.00    +0.000 OA
ATOM      6  O   UNL     1       0.721   8.326  22.076  0.00  0.00    +0.000 OA
ATOM      7  C   UNL     1       0.503   9.657  22.191  0.00  0.00    +0.000 C 
ATOM      8  O   UNL     1       0.136  10.122  23.262  0.00  0.00    +0.000 OA
ATOM      9  C   UNL     1       0.736  10.534  21.044  0.00  0.00    +0.000 C 
ATOM     10  C   UNL     1       1.238   9.997  19.920  0.00  0.00    +0.000 C 
ENDROOT
BRANCH   9  11
ATOM     11  C   UNL     1       0.506  12.012  21.108  0.00  0.00    +0.000 C 
ATOM     12  C   UNL     1      -0.874  12.600  20.936  0.00  0.00    +0.000 C 
ATOM     13  O   UNL     1       1.473  12.757  21.277  0.00  0.00    +0.000 OA
ENDBRANCH   9  11
BRANCH   1  14
ATOM     14  N   UNL     1       2.473   6.606  18.657  0.00  0.00    +0.000 N 
ATOM     15  H   UNL     1       1.770   5.995  19.090  0.00  0.00    +0.000 HD
BRANCH  14  20
ATOM     16  C   UNL     1       5.306   4.991  16.835  0.00  0.00    +0.000 A 
ATOM     17  C   UNL     1       6.177   4.693  17.877  0.00  0.00    +0.000 A 
ATOM     18  C   UNL     1       5.820   4.979  19.191  0.00  0.00    +0.000 A 
ATOM     19  C   UNL     1       4.583   5.561  19.476  0.00  0.00    +0.000 A 
ATOM     20  C   UNL     1       3.700   5.931  18.458  0.00  0.00    +0.000 A 
ATOM     21  C   UNL     1       4.099   5.655  17.131  0.00  0.00    +0.000 A 
BRANCH  16  24
ATOM     22  C   UNL     1       6.708   4.910  14.764  0.00  0.00    +0.000 C 
ATOM     23  O   UNL     1       7.682   5.548  15.151  0.00  0.00    +0.000 OA
ATOM     24  N   UNL     1       5.559   4.631  15.490  0.00  0.00    +0.000 N 
ATOM     25  H   UNL     1       4.886   4.008  15.062  0.00  0.00    +0.000 HD
BRANCH  22  27
ATOM     26  C   UNL     1       5.421   3.577  13.054  0.00  0.00    +0.000 C 
ATOM     27  C   UNL     1       6.719   4.289  13.380  0.00  0.00    +0.000 C 
ENDBRANCH  22  27
ENDBRANCH  16  24
ENDBRANCH  14  20
ENDBRANCH   1  14
BRANCH  10  28
ATOM     28  O   UNL     1       1.549  10.773  18.820  0.00  0.00    +0.000 OA
ATOM     29  H   UNL     1       2.422  10.490  18.469  0.00  0.00    +0.000 HD
ENDBRANCH  10  28
TORSDOF 6
ENDMDL
MODEL 9
REMARK VINA RESULT:      -7.6      1.677      3.322
REMARK  Name = 
REMARK  9 active torsions:
REMARK  status: ('A' for Active; 'I' for Inactive)
REMARK    1  A    between atoms: C_1  and  C_2
REMARK    2  A    between atoms: C_2  and  C_3
REMARK    3  A    between atoms: N_5  and  C_6
REMARK    4  A    between atoms: C_10  and  N_11
REMARK    5  A    between atoms: N_11  and  C_12
REMARK    6  A    between atoms: C_12  and  C_13
REMARK    7  A    between atoms: C_20  and  C_21
REMARK    8  A    between atoms: C_21  and  C_22
REMARK    9  A    between atoms: C_24  and  O_25
REMARK                            x       y       z     vdW  Elec       q    Type
REMARK                         _______ _______ _______ _____ _____    ______ ____
ROOT
ATOM      1  C   UNL     1       1.915   8.434  18.955  0.00  0.00    +0.000 C 
ATOM      2  C   UNL     1       2.057   8.973  17.539  0.00  0.00    +0.000 C 
ATOM      3  C   UNL     1       1.105   9.067  19.869  0.00  0.00    +0.000 C 
ATOM      4  C   UNL     1       0.887   8.412  21.197  0.00  0.00    +0.000 C 
ATOM      5  O   UNL     1       1.370   7.311  21.471  0.00  0.00    +0.000 OA
ATOM      6  O   UNL     1       0.136   9.030  22.120  0.00  0.00    +0.000 OA
ATOM      7  C   UNL     1      -0.410  10.258  21.951  0.00  0.00    +0.000 C 
ATOM      8  O   UNL     1      -0.987  10.799  22.886  0.00  0.00    +0.000 OA
ATOM      9  C   UNL     1      -0.281  10.942  20.666  0.00  0.00    +0.000 C 
ATOM     10  C   UNL     1       0.449  10.357  19.701  0.00  0.00    +0.000 C 
ENDROOT
BRANCH   9  11
ATOM     11  C   UNL     1      -0.869  12.296  20.417  0.00  0.00    +0.000 C 
ATOM     12  C   UNL     1      -2.339  12.473  20.123  0.00  0.00    +0.000 C 
ATOM     13  O   UNL     1      -0.124  13.277  20.428  0.00  0.00    +0.000 OA
ENDBRANCH   9  11
BRANCH   1  14
ATOM     14  N   UNL     1       2.593   7.229  19.216  0.00  0.00    +0.000 N 
ATOM     15  H   UNL     1       3.381   7.344  19.865  0.00  0.00    +0.000 HD
BRANCH  14  20
ATOM     16  C   UNL     1       3.886   4.494  17.025  0.00  0.00    +0.000 A 
ATOM     17  C   UNL     1       2.951   3.489  17.248  0.00  0.00    +0.000 A 
ATOM     18  C   UNL     1       1.864   3.719  18.084  0.00  0.00    +0.000 A 
ATOM     19  C   UNL     1       1.698   4.960  18.702  0.00  0.00    +0.000 A 
ATOM     20  C   UNL     1       2.641   5.980  18.553  0.00  0.00    +0.000 A 
ATOM     21  C   UNL     1       3.751   5.711  17.721  0.00  0.00    +0.000 A 
BRANCH  16  24
ATOM     22  C   UNL     1       5.539   5.388  15.372  0.00  0.00    +0.000 C 
ATOM     23  O   UNL     1       5.206   6.568  15.367  0.00  0.00    +0.000 OA
ATOM     24  N   UNL     1       4.954   4.365  16.105  0.00  0.00    +0.000 N 
ATOM     25  H   UNL     1       5.408   3.461  16.075  0.00  0.00    +0.000 HD
BRANCH  22  27
ATOM     26  C   UNL     1       6.385   3.878  13.538  0.00  0.00    +0.000 C 
ATOM     27  C   UNL     1       6.739   4.942  14.558  0.00  0.00    +0.000 C 
ENDBRANCH  22  27
ENDBRANCH  16  24
ENDBRANCH  14  20
ENDBRANCH   1  14
BRANCH  10  28
ATOM     28  O   UNL     1       0.673  10.974  18.485  0.00  0.00    +0.000 OA
ATOM     29  H   UNL     1       0.647  11.947  18.613  0.00  0.00    +0.000 HD
ENDBRANCH  10  28
TORSDOF 6
ENDMDL
