MODEL 1
REMARK VINA RESULT:      -8.1      0.000      0.000
REMARK  Name = 
REMARK  3 active torsions:
REMARK  status: ('A' for Active; 'I' for Inactive)
REMARK    1  A    between atoms: C_1  and  C_2
REMARK    2  A    between atoms: N_4  and  C_5
REMARK    3  A    between atoms: C_14  and  N_15
REMARK                            x       y       z     vdW  Elec       q    Type
REMARK                         _______ _______ _______ _____ _____    ______ ____
ROOT
ATOM      1  C   UNL     1       1.084   8.882  20.001  0.00  0.00    +0.000 A 
ATOM      2  C   UNL     1       1.224   9.869  19.014  0.00  0.00    +0.000 A 
ATOM      3  C   UNL     1       1.969   9.644  17.845  0.00  0.00    +0.000 A 
ATOM      4  C   UNL     1       2.595   8.421  17.624  0.00  0.00    +0.000 A 
ATOM      5  C   UNL     1       2.485   7.446  18.599  0.00  0.00    +0.000 A 
ATOM      6  C   UNL     1       1.753   7.680  19.792  0.00  0.00    +0.000 A 
ATOM      7  C   UNL     1       1.815   6.438  20.668  0.00  0.00    +0.000 C 
ATOM      8  C   UNL     1       2.633   5.478  19.825  0.00  0.00    +0.000 A 
ATOM      9  C   UNL     1       2.998   4.170  20.107  0.00  0.00    +0.000 A 
ATOM     10  C   UNL     1       3.744   3.479  19.137  0.00  0.00    +0.000 A 
ATOM     11  C   UNL     1       4.113   4.090  17.920  0.00  0.00    +0.000 A 
ATOM     12  C   UNL     1       3.743   5.413  17.657  0.00  0.00    +0.000 A 
ATOM     13  C   UNL     1       3.009   6.099  18.614  0.00  0.00    +0.000 A 
ENDROOT
BRANCH   1  17
ATOM     14  C   UNL     1      -0.327   9.482  23.451  0.00  0.00    +0.000 C 
ATOM     15  C   UNL     1       0.770   9.382  22.423  0.00  0.00    +0.000 C 
ATOM     16  O   UNL     1       1.938   9.582  22.745  0.00  0.00    +0.000 OA
ATOM     17  N   UNL     1       0.296   9.064  21.159  0.00  0.00    +0.000 N 
ATOM     18  H   UNL     1      -0.707   9.078  21.031  0.00  0.00    +0.000 HD
ENDBRANCH   1  17
BRANCH  10  19
ATOM     19  N   UNL     1       4.148   2.088  19.389  0.00  0.00    +0.000 N 
ATOM     20  O   UNL     1       4.916   1.874  20.339  0.00  0.00    +0.000 OA
ATOM     21  O   UNL     1       3.699   1.211  18.637  0.00  0.00    +0.000 OA
ENDBRANCH  10  19
TORSDOF 2
ENDMDL
MODEL 2
REMARK VINA RESULT:      -8.0      4.301      5.805
REMARK  Name = 
REMARK  3 active torsions:
REMARK  status: ('A' for Active; 'I' for Inactive)
REMARK    1  A    between atoms: C_1  and  C_2
REMARK    2  A    between atoms: N_4  and  C_5
REMARK    3  A    between atoms: C_14  and  N_15
REMARK                            x       y       z     vdW  Elec       q    Type
REMARK                         _______ _______ _______ _____ _____    ______ ____
ROOT
ATOM      1  C   UNL     1       6.607   5.991  16.347  0.00  0.00    +0.000 A 
ATOM      2  C   UNL     1       6.981   5.386  15.138  0.00  0.00    +0.000 A 
ATOM      3  C   UNL     1       6.492   4.124  14.762  0.00  0.00    +0.000 A 
ATOM      4  C   UNL     1       5.610   3.429  15.583  0.00  0.00    +0.000 A 
ATOM      5  C   UNL     1       5.251   4.003  16.790  0.00  0.00    +0.000 A 
ATOM      6  C   UNL     1       5.762   5.267  17.183  0.00  0.00    +0.000 A 
ATOM      7  C   UNL     1       5.198   5.632  18.547  0.00  0.00    +0.000 C 
ATOM      8  C   UNL     1       4.296   4.453  18.859  0.00  0.00    +0.000 A 
ATOM      9  C   UNL     1       3.496   4.244  19.973  0.00  0.00    +0.000 A 
ATOM     10  C   UNL     1       2.726   3.069  20.010  0.00  0.00    +0.000 A 
ATOM     11  C   UNL     1       2.764   2.132  18.955  0.00  0.00    +0.000 A 
ATOM     12  C   UNL     1       3.582   2.357  17.843  0.00  0.00    +0.000 A 
ATOM     13  C   UNL     1       4.345   3.515  17.806  0.00  0.00    +0.000 A 
ENDROOT
BRANCH   1  17
ATOM     14  C   UNL     1       8.101   9.062  17.958  0.00  0.00    +0.000 C 
ATOM     15  C   UNL     1       7.835   7.586  17.819  0.00  0.00    +0.000 C 
ATOM     16  O   UNL     1       8.312   6.794  18.627  0.00  0.00    +0.000 OA
ATOM     17  N   UNL     1       7.041   7.282  16.723  0.00  0.00    +0.000 N 
ATOM     18  H   UNL     1       6.854   8.034  16.074  0.00  0.00    +0.000 HD
ENDBRANCH   1  17
BRANCH  10  19
ATOM     19  N   UNL     1       1.859   2.807  21.168  0.00  0.00    +0.000 N 
ATOM     20  O   UNL     1       0.633   2.848  20.989  0.00  0.00    +0.000 OA
ATOM     21  O   UNL     1       2.403   2.565  22.254  0.00  0.00    +0.000 OA
ENDBRANCH  10  19
TORSDOF 2
ENDMDL
MODEL 3
REMARK VINA RESULT:      -7.7      3.178      4.634
REMARK  Name = 
REMARK  3 active torsions:
REMARK  status: ('A' for Active; 'I' for Inactive)
REMARK    1  A    between atoms: C_1  and  C_2
REMARK    2  A    between atoms: N_4  and  C_5
REMARK    3  A    between atoms: C_14  and  N_15
REMARK                            x       y       z     vdW  Elec       q    Type
REMARK                         _______ _______ _______ _____ _____    ______ ____
ROOT
ATOM      1  C   UNL     1       2.312   5.591  20.388  0.00  0.00    +0.000 A 
ATOM      2  C   UNL     1       1.615   6.782  20.643  0.00  0.00    +0.000 A 
ATOM      3  C   UNL     1       1.724   7.897  19.797  0.00  0.00    +0.000 A 
ATOM      4  C   UNL     1       2.531   7.855  18.664  0.00  0.00    +0.000 A 
ATOM      5  C   UNL     1       3.242   6.695  18.413  0.00  0.00    +0.000 A 
ATOM      6  C   UNL     1       3.153   5.576  19.279  0.00  0.00    +0.000 A 
ATOM      7  C   UNL     1       4.044   4.462  18.751  0.00  0.00    +0.000 C 
ATOM      8  C   UNL     1       4.615   5.068  17.484  0.00  0.00    +0.000 A 
ATOM      9  C   UNL     1       5.485   4.498  16.565  0.00  0.00    +0.000 A 
ATOM     10  C   UNL     1       5.847   5.268  15.447  0.00  0.00    +0.000 A 
ATOM     11  C   UNL     1       5.349   6.575  15.263  0.00  0.00    +0.000 A 
ATOM     12  C   UNL     1       4.480   7.136  16.204  0.00  0.00    +0.000 A 
ATOM     13  C   UNL     1       4.123   6.380  17.310  0.00  0.00    +0.000 A 
ENDROOT
BRANCH   1  17
ATOM     14  C   UNL     1       1.423   2.292  21.994  0.00  0.00    +0.000 C 
ATOM     15  C   UNL     1       1.359   3.350  20.924  0.00  0.00    +0.000 C 
ATOM     16  O   UNL     1       0.641   3.192  19.941  0.00  0.00    +0.000 OA
ATOM     17  N   UNL     1       2.176   4.439  21.193  0.00  0.00    +0.000 N 
ATOM     18  H   UNL     1       2.815   4.348  21.972  0.00  0.00    +0.000 HD
ENDBRANCH   1  17
BRANCH  10  19
ATOM     19  N   UNL     1       6.761   4.703  14.444  0.00  0.00    +0.000 N 
ATOM     20  O   UNL     1       7.831   5.295  14.241  0.00  0.00    +0.000 OA
ATOM     21  O   UNL     1       6.407   3.671  13.857  0.00  0.00    +0.000 OA
ENDBRANCH  10  19
TORSDOF 2
ENDMDL
MODEL 4
REMARK VINA RESULT:      -7.7      3.263      4.279
REMARK  Name = 
REMARK  3 active torsions:
REMARK  status: ('A' for Active; 'I' for Inactive)
REMARK    1  A    between atoms: C_1  and  C_2
REMARK    2  A    between atoms: N_4  and  C_5
REMARK    3  A    between atoms: C_14  and  N_15
REMARK                            x       y       z     vdW  Elec       q    Type
REMARK                         _______ _______ _______ _____ _____    ______ ____
ROOT
ATOM      1  C   UNL     1       2.124   7.449  19.590  0.00  0.00    +0.000 A 
ATOM      2  C   UNL     1       1.506   6.627  20.544  0.00  0.00    +0.000 A 
ATOM      3  C   UNL     1       1.711   5.237  20.565  0.00  0.00    +0.000 A 
ATOM      4  C   UNL     1       2.544   4.627  19.634  0.00  0.00    +0.000 A 
ATOM      5  C   UNL     1       3.142   5.422  18.672  0.00  0.00    +0.000 A 
ATOM      6  C   UNL     1       2.918   6.822  18.634  0.00  0.00    +0.000 A 
ATOM      7  C   UNL     1       3.697   7.422  17.473  0.00  0.00    +0.000 C 
ATOM      8  C   UNL     1       4.402   6.213  16.889  0.00  0.00    +0.000 A 
ATOM      9  C   UNL     1       5.278   6.156  15.813  0.00  0.00    +0.000 A 
ATOM     10  C   UNL     1       5.822   4.903  15.483  0.00  0.00    +0.000 A 
ATOM     11  C   UNL     1       5.490   3.743  16.215  0.00  0.00    +0.000 A 
ATOM     12  C   UNL     1       4.600   3.819  17.291  0.00  0.00    +0.000 A 
ATOM     13  C   UNL     1       4.059   5.054  17.616  0.00  0.00    +0.000 A 
ENDROOT
BRANCH   1  17
ATOM     14  C   UNL     1       1.287  11.071  18.929  0.00  0.00    +0.000 C 
ATOM     15  C   UNL     1       1.214   9.586  18.684  0.00  0.00    +0.000 C 
ATOM     16  O   UNL     1       0.522   9.144  17.771  0.00  0.00    +0.000 OA
ATOM     17  N   UNL     1       1.977   8.854  19.581  0.00  0.00    +0.000 N 
ATOM     18  H   UNL     1       2.370   9.359  20.364  0.00  0.00    +0.000 HD
ENDBRANCH   1  17
BRANCH  10  19
ATOM     19  N   UNL     1       6.759   4.794  14.356  0.00  0.00    +0.000 N 
ATOM     20  O   UNL     1       7.769   5.514  14.376  0.00  0.00    +0.000 OA
ATOM     21  O   UNL     1       6.485   3.994  13.452  0.00  0.00    +0.000 OA
ENDBRANCH  10  19
TORSDOF 2
ENDMDL
MODEL 5
REMARK VINA RESULT:      -7.6      3.043      4.144
REMARK  Name = 
REMARK  3 active torsions:
REMARK  status: ('A' for Active; 'I' for Inactive)
REMARK    1  A    between atoms: C_1  and  C_2
REMARK    2  A    between atoms: N_4  and  C_5
REMARK    3  A    between atoms: C_14  and  N_15
REMARK                            x       y       z     vdW  Elec       q    Type
REMARK                         _______ _______ _______ _____ _____    ______ ____
ROOT
ATOM      1  C   UNL     1       2.081   7.046  19.788  0.00  0.00    +0.000 A 
ATOM      2  C   UNL     1       1.524   6.148  20.711  0.00  0.00    +0.000 A 
ATOM      3  C   UNL     1       1.803   4.773  20.664  0.00  0.00    +0.000 A 
ATOM      4  C   UNL     1       2.652   4.252  19.694  0.00  0.00    +0.000 A 
ATOM      5  C   UNL     1       3.190   5.121  18.762  0.00  0.00    +0.000 A 
ATOM      6  C   UNL     1       2.891   6.507  18.792  0.00  0.00    +0.000 A 
ATOM      7  C   UNL     1       3.618   7.201  17.650  0.00  0.00    +0.000 C 
ATOM      8  C   UNL     1       4.376   6.060  16.999  0.00  0.00    +0.000 A 
ATOM      9  C   UNL     1       5.236   6.099  15.910  0.00  0.00    +0.000 A 
ATOM     10  C   UNL     1       5.840   4.894  15.514  0.00  0.00    +0.000 A 
ATOM     11  C   UNL     1       5.583   3.685  16.195  0.00  0.00    +0.000 A 
ATOM     12  C   UNL     1       4.708   3.664  17.286  0.00  0.00    +0.000 A 
ATOM     13  C   UNL     1       4.108   4.851  17.677  0.00  0.00    +0.000 A 
ENDROOT
BRANCH   1  17
ATOM     14  C   UNL     1       0.880  10.572  20.404  0.00  0.00    +0.000 C 
ATOM     15  C   UNL     1       0.862   9.075  20.571  0.00  0.00    +0.000 C 
ATOM     16  O   UNL     1       0.025   8.544  21.295  0.00  0.00    +0.000 OA
ATOM     17  N   UNL     1       1.860   8.440  19.847  0.00  0.00    +0.000 N 
ATOM     18  H   UNL     1       2.559   9.031  19.418  0.00  0.00    +0.000 HD
ENDBRANCH   1  17
BRANCH  10  19
ATOM     19  N   UNL     1       6.763   4.888  14.370  0.00  0.00    +0.000 N 
ATOM     20  O   UNL     1       6.483   4.157  13.409  0.00  0.00    +0.000 OA
ATOM     21  O   UNL     1       7.767   5.610  14.435  0.00  0.00    +0.000 OA
ENDBRANCH  10  19
TORSDOF 2
ENDMDL
MODEL 6
REMARK VINA RESULT:      -7.5      2.620      7.027
REMARK  Name = 
REMARK  3 active torsions:
REMARK  status: ('A' for Active; 'I' for Inactive)
REMARK    1  A    between atoms: C_1  and  C_2
REMARK    2  A    between atoms: N_4  and  C_5
REMARK    3  A    between atoms: C_14  and  N_15
REMARK                            x       y       z     vdW  Elec       q    Type
REMARK                         _______ _______ _______ _____ _____    ______ ____
ROOT
ATOM      1  C   UNL     1       2.348   6.703  19.795  0.00  0.00    +0.000 A 
ATOM      2  C   UNL     1       2.856   6.811  18.492  0.00  0.00    +0.000 A 
ATOM      3  C   UNL     1       2.650   7.960  17.711  0.00  0.00    +0.000 A 
ATOM      4  C   UNL     1       1.933   9.041  18.212  0.00  0.00    +0.000 A 
ATOM      5  C   UNL     1       1.405   8.940  19.487  0.00  0.00    +0.000 A 
ATOM      6  C   UNL     1       1.591   7.771  20.268  0.00  0.00    +0.000 A 
ATOM      7  C   UNL     1       0.897   7.951  21.610  0.00  0.00    +0.000 C 
ATOM      8  C   UNL     1       0.332   9.354  21.504  0.00  0.00    +0.000 A 
ATOM      9  C   UNL     1      -0.390  10.072  22.448  0.00  0.00    +0.000 A 
ATOM     10  C   UNL     1      -0.781  11.379  22.112  0.00  0.00    +0.000 A 
ATOM     11  C   UNL     1      -0.457  11.944  20.860  0.00  0.00    +0.000 A 
ATOM     12  C   UNL     1       0.265  11.202  19.919  0.00  0.00    +0.000 A 
ATOM     13  C   UNL     1       0.649   9.911  20.247  0.00  0.00    +0.000 A 
ENDROOT
BRANCH   1  17
ATOM     14  C   UNL     1       2.287   3.461  21.729  0.00  0.00    +0.000 C 
ATOM     15  C   UNL     1       1.759   4.476  20.748  0.00  0.00    +0.000 C 
ATOM     16  O   UNL     1       0.703   4.273  20.157  0.00  0.00    +0.000 OA
ATOM     17  N   UNL     1       2.587   5.582  20.619  0.00  0.00    +0.000 N 
ATOM     18  H   UNL     1       3.493   5.527  21.065  0.00  0.00    +0.000 HD
ENDBRANCH   1  17
BRANCH  10  19
ATOM     19  N   UNL     1      -1.541  12.180  23.083  0.00  0.00    +0.000 N 
ATOM     20  O   UNL     1      -1.007  13.207  23.525  0.00  0.00    +0.000 OA
ATOM     21  O   UNL     1      -2.669  11.780  23.404  0.00  0.00    +0.000 OA
ENDBRANCH  10  19
TORSDOF 2
ENDMDL
MODEL 7
REMARK VINA RESULT:      -7.5      1.614      6.421
REMARK  Name = 
REMARK  3 active torsions:
REMARK  status: ('A' for Active; 'I' for Inactive)
REMARK    1  A    between atoms: C_1  and  C_2
REMARK    2  A    between atoms: N_4  and  C_5
REMARK    3  A    between atoms: C_14  and  N_15
REMARK                            x       y       z     vdW  Elec       q    Type
REMARK                         _______ _______ _______ _____ _____    ______ ____
ROOT
ATOM      1  C   UNL     1       4.979   4.434  18.369  0.00  0.00    +0.000 A 
ATOM      2  C   UNL     1       5.637   4.454  17.130  0.00  0.00    +0.000 A 
ATOM      3  C   UNL     1       5.423   5.481  16.197  0.00  0.00    +0.000 A 
ATOM      4  C   UNL     1       4.547   6.525  16.475  0.00  0.00    +0.000 A 
ATOM      5  C   UNL     1       3.873   6.506  17.683  0.00  0.00    +0.000 A 
ATOM      6  C   UNL     1       4.068   5.457  18.617  0.00  0.00    +0.000 A 
ATOM      7  C   UNL     1       3.195   5.704  19.838  0.00  0.00    +0.000 C 
ATOM      8  C   UNL     1       2.516   7.017  19.498  0.00  0.00    +0.000 A 
ATOM      9  C   UNL     1       1.614   7.750  20.257  0.00  0.00    +0.000 A 
ATOM     10  C   UNL     1       1.145   8.961  19.721  0.00  0.00    +0.000 A 
ATOM     11  C   UNL     1       1.572   9.419  18.456  0.00  0.00    +0.000 A 
ATOM     12  C   UNL     1       2.475   8.663  17.702  0.00  0.00    +0.000 A 
ATOM     13  C   UNL     1       2.937   7.465  18.227  0.00  0.00    +0.000 A 
ENDROOT
BRANCH   1  17
ATOM     14  C   UNL     1       4.931   1.484  20.725  0.00  0.00    +0.000 C 
ATOM     15  C   UNL     1       4.413   2.341  19.600  0.00  0.00    +0.000 C 
ATOM     16  O   UNL     1       3.382   2.028  19.010  0.00  0.00    +0.000 OA
ATOM     17  N   UNL     1       5.217   3.442  19.346  0.00  0.00    +0.000 N 
ATOM     18  H   UNL     1       6.108   3.475  19.822  0.00  0.00    +0.000 HD
ENDBRANCH   1  17
BRANCH  10  19
ATOM     19  N   UNL     1       0.194   9.775  20.492  0.00  0.00    +0.000 N 
ATOM     20  O   UNL     1      -0.330   9.256  21.489  0.00  0.00    +0.000 OA
ATOM     21  O   UNL     1      -0.029  10.928  20.100  0.00  0.00    +0.000 OA
ENDBRANCH  10  19
TORSDOF 2
ENDMDL
MODEL 8
REMARK VINA RESULT:      -7.4      2.204      7.086
REMARK  Name = 
REMARK  3 active torsions:
REMARK  status: ('A' for Active; 'I' for Inactive)
REMARK    1  A    between atoms: C_1  and  C_2
REMARK    2  A    between atoms: N_4  and  C_5
REMARK    3  A    between atoms: C_14  and  N_15
REMARK                            x       y       z     vdW  Elec       q    Type
REMARK                         _______ _______ _______ _____ _____    ______ ____
ROOT
ATOM      1  C   UNL     1       4.010   3.969  17.839  0.00  0.00    +0.000 A 
ATOM      2  C   UNL     1       4.018   2.877  18.721  0.00  0.00    +0.000 A 
ATOM      3  C   UNL     1       3.440   2.956  19.998  0.00  0.00    +0.000 A 
ATOM      4  C   UNL     1       2.832   4.129  20.433  0.00  0.00    +0.000 A 
ATOM      5  C   UNL     1       2.837   5.221  19.584  0.00  0.00    +0.000 A 
ATOM      6  C   UNL     1       3.442   5.152  18.303  0.00  0.00    +0.000 A 
ATOM      7  C   UNL     1       3.296   6.497  17.607  0.00  0.00    +0.000 C 
ATOM      8  C   UNL     1       2.522   7.313  18.624  0.00  0.00    +0.000 A 
ATOM      9  C   UNL     1       2.078   8.624  18.527  0.00  0.00    +0.000 A 
ATOM     10  C   UNL     1       1.351   9.146  19.610  0.00  0.00    +0.000 A 
ATOM     11  C   UNL     1       1.081   8.369  20.757  0.00  0.00    +0.000 A 
ATOM     12  C   UNL     1       1.543   7.052  20.839  0.00  0.00    +0.000 A 
ATOM     13  C   UNL     1       2.264   6.535  19.773  0.00  0.00    +0.000 A 
ENDROOT
BRANCH   1  17
ATOM     14  C   UNL     1       6.089   3.997  14.688  0.00  0.00    +0.000 C 
ATOM     15  C   UNL     1       5.856   4.127  16.171  0.00  0.00    +0.000 C 
ATOM     16  O   UNL     1       6.787   4.403  16.920  0.00  0.00    +0.000 OA
ATOM     17  N   UNL     1       4.536   3.898  16.530  0.00  0.00    +0.000 N 
ATOM     18  H   UNL     1       3.923   3.537  15.811  0.00  0.00    +0.000 HD
ENDBRANCH   1  17
BRANCH  10  19
ATOM     19  N   UNL     1       0.855  10.529  19.550  0.00  0.00    +0.000 N 
ATOM     20  O   UNL     1       0.945  11.218  20.577  0.00  0.00    +0.000 OA
ATOM     21  O   UNL     1       0.373  10.924  18.479  0.00  0.00    +0.000 OA
ENDBRANCH  10  19
TORSDOF 2
ENDMDL
MODEL 9
REMARK VINA RESULT:      -7.2      2.292      7.095
REMARK  Name = 
REMARK  3 active torsions:
REMARK  status: ('A' for Active; 'I' for Inactive)
REMARK    1  A    between atoms: C_1  and  C_2
REMARK    2  A    between atoms: N_4  and  C_5
REMARK    3  A    between atoms: C_14  and  N_15
REMARK                            x       y       z     vdW  Elec       q    Type
REMARK                         _______ _______ _______ _____ _____    ______ ____
ROOT
ATOM      1  C   UNL     1       3.525   4.510  18.360  0.00  0.00    +0.000 A 
ATOM      2  C   UNL     1       3.411   3.548  19.375  0.00  0.00    +0.000 A 
ATOM      3  C   UNL     1       2.766   3.829  20.590  0.00  0.00    +0.000 A 
ATOM      4  C   UNL     1       2.209   5.081  20.827  0.00  0.00    +0.000 A 
ATOM      5  C   UNL     1       2.333   6.048  19.845  0.00  0.00    +0.000 A 
ATOM      6  C   UNL     1       3.006   5.774  18.626  0.00  0.00    +0.000 A 
ATOM      7  C   UNL     1       2.987   7.019  17.753  0.00  0.00    +0.000 C 
ATOM      8  C   UNL     1       2.207   8.005  18.601  0.00  0.00    +0.000 A 
ATOM      9  C   UNL     1       1.854   9.314  18.305  0.00  0.00    +0.000 A 
ATOM     10  C   UNL     1       1.099  10.016  19.260  0.00  0.00    +0.000 A 
ATOM     11  C   UNL     1       0.713   9.417  20.478  0.00  0.00    +0.000 A 
ATOM     12  C   UNL     1       1.086   8.099  20.762  0.00  0.00    +0.000 A 
ATOM     13  C   UNL     1       1.834   7.404  19.822  0.00  0.00    +0.000 A 
ENDROOT
BRANCH   1  17
ATOM     14  C   UNL     1       5.777   4.026  15.369  0.00  0.00    +0.000 C 
ATOM     15  C   UNL     1       5.465   4.378  16.800  0.00  0.00    +0.000 C 
ATOM     16  O   UNL     1       6.362   4.738  17.557  0.00  0.00    +0.000 OA
ATOM     17  N   UNL     1       4.120   4.235  17.109  0.00  0.00    +0.000 N 
ATOM     18  H   UNL     1       3.538   3.788  16.415  0.00  0.00    +0.000 HD
ENDBRANCH   1  17
BRANCH  10  19
ATOM     19  N   UNL     1       0.695  11.403  18.987  0.00  0.00    +0.000 N 
ATOM     20  O   UNL     1      -0.492  11.706  19.179  0.00  0.00    +0.000 OA
ATOM     21  O   UNL     1       1.563  12.188  18.578  0.00  0.00    +0.000 OA
ENDBRANCH  10  19
TORSDOF 2
ENDMDL
