MODEL 1
REMARK VINA RESULT:      -6.7      0.000      0.000
REMARK  Name = 
REMARK  7 active torsions:
REMARK  status: ('A' for Active; 'I' for Inactive)
REMARK    1  A    between atoms: C_1  and  C_2
REMARK    2  A    between atoms: C_2  and  C_3
REMARK    3  A    between atoms: C_2  and  O_10
REMARK    4  A    between atoms: C_3  and  N_4
REMARK    5  A    between atoms: O_10  and  C_11
REMARK    6  A    between atoms: C_11  and  C_13
REMARK    7  A    between atoms: C_13  and  C_14
REMARK                            x       y       z     vdW  Elec       q    Type
REMARK                         _______ _______ _______ _____ _____    ______ ____
ROOT
ATOM      1  O   UNL     1       3.125   6.201  19.374  0.00  0.00    +0.000 OA
ENDROOT
BRANCH   1   3
ATOM      2  C   UNL     1       2.753   8.103  17.910  0.00  0.00    +0.000 C 
ATOM      3  C   UNL     1       3.118   6.612  18.046  0.00  0.00    +0.000 C 
BRANCH   3   4
ATOM      4  C   UNL     1       4.524   6.334  17.459  0.00  0.00    +0.000 C 
BRANCH   4   5
ATOM      5  N   UNL     1       5.028   4.964  17.738  0.00  0.00    +0.000 NA
ATOM      6  C   UNL     1       6.165   4.900  18.684  0.00  0.00    +0.000 C 
ATOM      7  C   UNL     1       7.483   5.341  18.020  0.00  0.00    +0.000 C 
ATOM      8  O   UNL     1       7.762   4.542  16.888  0.00  0.00    +0.000 OA
ATOM      9  C   UNL     1       6.737   4.712  15.930  0.00  0.00    +0.000 C 
ATOM     10  C   UNL     1       5.385   4.238  16.495  0.00  0.00    +0.000 C 
ENDBRANCH   4   5
ENDBRANCH   3   4
ENDBRANCH   1   3
BRANCH   1  11
ATOM     11  C   UNL     1       2.054   6.118  20.211  0.00  0.00    +0.000 C 
ATOM     12  O   UNL     1       1.615   7.108  20.779  0.00  0.00    +0.000 OA
BRANCH  11  13
ATOM     13  C   UNL     1       1.376   4.788  20.409  0.00  0.00    +0.000 C 
BRANCH  13  14
ATOM     14  C   UNL     1       2.129   3.698  19.683  0.00  0.00    +0.000 A 
ATOM     15  C   UNL     1       1.716   3.286  18.403  0.00  0.00    +0.000 A 
ATOM     16  C   UNL     1       2.398   2.267  17.736  0.00  0.00    +0.000 A 
ATOM     17  C   UNL     1       3.504   1.655  18.333  0.00  0.00    +0.000 A 
ATOM     18  C   UNL     1       3.930   2.064  19.600  0.00  0.00    +0.000 A 
ATOM     19  C   UNL     1       3.245   3.078  20.275  0.00  0.00    +0.000 A 
ENDBRANCH  13  14
ENDBRANCH  11  13
ENDBRANCH   1  11
TORSDOF 6
ENDMDL
MODEL 2
REMARK VINA RESULT:      -6.6      1.555      4.231
REMARK  Name = 
REMARK  7 active torsions:
REMARK  status: ('A' for Active; 'I' for Inactive)
REMARK    1  A    between atoms: C_1  and  C_2
REMARK    2  A    between atoms: C_2  and  C_3
REMARK    3  A    between atoms: C_2  and  O_10
REMARK    4  A    between atoms: C_3  and  N_4
REMARK    5  A    between atoms: O_10  and  C_11
REMARK    6  A    between atoms: C_11  and  C_13
REMARK    7  A    between atoms: C_13  and  C_14
REMARK                            x       y       z     vdW  Elec       q    Type
REMARK                         _______ _______ _______ _____ _____    ______ ____
ROOT
ATOM      1  O   UNL     1       2.469   3.872  18.451  0.00  0.00    +0.000 OA
ENDROOT
BRANCH   1   3
ATOM      2  C   UNL     1       3.516   1.681  18.390  0.00  0.00    +0.000 C 
ATOM      3  C   UNL     1       3.684   3.212  18.311  0.00  0.00    +0.000 C 
BRANCH   3   4
ATOM      4  C   UNL     1       4.293   3.628  16.949  0.00  0.00    +0.000 C 
BRANCH   4   5
ATOM      5  N   UNL     1       4.856   5.003  16.942  0.00  0.00    +0.000 NA
ATOM      6  C   UNL     1       5.374   5.458  15.632  0.00  0.00    +0.000 C 
ATOM      7  C   UNL     1       6.731   4.809  15.301  0.00  0.00    +0.000 C 
ATOM      8  O   UNL     1       7.679   5.094  16.310  0.00  0.00    +0.000 OA
ATOM      9  C   UNL     1       7.241   4.540  17.535  0.00  0.00    +0.000 C 
ATOM     10  C   UNL     1       5.910   5.179  17.971  0.00  0.00    +0.000 C 
ENDBRANCH   4   5
ENDBRANCH   3   4
ENDBRANCH   1   3
BRANCH   1  11
ATOM     11  C   UNL     1       2.042   4.580  19.534  0.00  0.00    +0.000 C 
ATOM     12  O   UNL     1       1.008   4.284  20.117  0.00  0.00    +0.000 OA
BRANCH  11  13
ATOM     13  C   UNL     1       2.878   5.724  20.042  0.00  0.00    +0.000 C 
BRANCH  13  14
ATOM     14  C   UNL     1       2.321   7.041  19.557  0.00  0.00    +0.000 A 
ATOM     15  C   UNL     1       1.628   7.885  20.444  0.00  0.00    +0.000 A 
ATOM     16  C   UNL     1       1.095   9.095  19.996  0.00  0.00    +0.000 A 
ATOM     17  C   UNL     1       1.256   9.481  18.662  0.00  0.00    +0.000 A 
ATOM     18  C   UNL     1       1.951   8.656  17.774  0.00  0.00    +0.000 A 
ATOM     19  C   UNL     1       2.479   7.439  18.216  0.00  0.00    +0.000 A 
ENDBRANCH  13  14
ENDBRANCH  11  13
ENDBRANCH   1  11
TORSDOF 6
ENDMDL
MODEL 3
REMARK VINA RESULT:      -6.5      0.304      1.153
REMARK  Name = 
REMARK  7 active torsions:
REMARK  status: ('A' for Active; 'I' for Inactive)
REMARK    1  A    between atoms: C_1  and  C_2
REMARK    2  A    between atoms: C_2  and  C_3
REMARK    3  A    between atoms: C_2  and  O_10
REMARK    4  A    between atoms: C_3  and  N_4
REMARK    5  A    between atoms: O_10  and  C_11
REMARK    6  A    between atoms: C_11  and  C_13
REMARK    7  A    between atoms: C_13  and  C_14
REMARK                            x       y       z     vdW  Elec       q    Type
REMARK                         _______ _______ _______ _____ _____    ______ ____
ROOT
ATOM      1  O   UNL     1       2.902   6.242  19.443  0.00  0.00    +0.000 OA
ENDROOT
BRANCH   1   3
ATOM      2  C   UNL     1       2.464   8.186  18.054  0.00  0.00    +0.000 C 
ATOM      3  C   UNL     1       2.864   6.699  18.131  0.00  0.00    +0.000 C 
BRANCH   3   4
ATOM      4  C   UNL     1       4.267   6.474  17.513  0.00  0.00    +0.000 C 
BRANCH   4   5
ATOM      5  N   UNL     1       4.933   5.230  17.979  0.00  0.00    +0.000 NA
ATOM      6  C   UNL     1       6.117   5.443  18.841  0.00  0.00    +0.000 C 
ATOM      7  C   UNL     1       7.342   5.892  18.024  0.00  0.00    +0.000 C 
ATOM      8  O   UNL     1       7.649   4.944  17.022  0.00  0.00    +0.000 OA
ATOM      9  C   UNL     1       6.563   4.843  16.123  0.00  0.00    +0.000 C 
ATOM     10  C   UNL     1       5.303   4.341  16.851  0.00  0.00    +0.000 C 
ENDBRANCH   4   5
ENDBRANCH   3   4
ENDBRANCH   1   3
BRANCH   1  11
ATOM     11  C   UNL     1       1.846   6.109  20.293  0.00  0.00    +0.000 C 
ATOM     12  O   UNL     1       1.359   7.079  20.857  0.00  0.00    +0.000 OA
BRANCH  11  13
ATOM     13  C   UNL     1       1.246   4.745  20.513  0.00  0.00    +0.000 C 
BRANCH  13  14
ATOM     14  C   UNL     1       2.027   3.697  19.756  0.00  0.00    +0.000 A 
ATOM     15  C   UNL     1       3.148   3.086  20.347  0.00  0.00    +0.000 A 
ATOM     16  C   UNL     1       3.883   2.130  19.644  0.00  0.00    +0.000 A 
ATOM     17  C   UNL     1       3.503   1.766  18.349  0.00  0.00    +0.000 A 
ATOM     18  C   UNL     1       2.385   2.358  17.756  0.00  0.00    +0.000 A 
ATOM     19  C   UNL     1       1.650   3.322  18.453  0.00  0.00    +0.000 A 
ENDBRANCH  13  14
ENDBRANCH  11  13
ENDBRANCH   1  11
TORSDOF 6
ENDMDL
MODEL 4
REMARK VINA RESULT:      -6.4      0.976      1.511
REMARK  Name = 
REMARK  7 active torsions:
REMARK  status: ('A' for Active; 'I' for Inactive)
REMARK    1  A    between atoms: C_1  and  C_2
REMARK    2  A    between atoms: C_2  and  C_3
REMARK    3  A    between atoms: C_2  and  O_10
REMARK    4  A    between atoms: C_3  and  N_4
REMARK    5  A    between atoms: O_10  and  C_11
REMARK    6  A    between atoms: C_11  and  C_13
REMARK    7  A    between atoms: C_13  and  C_14
REMARK                            x       y       z     vdW  Elec       q    Type
REMARK                         _______ _______ _______ _____ _____    ______ ____
ROOT
ATOM      1  O   UNL     1       2.948   6.134  19.551  0.00  0.00    +0.000 OA
ENDROOT
BRANCH   1   3
ATOM      2  C   UNL     1       2.884   7.926  17.913  0.00  0.00    +0.000 C 
ATOM      3  C   UNL     1       2.922   6.410  18.189  0.00  0.00    +0.000 C 
BRANCH   3   4
ATOM      4  C   UNL     1       4.180   5.766  17.553  0.00  0.00    +0.000 C 
BRANCH   4   5
ATOM      5  N   UNL     1       5.000   6.717  16.758  0.00  0.00    +0.000 NA
ATOM      6  C   UNL     1       5.194   6.337  15.341  0.00  0.00    +0.000 C 
ATOM      7  C   UNL     1       6.219   5.197  15.192  0.00  0.00    +0.000 C 
ATOM      8  O   UNL     1       7.460   5.565  15.759  0.00  0.00    +0.000 OA
ATOM      9  C   UNL     1       7.293   5.797  17.144  0.00  0.00    +0.000 C 
ATOM     10  C   UNL     1       6.322   6.968  17.382  0.00  0.00    +0.000 C 
ENDBRANCH   4   5
ENDBRANCH   3   4
ENDBRANCH   1   3
BRANCH   1  11
ATOM     11  C   UNL     1       1.875   5.970  20.374  0.00  0.00    +0.000 C 
ATOM     12  O   UNL     1       1.360   6.923  20.942  0.00  0.00    +0.000 OA
BRANCH  11  13
ATOM     13  C   UNL     1       1.291   4.595  20.557  0.00  0.00    +0.000 C 
BRANCH  13  14
ATOM     14  C   UNL     1       2.075   3.578  19.760  0.00  0.00    +0.000 A 
ATOM     15  C   UNL     1       1.605   3.150  18.505  0.00  0.00    +0.000 A 
ATOM     16  C   UNL     1       2.317   2.197  17.773  0.00  0.00    +0.000 A 
ATOM     17  C   UNL     1       3.508   1.669  18.280  0.00  0.00    +0.000 A 
ATOM     18  C   UNL     1       3.989   2.095  19.521  0.00  0.00    +0.000 A 
ATOM     19  C   UNL     1       3.276   3.043  20.261  0.00  0.00    +0.000 A 
ENDBRANCH  13  14
ENDBRANCH  11  13
ENDBRANCH   1  11
TORSDOF 6
ENDMDL
MODEL 5
REMARK VINA RESULT:      -6.4      2.532      5.845
REMARK  Name = 
REMARK  7 active torsions:
REMARK  status: ('A' for Active; 'I' for Inactive)
REMARK    1  A    between atoms: C_1  and  C_2
REMARK    2  A    between atoms: C_2  and  C_3
REMARK    3  A    between atoms: C_2  and  O_10
REMARK    4  A    between atoms: C_3  and  N_4
REMARK    5  A    between atoms: O_10  and  C_11
REMARK    6  A    between atoms: C_11  and  C_13
REMARK    7  A    between atoms: C_13  and  C_14
REMARK                            x       y       z     vdW  Elec       q    Type
REMARK                         _______ _______ _______ _____ _____    ______ ____
ROOT
ATOM      1  O   UNL     1       4.297   5.550  17.064  0.00  0.00    +0.000 OA
ENDROOT
BRANCH   1   3
ATOM      2  C   UNL     1       2.735   7.137  18.033  0.00  0.00    +0.000 C 
ATOM      3  C   UNL     1       3.936   6.194  18.241  0.00  0.00    +0.000 C 
BRANCH   3   4
ATOM      4  C   UNL     1       3.605   5.104  19.292  0.00  0.00    +0.000 C 
BRANCH   4   5
ATOM      5  N   UNL     1       2.150   4.842  19.441  0.00  0.00    +0.000 NA
ATOM      6  C   UNL     1       1.666   4.790  20.839  0.00  0.00    +0.000 C 
ATOM      7  C   UNL     1       2.061   3.471  21.529  0.00  0.00    +0.000 C 
ATOM      8  O   UNL     1       1.557   2.363  20.812  0.00  0.00    +0.000 OA
ATOM      9  C   UNL     1       2.127   2.342  19.519  0.00  0.00    +0.000 C 
ATOM     10  C   UNL     1       1.731   3.607  18.734  0.00  0.00    +0.000 C 
ENDBRANCH   4   5
ENDBRANCH   3   4
ENDBRANCH   1   3
BRANCH   1  11
ATOM     11  C   UNL     1       5.346   5.857  16.251  0.00  0.00    +0.000 C 
ATOM     12  O   UNL     1       5.441   6.957  15.727  0.00  0.00    +0.000 OA
BRANCH  11  13
ATOM     13  C   UNL     1       6.427   4.833  16.026  0.00  0.00    +0.000 C 
BRANCH  13  14
ATOM     14  C   UNL     1       6.600   4.564  14.550  0.00  0.00    +0.000 A 
ATOM     15  C   UNL     1       5.790   3.611  13.905  0.00  0.00    +0.000 A 
ATOM     16  C   UNL     1       5.959   3.346  12.544  0.00  0.00    +0.000 A 
ATOM     17  C   UNL     1       6.929   4.035  11.811  0.00  0.00    +0.000 A 
ATOM     18  C   UNL     1       7.732   4.991  12.439  0.00  0.00    +0.000 A 
ATOM     19  C   UNL     1       7.573   5.254  13.802  0.00  0.00    +0.000 A 
ENDBRANCH  13  14
ENDBRANCH  11  13
ENDBRANCH   1  11
TORSDOF 6
ENDMDL
MODEL 6
REMARK VINA RESULT:      -6.4      0.969      1.873
REMARK  Name = 
REMARK  7 active torsions:
REMARK  status: ('A' for Active; 'I' for Inactive)
REMARK    1  A    between atoms: C_1  and  C_2
REMARK    2  A    between atoms: C_2  and  C_3
REMARK    3  A    between atoms: C_2  and  O_10
REMARK    4  A    between atoms: C_3  and  N_4
REMARK    5  A    between atoms: O_10  and  C_11
REMARK    6  A    between atoms: C_11  and  C_13
REMARK    7  A    between atoms: C_13  and  C_14
REMARK                            x       y       z     vdW  Elec       q    Type
REMARK                         _______ _______ _______ _____ _____    ______ ____
ROOT
ATOM      1  O   UNL     1       2.973   6.149  19.533  0.00  0.00    +0.000 OA
ENDROOT
BRANCH   1   3
ATOM      2  C   UNL     1       2.890   7.909  17.861  0.00  0.00    +0.000 C 
ATOM      3  C   UNL     1       2.948   6.399  18.166  0.00  0.00    +0.000 C 
BRANCH   3   4
ATOM      4  C   UNL     1       4.218   5.761  17.548  0.00  0.00    +0.000 C 
BRANCH   4   5
ATOM      5  N   UNL     1       4.993   6.690  16.685  0.00  0.00    +0.000 NA
ATOM      6  C   UNL     1       5.236   6.204  15.308  0.00  0.00    +0.000 C 
ATOM      7  C   UNL     1       6.331   5.122  15.271  0.00  0.00    +0.000 C 
ATOM      8  O   UNL     1       7.537   5.613  15.820  0.00  0.00    +0.000 OA
ATOM      9  C   UNL     1       7.331   5.951  17.178  0.00  0.00    +0.000 C 
ATOM     10  C   UNL     1       6.286   7.075  17.302  0.00  0.00    +0.000 C 
ENDBRANCH   4   5
ENDBRANCH   3   4
ENDBRANCH   1   3
BRANCH   1  11
ATOM     11  C   UNL     1       1.898   6.006  20.358  0.00  0.00    +0.000 C 
ATOM     12  O   UNL     1       1.343   6.977  20.851  0.00  0.00    +0.000 OA
BRANCH  11  13
ATOM     13  C   UNL     1       1.364   4.626  20.637  0.00  0.00    +0.000 C 
BRANCH  13  14
ATOM     14  C   UNL     1       2.089   3.600  19.799  0.00  0.00    +0.000 A 
ATOM     15  C   UNL     1       3.292   3.033  20.259  0.00  0.00    +0.000 A 
ATOM     16  C   UNL     1       3.974   2.097  19.479  0.00  0.00    +0.000 A 
ATOM     17  C   UNL     1       3.461   1.711  18.237  0.00  0.00    +0.000 A 
ATOM     18  C   UNL     1       2.262   2.259  17.775  0.00  0.00    +0.000 A 
ATOM     19  C   UNL     1       1.579   3.202  18.548  0.00  0.00    +0.000 A 
ENDBRANCH  13  14
ENDBRANCH  11  13
ENDBRANCH   1  11
TORSDOF 6
ENDMDL
MODEL 7
REMARK VINA RESULT:      -6.4      2.401      6.049
REMARK  Name = 
REMARK  7 active torsions:
REMARK  status: ('A' for Active; 'I' for Inactive)
REMARK    1  A    between atoms: C_1  and  C_2
REMARK    2  A    between atoms: C_2  and  C_3
REMARK    3  A    between atoms: C_2  and  O_10
REMARK    4  A    between atoms: C_3  and  N_4
REMARK    5  A    between atoms: O_10  and  C_11
REMARK    6  A    between atoms: C_11  and  C_13
REMARK    7  A    between atoms: C_13  and  C_14
REMARK                            x       y       z     vdW  Elec       q    Type
REMARK                         _______ _______ _______ _____ _____    ______ ____
ROOT
ATOM      1  O   UNL     1       5.996   3.872  17.616  0.00  0.00    +0.000 OA
ENDROOT
BRANCH   1   3
ATOM      2  C   UNL     1       5.587   5.664  19.204  0.00  0.00    +0.000 C 
ATOM      3  C   UNL     1       5.684   4.148  18.942  0.00  0.00    +0.000 C 
BRANCH   3   4
ATOM      4  C   UNL     1       4.340   3.447  19.266  0.00  0.00    +0.000 C 
BRANCH   4   5
ATOM      5  N   UNL     1       3.678   2.846  18.079  0.00  0.00    +0.000 NA
ATOM      6  C   UNL     1       2.824   3.775  17.305  0.00  0.00    +0.000 C 
ATOM      7  C   UNL     1       1.487   4.046  18.019  0.00  0.00    +0.000 C 
ATOM      8  O   UNL     1       0.789   2.838  18.246  0.00  0.00    +0.000 OA
ATOM      9  C   UNL     1       1.554   2.008  19.097  0.00  0.00    +0.000 C 
ATOM     10  C   UNL     1       2.893   1.639  18.432  0.00  0.00    +0.000 C 
ENDBRANCH   4   5
ENDBRANCH   3   4
ENDBRANCH   1   3
BRANCH   1  11
ATOM     11  C   UNL     1       6.857   4.562  16.818  0.00  0.00    +0.000 C 
ATOM     12  O   UNL     1       8.067   4.420  16.918  0.00  0.00    +0.000 OA
BRANCH  11  13
ATOM     13  C   UNL     1       6.304   5.489  15.767  0.00  0.00    +0.000 C 
BRANCH  13  14
ATOM     14  C   UNL     1       6.443   4.873  14.395  0.00  0.00    +0.000 A 
ATOM     15  C   UNL     1       5.496   3.938  13.940  0.00  0.00    +0.000 A 
ATOM     16  C   UNL     1       5.631   3.353  12.679  0.00  0.00    +0.000 A 
ATOM     17  C   UNL     1       6.705   3.702  11.856  0.00  0.00    +0.000 A 
ATOM     18  C   UNL     1       7.646   4.638  12.293  0.00  0.00    +0.000 A 
ATOM     19  C   UNL     1       7.520   5.220  13.557  0.00  0.00    +0.000 A 
ENDBRANCH  13  14
ENDBRANCH  11  13
ENDBRANCH   1  11
TORSDOF 6
ENDMDL
MODEL 8
REMARK VINA RESULT:      -6.3      2.498      5.971
REMARK  Name = 
REMARK  7 active torsions:
REMARK  status: ('A' for Active; 'I' for Inactive)
REMARK    1  A    between atoms: C_1  and  C_2
REMARK    2  A    between atoms: C_2  and  C_3
REMARK    3  A    between atoms: C_2  and  O_10
REMARK    4  A    between atoms: C_3  and  N_4
REMARK    5  A    between atoms: O_10  and  C_11
REMARK    6  A    between atoms: C_11  and  C_13
REMARK    7  A    between atoms: C_13  and  C_14
REMARK                            x       y       z     vdW  Elec       q    Type
REMARK                         _______ _______ _______ _____ _____    ______ ____
ROOT
ATOM      1  O   UNL     1       4.953   5.460  17.368  0.00  0.00    +0.000 OA
ENDROOT
BRANCH   1   3
ATOM      2  C   UNL     1       6.537   5.512  19.209  0.00  0.00    +0.000 C 
ATOM      3  C   UNL     1       5.449   4.733  18.444  0.00  0.00    +0.000 C 
BRANCH   3   4
ATOM      4  C   UNL     1       4.257   4.395  19.374  0.00  0.00    +0.000 C 
BRANCH   4   5
ATOM      5  N   UNL     1       3.978   2.940  19.484  0.00  0.00    +0.000 NA
ATOM      6  C   UNL     1       3.550   2.290  18.225  0.00  0.00    +0.000 C 
ATOM      7  C   UNL     1       2.089   2.630  17.877  0.00  0.00    +0.000 C 
ATOM      8  O   UNL     1       1.225   2.245  18.927  0.00  0.00    +0.000 OA
ATOM      9  C   UNL     1       1.553   2.969  20.095  0.00  0.00    +0.000 C 
ATOM     10  C   UNL     1       2.988   2.641  20.548  0.00  0.00    +0.000 C 
ENDBRANCH   4   5
ENDBRANCH   3   4
ENDBRANCH   1   3
BRANCH   1  11
ATOM     11  C   UNL     1       5.660   5.928  16.302  0.00  0.00    +0.000 C 
ATOM     12  O   UNL     1       5.298   6.923  15.689  0.00  0.00    +0.000 OA
BRANCH  11  13
ATOM     13  C   UNL     1       6.930   5.229  15.896  0.00  0.00    +0.000 C 
BRANCH  13  14
ATOM     14  C   UNL     1       6.837   4.755  14.465  0.00  0.00    +0.000 A 
ATOM     15  C   UNL     1       5.855   3.819  14.092  0.00  0.00    +0.000 A 
ATOM     16  C   UNL     1       5.777   3.365  12.774  0.00  0.00    +0.000 A 
ATOM     17  C   UNL     1       6.671   3.845  11.813  0.00  0.00    +0.000 A 
ATOM     18  C   UNL     1       7.644   4.782  12.169  0.00  0.00    +0.000 A 
ATOM     19  C   UNL     1       7.731   5.234  13.489  0.00  0.00    +0.000 A 
ENDBRANCH  13  14
ENDBRANCH  11  13
ENDBRANCH   1  11
TORSDOF 6
ENDMDL
MODEL 9
REMARK VINA RESULT:      -6.2      2.469      5.830
REMARK  Name = 
REMARK  7 active torsions:
REMARK  status: ('A' for Active; 'I' for Inactive)
REMARK    1  A    between atoms: C_1  and  C_2
REMARK    2  A    between atoms: C_2  and  C_3
REMARK    3  A    between atoms: C_2  and  O_10
REMARK    4  A    between atoms: C_3  and  N_4
REMARK    5  A    between atoms: O_10  and  C_11
REMARK    6  A    between atoms: C_11  and  C_13
REMARK    7  A    between atoms: C_13  and  C_14
REMARK                            x       y       z     vdW  Elec       q    Type
REMARK                         _______ _______ _______ _____ _____    ______ ____
ROOT
ATOM      1  O   UNL     1       4.129   5.697  16.927  0.00  0.00    +0.000 OA
ENDROOT
BRANCH   1   3
ATOM      2  C   UNL     1       3.006   7.613  17.909  0.00  0.00    +0.000 C 
ATOM      3  C   UNL     1       3.909   6.381  18.116  0.00  0.00    +0.000 C 
BRANCH   3   4
ATOM      4  C   UNL     1       3.265   5.390  19.118  0.00  0.00    +0.000 C 
BRANCH   4   5
ATOM      5  N   UNL     1       3.396   3.965  18.717  0.00  0.00    +0.000 NA
ATOM      6  C   UNL     1       2.172   3.365  18.142  0.00  0.00    +0.000 C 
ATOM      7  C   UNL     1       1.127   3.050  19.230  0.00  0.00    +0.000 C 
ATOM      8  O   UNL     1       1.669   2.182  20.204  0.00  0.00    +0.000 OA
ATOM      9  C   UNL     1       2.758   2.816  20.845  0.00  0.00    +0.000 C 
ATOM     10  C   UNL     1       3.879   3.115  19.833  0.00  0.00    +0.000 C 
ENDBRANCH   4   5
ENDBRANCH   3   4
ENDBRANCH   1   3
BRANCH   1  11
ATOM     11  C   UNL     1       5.147   5.897  16.044  0.00  0.00    +0.000 C 
ATOM     12  O   UNL     1       5.223   6.925  15.387  0.00  0.00    +0.000 OA
BRANCH  11  13
ATOM     13  C   UNL     1       6.217   4.847  15.904  0.00  0.00    +0.000 C 
BRANCH  13  14
ATOM     14  C   UNL     1       6.474   4.546  14.446  0.00  0.00    +0.000 A 
ATOM     15  C   UNL     1       7.517   5.198  13.763  0.00  0.00    +0.000 A 
ATOM     16  C   UNL     1       7.746   4.936  12.411  0.00  0.00    +0.000 A 
ATOM     17  C   UNL     1       6.945   4.016  11.729  0.00  0.00    +0.000 A 
ATOM     18  C   UNL     1       5.912   3.356  12.400  0.00  0.00    +0.000 A 
ATOM     19  C   UNL     1       5.673   3.620  13.751  0.00  0.00    +0.000 A 
ENDBRANCH  13  14
ENDBRANCH  11  13
ENDBRANCH   1  11
TORSDOF 6
ENDMDL
