MODEL 1
REMARK VINA RESULT:      -7.0      0.000      0.000
REMARK  Name = 
REMARK  7 active torsions:
REMARK  status: ('A' for Active; 'I' for Inactive)
REMARK    1  A    between atoms: C_2  and  C_10
REMARK    2  A    between atoms: N_3  and  C_4
REMARK    3  A    between atoms: C_4  and  C_5
REMARK    4  A    between atoms: C_13  and  C_14
REMARK    5  A    between atoms: C_16  and  O_17
REMARK    6  A    between atoms: C_18  and  C_19
REMARK    7  A    between atoms: C_19  and  O_20
REMARK                            x       y       z     vdW  Elec       q    Type
REMARK                         _______ _______ _______ _____ _____    ______ ____
ROOT
ATOM      1  C   UNL     1       2.602   7.910  18.316  0.00  0.00    +0.000 A 
ATOM      2  C   UNL     1       3.604   7.508  17.452  0.00  0.00    +0.000 A 
ATOM      3  S   UNL     1       4.157   5.948  17.862  0.00  0.00    +0.000 S 
ATOM      4  C   UNL     1       3.046   5.903  19.177  0.00  0.00    +0.000 A 
ATOM      5  N   UNL     1       2.287   6.978  19.312  0.00  0.00    +0.000 NA
ENDROOT
BRANCH   4   6
ATOM      6  C   UNL     1       3.037   4.709  20.085  0.00  0.00    +0.000 C 
ATOM      7  C   UNL     1       1.777   4.621  20.929  0.00  0.00    +0.000 C 
ATOM      8  C   UNL     1       1.628   3.132  21.118  0.00  0.00    +0.000 C 
ATOM      9  C   UNL     1       2.127   2.562  19.793  0.00  0.00    +0.000 C 
ATOM     10  O   UNL     1       3.097   3.511  19.279  0.00  0.00    +0.000 OA
BRANCH   8  11
ATOM     11  O   UNL     1       2.457   2.725  22.211  0.00  0.00    +0.000 OA
ATOM     12  H   UNL     1       3.387   2.924  21.999  0.00  0.00    +0.000 HD
ENDBRANCH   8  11
BRANCH   9  13
ATOM     13  C   UNL     1       1.014   2.406  18.757  0.00  0.00    +0.000 C 
BRANCH  13  14
ATOM     14  O   UNL     1       1.262   3.268  17.646  0.00  0.00    +0.000 OA
ATOM     15  H   UNL     1       0.382   3.518  17.302  0.00  0.00    +0.000 HD
ENDBRANCH  13  14
ENDBRANCH   9  13
ENDBRANCH   4   6
BRANCH   1  17
ATOM     16  O   UNL     1       2.263  10.057  17.387  0.00  0.00    +0.000 OA
ATOM     17  C   UNL     1       1.932   9.210  18.211  0.00  0.00    +0.000 C 
ATOM     18  N   UNL     1       0.917   9.391  19.119  0.00  0.00    +0.000 N 
ATOM     19  H   UNL     1       0.806   8.681  19.836  0.00  0.00    +0.000 HD
BRANCH  18  20
ATOM     20  C   UNL     1       0.252  10.663  19.238  0.00  0.00    +0.000 C 
BRANCH  20  21
ATOM     21  C   UNL     1      -1.030  10.633  18.472  0.00  0.00    +0.000 A 
ATOM     22  C   UNL     1      -1.424   9.741  17.491  0.00  0.00    +0.000 A 
ATOM     23  C   UNL     1      -2.692  10.073  16.933  0.00  0.00    +0.000 A 
ATOM     24  C   UNL     1      -3.228  11.204  17.506  0.00  0.00    +0.000 A 
ATOM     25  S   UNL     1      -2.212  11.851  18.717  0.00  0.00    +0.000 S 
ENDBRANCH  20  21
ENDBRANCH  18  20
ENDBRANCH   1  17
TORSDOF 7
ENDMDL
MODEL 2
REMARK VINA RESULT:      -7.0      1.761      2.421
REMARK  Name = 
REMARK  7 active torsions:
REMARK  status: ('A' for Active; 'I' for Inactive)
REMARK    1  A    between atoms: C_2  and  C_10
REMARK    2  A    between atoms: N_3  and  C_4
REMARK    3  A    between atoms: C_4  and  C_5
REMARK    4  A    between atoms: C_13  and  C_14
REMARK    5  A    between atoms: C_16  and  O_17
REMARK    6  A    between atoms: C_18  and  C_19
REMARK    7  A    between atoms: C_19  and  O_20
REMARK                            x       y       z     vdW  Elec       q    Type
REMARK                         _______ _______ _______ _____ _____    ______ ____
ROOT
ATOM      1  C   UNL     1       2.611   7.772  18.421  0.00  0.00    +0.000 A 
ATOM      2  C   UNL     1       3.614   7.393  17.548  0.00  0.00    +0.000 A 
ATOM      3  S   UNL     1       4.199   5.841  17.945  0.00  0.00    +0.000 S 
ATOM      4  C   UNL     1       3.097   5.768  19.266  0.00  0.00    +0.000 A 
ATOM      5  N   UNL     1       2.320   6.828  19.413  0.00  0.00    +0.000 NA
ENDROOT
BRANCH   4   6
ATOM      6  C   UNL     1       3.116   4.568  20.166  0.00  0.00    +0.000 C 
ATOM      7  C   UNL     1       1.814   4.383  20.927  0.00  0.00    +0.000 C 
ATOM      8  C   UNL     1       1.761   2.885  21.099  0.00  0.00    +0.000 C 
ATOM      9  C   UNL     1       2.383   2.364  19.807  0.00  0.00    +0.000 C 
ATOM     10  O   UNL     1       3.313   3.385  19.360  0.00  0.00    +0.000 OA
BRANCH   8  11
ATOM     11  O   UNL     1       2.545   2.528  22.242  0.00  0.00    +0.000 OA
ATOM     12  H   UNL     1       2.432   1.577  22.424  0.00  0.00    +0.000 HD
ENDBRANCH   8  11
BRANCH   9  13
ATOM     13  C   UNL     1       1.352   2.138  18.700  0.00  0.00    +0.000 C 
BRANCH  13  14
ATOM     14  O   UNL     1       2.017   1.933  17.454  0.00  0.00    +0.000 OA
ATOM     15  H   UNL     1       2.922   2.284  17.575  0.00  0.00    +0.000 HD
ENDBRANCH  13  14
ENDBRANCH   9  13
ENDBRANCH   4   6
BRANCH   1  17
ATOM     16  O   UNL     1       2.127   9.858  17.421  0.00  0.00    +0.000 OA
ATOM     17  C   UNL     1       1.917   9.059  18.328  0.00  0.00    +0.000 C 
ATOM     18  N   UNL     1       1.025   9.288  19.349  0.00  0.00    +0.000 N 
ATOM     19  H   UNL     1       1.018   8.622  20.114  0.00  0.00    +0.000 HD
BRANCH  18  20
ATOM     20  C   UNL     1       0.365  10.562  19.479  0.00  0.00    +0.000 C 
BRANCH  20  21
ATOM     21  C   UNL     1      -0.204  10.695  20.854  0.00  0.00    +0.000 A 
ATOM     22  C   UNL     1      -0.762  11.813  21.448  0.00  0.00    +0.000 A 
ATOM     23  C   UNL     1      -1.133  11.579  22.803  0.00  0.00    +0.000 A 
ATOM     24  C   UNL     1      -0.850  10.292  23.201  0.00  0.00    +0.000 A 
ATOM     25  S   UNL     1      -0.153   9.371  21.942  0.00  0.00    +0.000 S 
ENDBRANCH  20  21
ENDBRANCH  18  20
ENDBRANCH   1  17
TORSDOF 7
ENDMDL
MODEL 3
REMARK VINA RESULT:      -7.0      1.796      2.459
REMARK  Name = 
REMARK  7 active torsions:
REMARK  status: ('A' for Active; 'I' for Inactive)
REMARK    1  A    between atoms: C_2  and  C_10
REMARK    2  A    between atoms: N_3  and  C_4
REMARK    3  A    between atoms: C_4  and  C_5
REMARK    4  A    between atoms: C_13  and  C_14
REMARK    5  A    between atoms: C_16  and  O_17
REMARK    6  A    between atoms: C_18  and  C_19
REMARK    7  A    between atoms: C_19  and  O_20
REMARK                            x       y       z     vdW  Elec       q    Type
REMARK                         _______ _______ _______ _____ _____    ______ ____
ROOT
ATOM      1  C   UNL     1       2.399   7.936  18.525  0.00  0.00    +0.000 A 
ATOM      2  C   UNL     1       3.313   7.468  17.600  0.00  0.00    +0.000 A 
ATOM      3  S   UNL     1       3.814   5.887  18.001  0.00  0.00    +0.000 S 
ATOM      4  C   UNL     1       2.800   5.923  19.392  0.00  0.00    +0.000 A 
ATOM      5  N   UNL     1       2.110   7.039  19.559  0.00  0.00    +0.000 NA
ENDROOT
BRANCH   4   6
ATOM      6  C   UNL     1       2.796   4.746  20.322  0.00  0.00    +0.000 C 
ATOM      7  C   UNL     1       1.470   4.004  20.325  0.00  0.00    +0.000 C 
ATOM      8  C   UNL     1       1.900   2.592  20.638  0.00  0.00    +0.000 C 
ATOM      9  C   UNL     1       3.246   2.473  19.928  0.00  0.00    +0.000 C 
ATOM     10  O   UNL     1       3.809   3.810  19.893  0.00  0.00    +0.000 OA
BRANCH   8  11
ATOM     11  O   UNL     1       2.041   2.462  22.057  0.00  0.00    +0.000 OA
ATOM     12  H   UNL     1       2.311   3.320  22.432  0.00  0.00    +0.000 HD
ENDBRANCH   8  11
BRANCH   9  13
ATOM     13  C   UNL     1       3.115   1.971  18.490  0.00  0.00    +0.000 C 
BRANCH  13  14
ATOM     14  O   UNL     1       3.916   0.803  18.310  0.00  0.00    +0.000 OA
ATOM     15  H   UNL     1       4.511   1.002  17.560  0.00  0.00    +0.000 HD
ENDBRANCH  13  14
ENDBRANCH   9  13
ENDBRANCH   4   6
BRANCH   1  17
ATOM     16  O   UNL     1       2.142  10.102  17.613  0.00  0.00    +0.000 OA
ATOM     17  C   UNL     1       1.791   9.268  18.442  0.00  0.00    +0.000 C 
ATOM     18  N   UNL     1       0.810   9.493  19.377  0.00  0.00    +0.000 N 
ATOM     19  H   UNL     1       0.683   8.786  20.093  0.00  0.00    +0.000 HD
BRANCH  18  20
ATOM     20  C   UNL     1       0.211  10.796  19.517  0.00  0.00    +0.000 C 
BRANCH  20  21
ATOM     21  C   UNL     1      -0.325  10.956  20.902  0.00  0.00    +0.000 A 
ATOM     22  C   UNL     1      -0.266  10.060  21.954  0.00  0.00    +0.000 A 
ATOM     23  C   UNL     1      -0.954  10.532  23.109  0.00  0.00    +0.000 A 
ATOM     24  C   UNL     1      -1.513  11.773  22.905  0.00  0.00    +0.000 A 
ATOM     25  S   UNL     1      -1.198  12.367  21.334  0.00  0.00    +0.000 S 
ENDBRANCH  20  21
ENDBRANCH  18  20
ENDBRANCH   1  17
TORSDOF 7
ENDMDL
MODEL 4
REMARK VINA RESULT:      -6.9      2.608      3.868
REMARK  Name = 
REMARK  7 active torsions:
REMARK  status: ('A' for Active; 'I' for Inactive)
REMARK    1  A    between atoms: C_2  and  C_10
REMARK    2  A    between atoms: N_3  and  C_4
REMARK    3  A    between atoms: C_4  and  C_5
REMARK    4  A    between atoms: C_13  and  C_14
REMARK    5  A    between atoms: C_16  and  O_17
REMARK    6  A    between atoms: C_18  and  C_19
REMARK    7  A    between atoms: C_19  and  O_20
REMARK                            x       y       z     vdW  Elec       q    Type
REMARK                         _______ _______ _______ _____ _____    ______ ____
ROOT
ATOM      1  C   UNL     1       2.467   8.009  18.437  0.00  0.00    +0.000 A 
ATOM      2  C   UNL     1       2.227   7.218  19.545  0.00  0.00    +0.000 A 
ATOM      3  S   UNL     1       3.129   5.773  19.456  0.00  0.00    +0.000 S 
ATOM      4  C   UNL     1       3.774   6.275  17.939  0.00  0.00    +0.000 A 
ATOM      5  N   UNL     1       3.360   7.456  17.512  0.00  0.00    +0.000 NA
ENDROOT
BRANCH   4   6
ATOM      6  C   UNL     1       4.698   5.354  17.199  0.00  0.00    +0.000 C 
ATOM      7  C   UNL     1       5.648   6.094  16.272  0.00  0.00    +0.000 C 
ATOM      8  C   UNL     1       6.854   5.188  16.270  0.00  0.00    +0.000 C 
ATOM      9  C   UNL     1       6.882   4.642  17.695  0.00  0.00    +0.000 C 
ATOM     10  O   UNL     1       5.507   4.637  18.158  0.00  0.00    +0.000 OA
BRANCH   8  11
ATOM     11  O   UNL     1       6.641   4.145  15.312  0.00  0.00    +0.000 OA
ATOM     12  H   UNL     1       7.254   4.267  14.565  0.00  0.00    +0.000 HD
ENDBRANCH   8  11
BRANCH   9  13
ATOM     13  C   UNL     1       7.705   5.511  18.647  0.00  0.00    +0.000 C 
BRANCH  13  14
ATOM     14  O   UNL     1       7.174   5.417  19.968  0.00  0.00    +0.000 OA
ATOM     15  H   UNL     1       6.552   6.167  20.059  0.00  0.00    +0.000 HD
ENDBRANCH  13  14
ENDBRANCH   9  13
ENDBRANCH   4   6
BRANCH   1  17
ATOM     16  O   UNL     1       2.263  10.145  17.444  0.00  0.00    +0.000 OA
ATOM     17  C   UNL     1       1.829   9.314  18.236  0.00  0.00    +0.000 C 
ATOM     18  N   UNL     1       0.719   9.520  19.019  0.00  0.00    +0.000 N 
ATOM     19  H   UNL     1       0.517   8.823  19.728  0.00  0.00    +0.000 HD
BRANCH  18  20
ATOM     20  C   UNL     1       0.060  10.802  19.042  0.00  0.00    +0.000 C 
BRANCH  20  21
ATOM     21  C   UNL     1      -1.268  10.696  18.366  0.00  0.00    +0.000 A 
ATOM     22  C   UNL     1      -1.643   9.851  17.337  0.00  0.00    +0.000 A 
ATOM     23  C   UNL     1      -2.978  10.088  16.899  0.00  0.00    +0.000 A 
ATOM     24  C   UNL     1      -3.580  11.102  17.607  0.00  0.00    +0.000 A 
ATOM     25  S   UNL     1      -2.545  11.754  18.800  0.00  0.00    +0.000 S 
ENDBRANCH  20  21
ENDBRANCH  18  20
ENDBRANCH   1  17
TORSDOF 7
ENDMDL
MODEL 5
REMARK VINA RESULT:      -6.9      3.252      4.892
REMARK  Name = 
REMARK  7 active torsions:
REMARK  status: ('A' for Active; 'I' for Inactive)
REMARK    1  A    between atoms: C_2  and  C_10
REMARK    2  A    between atoms: N_3  and  C_4
REMARK    3  A    between atoms: C_4  and  C_5
REMARK    4  A    between atoms: C_13  and  C_14
REMARK    5  A    between atoms: C_16  and  O_17
REMARK    6  A    between atoms: C_18  and  C_19
REMARK    7  A    between atoms: C_19  and  O_20
REMARK                            x       y       z     vdW  Elec       q    Type
REMARK                         _______ _______ _______ _____ _____    ______ ____
ROOT
ATOM      1  C   UNL     1       2.457   5.144  19.217  0.00  0.00    +0.000 A 
ATOM      2  C   UNL     1       1.779   4.165  18.515  0.00  0.00    +0.000 A 
ATOM      3  S   UNL     1       2.810   3.425  17.374  0.00  0.00    +0.000 S 
ATOM      4  C   UNL     1       4.093   4.462  17.868  0.00  0.00    +0.000 A 
ATOM      5  N   UNL     1       3.793   5.311  18.835  0.00  0.00    +0.000 NA
ENDROOT
BRANCH   4   6
ATOM      6  C   UNL     1       5.415   4.373  17.163  0.00  0.00    +0.000 C 
ATOM      7  C   UNL     1       5.770   5.648  16.417  0.00  0.00    +0.000 C 
ATOM      8  C   UNL     1       7.278   5.637  16.476  0.00  0.00    +0.000 C 
ATOM      9  C   UNL     1       7.568   5.025  17.844  0.00  0.00    +0.000 C 
ATOM     10  O   UNL     1       6.451   4.148  18.145  0.00  0.00    +0.000 OA
BRANCH   8  11
ATOM     11  O   UNL     1       7.771   4.811  15.416  0.00  0.00    +0.000 OA
ATOM     12  H   UNL     1       8.136   3.990  15.793  0.00  0.00    +0.000 HD
ENDBRANCH   8  11
BRANCH   9  13
ATOM     13  C   UNL     1       7.666   6.073  18.953  0.00  0.00    +0.000 C 
BRANCH  13  14
ATOM     14  O   UNL     1       7.884   5.429  20.209  0.00  0.00    +0.000 OA
ATOM     15  H   UNL     1       8.813   5.620  20.447  0.00  0.00    +0.000 HD
ENDBRANCH  13  14
ENDBRANCH   9  13
ENDBRANCH   4   6
BRANCH   1  17
ATOM     16  O   UNL     1       1.051   5.477  21.089  0.00  0.00    +0.000 OA
ATOM     17  C   UNL     1       1.828   5.953  20.266  0.00  0.00    +0.000 C 
ATOM     18  N   UNL     1       2.180   7.281  20.235  0.00  0.00    +0.000 N 
ATOM     19  H   UNL     1       2.729   7.595  19.441  0.00  0.00    +0.000 HD
BRANCH  18  20
ATOM     20  C   UNL     1       1.544   8.233  21.109  0.00  0.00    +0.000 C 
BRANCH  20  21
ATOM     21  C   UNL     1       0.777   9.226  20.298  0.00  0.00    +0.000 A 
ATOM     22  C   UNL     1      -0.356   9.933  20.655  0.00  0.00    +0.000 A 
ATOM     23  C   UNL     1      -0.852  10.739  19.590  0.00  0.00    +0.000 A 
ATOM     24  C   UNL     1      -0.082  10.624  18.455  0.00  0.00    +0.000 A 
ATOM     25  S   UNL     1       1.237   9.561  18.682  0.00  0.00    +0.000 S 
ENDBRANCH  20  21
ENDBRANCH  18  20
ENDBRANCH   1  17
TORSDOF 7
ENDMDL
MODEL 6
REMARK VINA RESULT:      -6.8      3.054      4.532
REMARK  Name = 
REMARK  7 active torsions:
REMARK  status: ('A' for Active; 'I' for Inactive)
REMARK    1  A    between atoms: C_2  and  C_10
REMARK    2  A    between atoms: N_3  and  C_4
REMARK    3  A    between atoms: C_4  and  C_5
REMARK    4  A    between atoms: C_13  and  C_14
REMARK    5  A    between atoms: C_16  and  O_17
REMARK    6  A    between atoms: C_18  and  C_19
REMARK    7  A    between atoms: C_19  and  O_20
REMARK                            x       y       z     vdW  Elec       q    Type
REMARK                         _______ _______ _______ _____ _____    ______ ____
ROOT
ATOM      1  C   UNL     1       2.491   7.702  18.592  0.00  0.00    +0.000 A 
ATOM      2  C   UNL     1       2.323   6.854  19.671  0.00  0.00    +0.000 A 
ATOM      3  S   UNL     1       3.309   5.472  19.506  0.00  0.00    +0.000 S 
ATOM      4  C   UNL     1       3.891   6.072  18.000  0.00  0.00    +0.000 A 
ATOM      5  N   UNL     1       3.397   7.242  17.629  0.00  0.00    +0.000 NA
ENDROOT
BRANCH   4   6
ATOM      6  C   UNL     1       4.854   5.240  17.206  0.00  0.00    +0.000 C 
ATOM      7  C   UNL     1       5.773   6.077  16.332  0.00  0.00    +0.000 C 
ATOM      8  C   UNL     1       7.016   5.224  16.276  0.00  0.00    +0.000 C 
ATOM      9  C   UNL     1       7.066   4.591  17.664  0.00  0.00    +0.000 C 
ATOM     10  O   UNL     1       5.692   4.498  18.120  0.00  0.00    +0.000 OA
BRANCH   8  11
ATOM     11  O   UNL     1       6.848   4.237  15.253  0.00  0.00    +0.000 OA
ATOM     12  H   UNL     1       7.427   4.455  14.500  0.00  0.00    +0.000 HD
ENDBRANCH   8  11
BRANCH   9  13
ATOM     13  C   UNL     1       7.850   5.432  18.672  0.00  0.00    +0.000 C 
BRANCH  13  14
ATOM     14  O   UNL     1       7.198   5.397  19.941  0.00  0.00    +0.000 OA
ATOM     15  H   UNL     1       6.265   5.631  19.767  0.00  0.00    +0.000 HD
ENDBRANCH  13  14
ENDBRANCH   9  13
ENDBRANCH   4   6
BRANCH   1  17
ATOM     16  O   UNL     1       1.921   9.714  17.490  0.00  0.00    +0.000 OA
ATOM     17  C   UNL     1       1.772   8.972  18.456  0.00  0.00    +0.000 C 
ATOM     18  N   UNL     1       0.933   9.254  19.507  0.00  0.00    +0.000 N 
ATOM     19  H   UNL     1       0.977   8.638  20.312  0.00  0.00    +0.000 HD
BRANCH  18  20
ATOM     20  C   UNL     1       0.260  10.526  19.592  0.00  0.00    +0.000 C 
BRANCH  20  21
ATOM     21  C   UNL     1      -0.268  10.723  20.976  0.00  0.00    +0.000 A 
ATOM     22  C   UNL     1      -0.264   9.829  22.031  0.00  0.00    +0.000 A 
ATOM     23  C   UNL     1      -0.924  10.347  23.183  0.00  0.00    +0.000 A 
ATOM     24  C   UNL     1      -1.408  11.617  22.973  0.00  0.00    +0.000 A 
ATOM     25  S   UNL     1      -1.055  12.185  21.400  0.00  0.00    +0.000 S 
ENDBRANCH  20  21
ENDBRANCH  18  20
ENDBRANCH   1  17
TORSDOF 7
ENDMDL
MODEL 7
REMARK VINA RESULT:      -6.7      5.019      7.722
REMARK  Name = 
REMARK  7 active torsions:
REMARK  status: ('A' for Active; 'I' for Inactive)
REMARK    1  A    between atoms: C_2  and  C_10
REMARK    2  A    between atoms: N_3  and  C_4
REMARK    3  A    between atoms: C_4  and  C_5
REMARK    4  A    between atoms: C_13  and  C_14
REMARK    5  A    between atoms: C_16  and  O_17
REMARK    6  A    between atoms: C_18  and  C_19
REMARK    7  A    between atoms: C_19  and  O_20
REMARK                            x       y       z     vdW  Elec       q    Type
REMARK                         _______ _______ _______ _____ _____    ______ ____
ROOT
ATOM      1  C   UNL     1       5.692   5.069  16.691  0.00  0.00    +0.000 A 
ATOM      2  C   UNL     1       5.980   5.603  17.933  0.00  0.00    +0.000 A 
ATOM      3  S   UNL     1       4.705   5.298  19.025  0.00  0.00    +0.000 S 
ATOM      4  C   UNL     1       3.835   4.489  17.777  0.00  0.00    +0.000 A 
ATOM      5  N   UNL     1       4.450   4.429  16.608  0.00  0.00    +0.000 NA
ENDROOT
BRANCH   4   6
ATOM      6  C   UNL     1       2.462   3.960  18.070  0.00  0.00    +0.000 C 
ATOM      7  C   UNL     1       2.471   2.497  18.478  0.00  0.00    +0.000 C 
ATOM      8  C   UNL     1       1.275   2.419  19.395  0.00  0.00    +0.000 C 
ATOM      9  C   UNL     1       1.287   3.774  20.097  0.00  0.00    +0.000 C 
ATOM     10  O   UNL     1       1.901   4.708  19.172  0.00  0.00    +0.000 OA
BRANCH   8  11
ATOM     11  O   UNL     1       0.098   2.249  18.598  0.00  0.00    +0.000 OA
ATOM     12  H   UNL     1      -0.676   2.168  19.184  0.00  0.00    +0.000 HD
ENDBRANCH   8  11
BRANCH   9  13
ATOM     13  C   UNL     1       2.107   3.767  21.387  0.00  0.00    +0.000 C 
BRANCH  13  14
ATOM     14  O   UNL     1       1.785   2.611  22.159  0.00  0.00    +0.000 OA
ATOM     15  H   UNL     1       1.641   1.891  21.513  0.00  0.00    +0.000 HD
ENDBRANCH  13  14
ENDBRANCH   9  13
ENDBRANCH   4   6
BRANCH   1  17
ATOM     16  O   UNL     1       7.637   5.835  15.586  0.00  0.00    +0.000 OA
ATOM     17  C   UNL     1       6.604   5.173  15.547  0.00  0.00    +0.000 C 
ATOM     18  N   UNL     1       6.191   4.476  14.437  0.00  0.00    +0.000 N 
ATOM     19  H   UNL     1       5.264   4.065  14.468  0.00  0.00    +0.000 HD
BRANCH  18  20
ATOM     20  C   UNL     1       6.902   4.588  13.190  0.00  0.00    +0.000 C 
BRANCH  20  21
ATOM     21  C   UNL     1       6.596   3.406  12.329  0.00  0.00    +0.000 A 
ATOM     22  C   UNL     1       7.481   2.562  11.683  0.00  0.00    +0.000 A 
ATOM     23  C   UNL     1       6.816   1.582  10.889  0.00  0.00    +0.000 A 
ATOM     24  C   UNL     1       5.448   1.707  10.956  0.00  0.00    +0.000 A 
ATOM     25  S   UNL     1       4.970   2.989  11.980  0.00  0.00    +0.000 S 
ENDBRANCH  20  21
ENDBRANCH  18  20
ENDBRANCH   1  17
TORSDOF 7
ENDMDL
MODEL 8
REMARK VINA RESULT:      -6.7      1.151      1.304
REMARK  Name = 
REMARK  7 active torsions:
REMARK  status: ('A' for Active; 'I' for Inactive)
REMARK    1  A    between atoms: C_2  and  C_10
REMARK    2  A    between atoms: N_3  and  C_4
REMARK    3  A    between atoms: C_4  and  C_5
REMARK    4  A    between atoms: C_13  and  C_14
REMARK    5  A    between atoms: C_16  and  O_17
REMARK    6  A    between atoms: C_18  and  C_19
REMARK    7  A    between atoms: C_19  and  O_20
REMARK                            x       y       z     vdW  Elec       q    Type
REMARK                         _______ _______ _______ _____ _____    ______ ____
ROOT
ATOM      1  C   UNL     1       2.348   8.045  18.452  0.00  0.00    +0.000 A 
ATOM      2  C   UNL     1       3.215   7.474  17.539  0.00  0.00    +0.000 A 
ATOM      3  S   UNL     1       3.608   5.880  18.002  0.00  0.00    +0.000 S 
ATOM      4  C   UNL     1       2.616   6.046  19.400  0.00  0.00    +0.000 A 
ATOM      5  N   UNL     1       2.009   7.214  19.526  0.00  0.00    +0.000 NA
ENDROOT
BRANCH   4   6
ATOM      6  C   UNL     1       2.540   4.912  20.379  0.00  0.00    +0.000 C 
ATOM      7  C   UNL     1       1.175   4.245  20.401  0.00  0.00    +0.000 C 
ATOM      8  C   UNL     1       1.525   2.826  20.778  0.00  0.00    +0.000 C 
ATOM      9  C   UNL     1       2.866   2.602  20.085  0.00  0.00    +0.000 C 
ATOM     10  O   UNL     1       3.503   3.903  19.999  0.00  0.00    +0.000 OA
BRANCH   8  11
ATOM     11  O   UNL     1       1.649   2.749  22.202  0.00  0.00    +0.000 OA
ATOM     12  H   UNL     1       2.577   2.564  22.433  0.00  0.00    +0.000 HD
ENDBRANCH   8  11
BRANCH   9  13
ATOM     13  C   UNL     1       2.717   2.047  18.669  0.00  0.00    +0.000 C 
BRANCH  13  14
ATOM     14  O   UNL     1       3.913   1.368  18.287  0.00  0.00    +0.000 OA
ATOM     15  H   UNL     1       4.021   1.540  17.330  0.00  0.00    +0.000 HD
ENDBRANCH  13  14
ENDBRANCH   9  13
ENDBRANCH   4   6
BRANCH   1  17
ATOM     16  O   UNL     1       2.368  10.248  17.596  0.00  0.00    +0.000 OA
ATOM     17  C   UNL     1       1.835   9.411  18.318  0.00  0.00    +0.000 C 
ATOM     18  N   UNL     1       0.719   9.666  19.079  0.00  0.00    +0.000 N 
ATOM     19  H   UNL     1       0.432   8.947  19.734  0.00  0.00    +0.000 HD
BRANCH  18  20
ATOM     20  C   UNL     1       0.174  10.997  19.166  0.00  0.00    +0.000 C 
BRANCH  20  21
ATOM     21  C   UNL     1      -1.222  11.004  18.634  0.00  0.00    +0.000 A 
ATOM     22  C   UNL     1      -2.300  11.759  19.062  0.00  0.00    +0.000 A 
ATOM     23  C   UNL     1      -3.498  11.442  18.359  0.00  0.00    +0.000 A 
ATOM     24  C   UNL     1      -3.298  10.459  17.417  0.00  0.00    +0.000 A 
ATOM     25  S   UNL     1      -1.672   9.934  17.374  0.00  0.00    +0.000 S 
ENDBRANCH  20  21
ENDBRANCH  18  20
ENDBRANCH   1  17
TORSDOF 7
ENDMDL
MODEL 9
REMARK VINA RESULT:      -6.7      1.563      1.948
REMARK  Name = 
REMARK  7 active torsions:
REMARK  status: ('A' for Active; 'I' for Inactive)
REMARK    1  A    between atoms: C_2  and  C_10
REMARK    2  A    between atoms: N_3  and  C_4
REMARK    3  A    between atoms: C_4  and  C_5
REMARK    4  A    between atoms: C_13  and  C_14
REMARK    5  A    between atoms: C_16  and  O_17
REMARK    6  A    between atoms: C_18  and  C_19
REMARK    7  A    between atoms: C_19  and  O_20
REMARK                            x       y       z     vdW  Elec       q    Type
REMARK                         _______ _______ _______ _____ _____    ______ ____
ROOT
ATOM      1  C   UNL     1       2.555   7.325  18.734  0.00  0.00    +0.000 A 
ATOM      2  C   UNL     1       3.533   7.657  17.816  0.00  0.00    +0.000 A 
ATOM      3  S   UNL     1       4.208   6.250  17.127  0.00  0.00    +0.000 S 
ATOM      4  C   UNL     1       3.173   5.280  18.103  0.00  0.00    +0.000 A 
ATOM      5  N   UNL     1       2.354   5.950  18.897  0.00  0.00    +0.000 NA
ENDROOT
BRANCH   4   6
ATOM      6  C   UNL     1       3.290   3.786  18.030  0.00  0.00    +0.000 C 
ATOM      7  C   UNL     1       4.237   3.219  19.075  0.00  0.00    +0.000 C 
ATOM      8  C   UNL     1       3.646   1.854  19.327  0.00  0.00    +0.000 C 
ATOM      9  C   UNL     1       2.145   2.095  19.194  0.00  0.00    +0.000 C 
ATOM     10  O   UNL     1       1.989   3.205  18.272  0.00  0.00    +0.000 OA
BRANCH   8  11
ATOM     11  O   UNL     1       4.126   0.955  18.322  0.00  0.00    +0.000 OA
ATOM     12  H   UNL     1       4.158   1.420  17.466  0.00  0.00    +0.000 HD
ENDBRANCH   8  11
BRANCH   9  13
ATOM     13  C   UNL     1       1.486   2.478  20.520  0.00  0.00    +0.000 C 
BRANCH  13  14
ATOM     14  O   UNL     1       0.604   3.582  20.320  0.00  0.00    +0.000 OA
ATOM     15  H   UNL     1      -0.159   3.225  19.823  0.00  0.00    +0.000 HD
ENDBRANCH  13  14
ENDBRANCH   9  13
ENDBRANCH   4   6
BRANCH   1  17
ATOM     16  O   UNL     1       1.499   8.179  20.670  0.00  0.00    +0.000 OA
ATOM     17  C   UNL     1       1.797   8.328  19.489  0.00  0.00    +0.000 C 
ATOM     18  N   UNL     1       1.446   9.434  18.752  0.00  0.00    +0.000 N 
ATOM     19  H   UNL     1       1.632   9.404  17.755  0.00  0.00    +0.000 HD
BRANCH  18  20
ATOM     20  C   UNL     1       0.583  10.446  19.307  0.00  0.00    +0.000 C 
BRANCH  20  21
ATOM     21  C   UNL     1      -0.654  10.561  18.478  0.00  0.00    +0.000 A 
ATOM     22  C   UNL     1      -1.089   9.726  17.464  0.00  0.00    +0.000 A 
ATOM     23  C   UNL     1      -2.284  10.197  16.848  0.00  0.00    +0.000 A 
ATOM     24  C   UNL     1      -2.726  11.372  17.411  0.00  0.00    +0.000 A 
ATOM     25  S   UNL     1      -1.710  11.895  18.682  0.00  0.00    +0.000 S 
ENDBRANCH  20  21
ENDBRANCH  18  20
ENDBRANCH   1  17
TORSDOF 7
ENDMDL
