MODEL 1
REMARK VINA RESULT:      -9.8      0.000      0.000
REMARK  Name = 
REMARK  7 active torsions:
REMARK  status: ('A' for Active; 'I' for Inactive)
REMARK    1  A    between atoms: C_1  and  C_2
REMARK    2  A    between atoms: C_2  and  N_3
REMARK    3  A    between atoms: C_5  and  C_6
REMARK    4  A    between atoms: C_6  and  C_8
REMARK    5  A    between atoms: C_12  and  N_13
REMARK    6  A    between atoms: C_14  and  C_16
REMARK    7  A    between atoms: C_20  and  C_21
REMARK                            x       y       z     vdW  Elec       q    Type
REMARK                         _______ _______ _______ _____ _____    ______ ____
ROOT
ATOM      1  C   UNL     1      -0.692  11.332  21.125  0.00  0.00    +0.000 A 
ATOM      2  C   UNL     1      -0.841  11.529  22.491  0.00  0.00    +0.000 A 
ATOM      3  N   UNL     1      -0.414  10.656  23.420  0.00  0.00    +0.000 NA
ATOM      4  C   UNL     1       0.155   9.515  22.964  0.00  0.00    +0.000 A 
ATOM      5  C   UNL     1       0.336   9.196  21.614  0.00  0.00    +0.000 A 
ATOM      6  C   UNL     1      -0.102  10.142  20.678  0.00  0.00    +0.000 A 
ENDROOT
BRANCH   5   7
ATOM      7  N   UNL     1       0.920   7.983  21.167  0.00  0.00    +0.000 N 
ATOM      8  C   UNL     1       1.701   7.867  20.026  0.00  0.00    +0.000 C 
ATOM      9  O   UNL     1       1.996   8.776  19.258  0.00  0.00    +0.000 OA
ATOM     10  H   UNL     1       0.802   7.172  21.760  0.00  0.00    +0.000 HD
BRANCH   8  11
ATOM     11  C   UNL     1       2.256   6.532  19.706  0.00  0.00    +0.000 A 
ATOM     12  C   UNL     1       3.076   6.433  18.573  0.00  0.00    +0.000 A 
ATOM     13  C   UNL     1       3.576   5.201  18.164  0.00  0.00    +0.000 A 
ATOM     14  C   UNL     1       3.248   4.055  18.885  0.00  0.00    +0.000 A 
ATOM     15  C   UNL     1       2.416   4.127  20.015  0.00  0.00    +0.000 A 
ATOM     16  C   UNL     1       1.919   5.380  20.429  0.00  0.00    +0.000 A 
BRANCH  15  17
ATOM     17  C   UNL     1       2.037   2.876  20.767  0.00  0.00    +0.000 C 
ATOM     18  F   UNL     1       1.959   1.770  19.977  0.00  0.00    +0.000 F 
ATOM     19  F   UNL     1       2.928   2.576  21.750  0.00  0.00    +0.000 F 
ATOM     20  F   UNL     1       0.826   2.987  21.380  0.00  0.00    +0.000 F 
ENDBRANCH  15  17
ENDBRANCH   8  11
ENDBRANCH   5   7
BRANCH   1  21
ATOM     21  C   UNL     1      -1.213  12.333  20.162  0.00  0.00    +0.000 C 
ATOM     22  O   UNL     1      -0.498  13.285  19.862  0.00  0.00    +0.000 OA
BRANCH  21  25
ATOM     23  N   UNL     1      -4.780  12.109  19.315  0.00  0.00    +0.000 N 
ATOM     24  C   UNL     1      -3.759  12.428  20.185  0.00  0.00    +0.000 A 
ATOM     25  C   UNL     1      -2.542  12.156  19.578  0.00  0.00    +0.000 A 
ATOM     26  C   UNL     1      -2.847  11.688  18.266  0.00  0.00    +0.000 A 
ATOM     27  C   UNL     1      -2.114  11.230  17.172  0.00  0.00    +0.000 A 
ATOM     28  N   UNL     1      -2.756  10.837  16.049  0.00  0.00    +0.000 NA
ATOM     29  C   UNL     1      -4.098  10.917  16.030  0.00  0.00    +0.000 A 
ATOM     30  N   UNL     1      -4.905  11.332  17.017  0.00  0.00    +0.000 NA
ATOM     31  C   UNL     1      -4.230  11.696  18.121  0.00  0.00    +0.000 A 
BRANCH  23  33
ATOM     32  C   UNL     1      -7.042  13.129  18.875  0.00  0.00    +0.000 C 
ATOM     33  C   UNL     1      -6.195  12.137  19.665  0.00  0.00    +0.000 C 
ATOM     34  C   UNL     1      -6.855  10.745  19.809  0.00  0.00    +0.000 C 
ATOM     35  O   UNL     1      -7.359  11.083  21.128  0.00  0.00    +0.000 OA
ATOM     36  C   UNL     1      -6.424  12.189  21.199  0.00  0.00    +0.000 C 
ENDBRANCH  23  33
ENDBRANCH  21  25
ENDBRANCH   1  21
TORSDOF 6
ENDMDL
MODEL 2
REMARK VINA RESULT:      -9.5      0.955      1.152
REMARK  Name = 
REMARK  7 active torsions:
REMARK  status: ('A' for Active; 'I' for Inactive)
REMARK    1  A    between atoms: C_1  and  C_2
REMARK    2  A    between atoms: C_2  and  N_3
REMARK    3  A    between atoms: C_5  and  C_6
REMARK    4  A    between atoms: C_6  and  C_8
REMARK    5  A    between atoms: C_12  and  N_13
REMARK    6  A    between atoms: C_14  and  C_16
REMARK    7  A    between atoms: C_20  and  C_21
REMARK                            x       y       z     vdW  Elec       q    Type
REMARK                         _______ _______ _______ _____ _____    ______ ____
ROOT
ATOM      1  C   UNL     1      -0.062  11.011  20.548  0.00  0.00    +0.000 A 
ATOM      2  C   UNL     1      -0.112  11.148  21.928  0.00  0.00    +0.000 A 
ATOM      3  N   UNL     1       0.353  10.221  22.785  0.00  0.00    +0.000 NA
ATOM      4  C   UNL     1       0.856   9.088  22.239  0.00  0.00    +0.000 A 
ATOM      5  C   UNL     1       0.935   8.829  20.867  0.00  0.00    +0.000 A 
ATOM      6  C   UNL     1       0.461   9.828  20.007  0.00  0.00    +0.000 A 
ENDROOT
BRANCH   5   7
ATOM      7  N   UNL     1       1.451   7.623  20.326  0.00  0.00    +0.000 N 
ATOM      8  C   UNL     1       2.210   7.550  19.167  0.00  0.00    +0.000 C 
ATOM      9  O   UNL     1       2.540   8.497  18.459  0.00  0.00    +0.000 OA
ATOM     10  H   UNL     1       1.300   6.779  20.862  0.00  0.00    +0.000 HD
BRANCH   8  11
ATOM     11  C   UNL     1       2.694   6.216  18.745  0.00  0.00    +0.000 A 
ATOM     12  C   UNL     1       3.772   6.179  17.849  0.00  0.00    +0.000 A 
ATOM     13  C   UNL     1       4.236   4.967  17.348  0.00  0.00    +0.000 A 
ATOM     14  C   UNL     1       3.614   3.782  17.735  0.00  0.00    +0.000 A 
ATOM     15  C   UNL     1       2.523   3.796  18.620  0.00  0.00    +0.000 A 
ATOM     16  C   UNL     1       2.062   5.026  19.131  0.00  0.00    +0.000 A 
BRANCH  15  17
ATOM     17  C   UNL     1       1.833   2.510  19.004  0.00  0.00    +0.000 C 
ATOM     18  F   UNL     1       0.548   2.431  18.565  0.00  0.00    +0.000 F 
ATOM     19  F   UNL     1       2.470   1.416  18.508  0.00  0.00    +0.000 F 
ATOM     20  F   UNL     1       1.782   2.334  20.353  0.00  0.00    +0.000 F 
ENDBRANCH  15  17
ENDBRANCH   8  11
ENDBRANCH   5   7
BRANCH   1  21
ATOM     21  C   UNL     1      -0.619  12.069  19.669  0.00  0.00    +0.000 C 
ATOM     22  O   UNL     1       0.129  12.962  19.281  0.00  0.00    +0.000 OA
BRANCH  21  25
ATOM     23  N   UNL     1      -4.269  12.220  19.289  0.00  0.00    +0.000 N 
ATOM     24  C   UNL     1      -3.114  12.469  19.999  0.00  0.00    +0.000 A 
ATOM     25  C   UNL     1      -2.024  12.016  19.269  0.00  0.00    +0.000 A 
ATOM     26  C   UNL     1      -2.549  11.506  18.046  0.00  0.00    +0.000 A 
ATOM     27  C   UNL     1      -2.021  10.896  16.908  0.00  0.00    +0.000 A 
ATOM     28  N   UNL     1      -2.845  10.513  15.907  0.00  0.00    +0.000 NA
ATOM     29  C   UNL     1      -4.160  10.752  16.047  0.00  0.00    +0.000 A 
ATOM     30  N   UNL     1      -4.780  11.321  17.091  0.00  0.00    +0.000 NA
ATOM     31  C   UNL     1      -3.930  11.670  18.071  0.00  0.00    +0.000 A 
BRANCH  23  33
ATOM     32  C   UNL     1      -6.388  13.578  19.151  0.00  0.00    +0.000 C 
ATOM     33  C   UNL     1      -5.613  12.440  19.808  0.00  0.00    +0.000 C 
ATOM     34  C   UNL     1      -6.454  11.153  19.994  0.00  0.00    +0.000 C 
ATOM     35  O   UNL     1      -6.746  11.505  21.373  0.00  0.00    +0.000 OA
ATOM     36  C   UNL     1      -5.654  12.459  21.358  0.00  0.00    +0.000 C 
ENDBRANCH  23  33
ENDBRANCH  21  25
ENDBRANCH   1  21
TORSDOF 6
ENDMDL
MODEL 3
REMARK VINA RESULT:      -9.5      2.189      2.674
REMARK  Name = 
REMARK  7 active torsions:
REMARK  status: ('A' for Active; 'I' for Inactive)
REMARK    1  A    between atoms: C_1  and  C_2
REMARK    2  A    between atoms: C_2  and  N_3
REMARK    3  A    between atoms: C_5  and  C_6
REMARK    4  A    between atoms: C_6  and  C_8
REMARK    5  A    between atoms: C_12  and  N_13
REMARK    6  A    between atoms: C_14  and  C_16
REMARK    7  A    between atoms: C_20  and  C_21
REMARK                            x       y       z     vdW  Elec       q    Type
REMARK                         _______ _______ _______ _____ _____    ______ ____
ROOT
ATOM      1  C   UNL     1      -0.607  11.334  21.050  0.00  0.00    +0.000 A 
ATOM      2  C   UNL     1      -0.815  11.289  22.421  0.00  0.00    +0.000 A 
ATOM      3  N   UNL     1      -0.304  10.335  23.221  0.00  0.00    +0.000 NA
ATOM      4  C   UNL     1       0.416   9.360  22.617  0.00  0.00    +0.000 A 
ATOM      5  C   UNL     1       0.670   9.288  21.244  0.00  0.00    +0.000 A 
ATOM      6  C   UNL     1       0.140  10.312  20.448  0.00  0.00    +0.000 A 
ENDROOT
BRANCH   5   7
ATOM      7  N   UNL     1       1.414   8.242  20.638  0.00  0.00    +0.000 N 
ATOM      8  C   UNL     1       1.834   8.247  19.317  0.00  0.00    +0.000 C 
ATOM      9  O   UNL     1       1.631   9.138  18.498  0.00  0.00    +0.000 OA
ATOM     10  H   UNL     1       1.701   7.478  21.237  0.00  0.00    +0.000 HD
BRANCH   8  11
ATOM     11  C   UNL     1       2.623   7.087  18.841  0.00  0.00    +0.000 A 
ATOM     12  C   UNL     1       2.603   5.930  19.634  0.00  0.00    +0.000 A 
ATOM     13  C   UNL     1       3.376   4.825  19.294  0.00  0.00    +0.000 A 
ATOM     14  C   UNL     1       4.183   4.875  18.160  0.00  0.00    +0.000 A 
ATOM     15  C   UNL     1       4.230   6.028  17.359  0.00  0.00    +0.000 A 
ATOM     16  C   UNL     1       3.439   7.143  17.704  0.00  0.00    +0.000 A 
BRANCH  15  17
ATOM     17  C   UNL     1       5.135   6.086  16.153  0.00  0.00    +0.000 C 
ATOM     18  F   UNL     1       6.453   6.218  16.469  0.00  0.00    +0.000 F 
ATOM     19  F   UNL     1       5.041   4.968  15.385  0.00  0.00    +0.000 F 
ATOM     20  F   UNL     1       4.838   7.131  15.333  0.00  0.00    +0.000 F 
ENDBRANCH  15  17
ENDBRANCH   8  11
ENDBRANCH   5   7
BRANCH   1  21
ATOM     21  C   UNL     1      -1.226  12.407  20.233  0.00  0.00    +0.000 C 
ATOM     22  O   UNL     1      -0.602  13.451  20.066  0.00  0.00    +0.000 OA
BRANCH  21  25
ATOM     23  N   UNL     1      -4.773  12.094  19.332  0.00  0.00    +0.000 N 
ATOM     24  C   UNL     1      -3.774  12.446  20.214  0.00  0.00    +0.000 A 
ATOM     25  C   UNL     1      -2.541  12.193  19.630  0.00  0.00    +0.000 A 
ATOM     26  C   UNL     1      -2.815  11.703  18.319  0.00  0.00    +0.000 A 
ATOM     27  C   UNL     1      -2.054  11.248  17.242  0.00  0.00    +0.000 A 
ATOM     28  N   UNL     1      -2.669  10.828  16.115  0.00  0.00    +0.000 NA
ATOM     29  C   UNL     1      -4.012  10.879  16.073  0.00  0.00    +0.000 A 
ATOM     30  N   UNL     1      -4.844  11.287  17.042  0.00  0.00    +0.000 NA
ATOM     31  C   UNL     1      -4.195  11.678  18.152  0.00  0.00    +0.000 A 
BRANCH  23  33
ATOM     32  C   UNL     1      -7.047  13.072  18.858  0.00  0.00    +0.000 C 
ATOM     33  C   UNL     1      -6.194  12.095  19.660  0.00  0.00    +0.000 C 
ATOM     34  C   UNL     1      -6.830  10.690  19.789  0.00  0.00    +0.000 C 
ATOM     35  O   UNL     1      -7.362  11.016  21.101  0.00  0.00    +0.000 OA
ATOM     36  C   UNL     1      -6.449  12.139  21.189  0.00  0.00    +0.000 C 
ENDBRANCH  23  33
ENDBRANCH  21  25
ENDBRANCH   1  21
TORSDOF 6
ENDMDL
MODEL 4
REMARK VINA RESULT:      -9.3      2.436      2.970
REMARK  Name = 
REMARK  7 active torsions:
REMARK  status: ('A' for Active; 'I' for Inactive)
REMARK    1  A    between atoms: C_1  and  C_2
REMARK    2  A    between atoms: C_2  and  N_3
REMARK    3  A    between atoms: C_5  and  C_6
REMARK    4  A    between atoms: C_6  and  C_8
REMARK    5  A    between atoms: C_12  and  N_13
REMARK    6  A    between atoms: C_14  and  C_16
REMARK    7  A    between atoms: C_20  and  C_21
REMARK                            x       y       z     vdW  Elec       q    Type
REMARK                         _______ _______ _______ _____ _____    ______ ____
ROOT
ATOM      1  C   UNL     1       0.100  10.512  20.173  0.00  0.00    +0.000 A 
ATOM      2  C   UNL     1      -0.295  10.082  21.432  0.00  0.00    +0.000 A 
ATOM      3  N   UNL     1       0.146   8.947  22.003  0.00  0.00    +0.000 NA
ATOM      4  C   UNL     1       0.992   8.187  21.267  0.00  0.00    +0.000 A 
ATOM      5  C   UNL     1       1.440   8.506  19.981  0.00  0.00    +0.000 A 
ATOM      6  C   UNL     1       0.976   9.707  19.430  0.00  0.00    +0.000 A 
ENDROOT
BRANCH   5   7
ATOM      7  N   UNL     1       2.314   7.680  19.228  0.00  0.00    +0.000 N 
ATOM      8  C   UNL     1       2.473   6.318  19.437  0.00  0.00    +0.000 C 
ATOM      9  O   UNL     1       1.892   5.645  20.282  0.00  0.00    +0.000 OA
ATOM     10  H   UNL     1       2.800   8.114  18.454  0.00  0.00    +0.000 HD
BRANCH   8  11
ATOM     11  C   UNL     1       3.410   5.591  18.550  0.00  0.00    +0.000 A 
ATOM     12  C   UNL     1       2.880   4.556  17.767  0.00  0.00    +0.000 A 
ATOM     13  C   UNL     1       3.708   3.778  16.965  0.00  0.00    +0.000 A 
ATOM     14  C   UNL     1       5.079   4.028  16.949  0.00  0.00    +0.000 A 
ATOM     15  C   UNL     1       5.635   5.049  17.737  0.00  0.00    +0.000 A 
ATOM     16  C   UNL     1       4.790   5.840  18.542  0.00  0.00    +0.000 A 
BRANCH  15  17
ATOM     17  C   UNL     1       7.125   5.287  17.741  0.00  0.00    +0.000 C 
ATOM     18  F   UNL     1       7.498   6.403  17.057  0.00  0.00    +0.000 F 
ATOM     19  F   UNL     1       7.618   5.432  19.000  0.00  0.00    +0.000 F 
ATOM     20  F   UNL     1       7.815   4.255  17.184  0.00  0.00    +0.000 F 
ENDBRANCH  15  17
ENDBRANCH   8  11
ENDBRANCH   5   7
BRANCH   1  21
ATOM     21  C   UNL     1      -0.451  11.766  19.601  0.00  0.00    +0.000 C 
ATOM     22  O   UNL     1       0.307  12.716  19.431  0.00  0.00    +0.000 OA
BRANCH  21  25
ATOM     23  N   UNL     1      -4.082  12.237  19.310  0.00  0.00    +0.000 N 
ATOM     24  C   UNL     1      -2.893  12.383  19.991  0.00  0.00    +0.000 A 
ATOM     25  C   UNL     1      -1.866  11.836  19.236  0.00  0.00    +0.000 A 
ATOM     26  C   UNL     1      -2.462  11.376  18.026  0.00  0.00    +0.000 A 
ATOM     27  C   UNL     1      -2.018  10.723  16.876  0.00  0.00    +0.000 A 
ATOM     28  N   UNL     1      -2.896  10.415  15.896  0.00  0.00    +0.000 NA
ATOM     29  C   UNL     1      -4.182  10.768  16.068  0.00  0.00    +0.000 A 
ATOM     30  N   UNL     1      -4.723  11.388  17.125  0.00  0.00    +0.000 NA
ATOM     31  C   UNL     1      -3.822  11.660  18.085  0.00  0.00    +0.000 A 
BRANCH  23  33
ATOM     32  C   UNL     1      -6.085  13.764  19.211  0.00  0.00    +0.000 C 
ATOM     33  C   UNL     1      -5.389  12.572  19.861  0.00  0.00    +0.000 C 
ATOM     34  C   UNL     1      -6.329  11.362  20.084  0.00  0.00    +0.000 C 
ATOM     35  O   UNL     1      -6.553  11.750  21.466  0.00  0.00    +0.000 OA
ATOM     36  C   UNL     1      -5.387  12.610  21.412  0.00  0.00    +0.000 C 
ENDBRANCH  23  33
ENDBRANCH  21  25
ENDBRANCH   1  21
TORSDOF 6
ENDMDL
MODEL 5
REMARK VINA RESULT:      -9.2      2.408      2.849
REMARK  Name = 
REMARK  7 active torsions:
REMARK  status: ('A' for Active; 'I' for Inactive)
REMARK    1  A    between atoms: C_1  and  C_2
REMARK    2  A    between atoms: C_2  and  N_3
REMARK    3  A    between atoms: C_5  and  C_6
REMARK    4  A    between atoms: C_6  and  C_8
REMARK    5  A    between atoms: C_12  and  N_13
REMARK    6  A    between atoms: C_14  and  C_16
REMARK    7  A    between atoms: C_20  and  C_21
REMARK                            x       y       z     vdW  Elec       q    Type
REMARK                         _______ _______ _______ _____ _____    ______ ____
ROOT
ATOM      1  C   UNL     1      -0.216  11.150  20.629  0.00  0.00    +0.000 A 
ATOM      2  C   UNL     1      -0.278  10.885  21.989  0.00  0.00    +0.000 A 
ATOM      3  N   UNL     1       0.319   9.829  22.570  0.00  0.00    +0.000 NA
ATOM      4  C   UNL     1       0.978   8.977  21.748  0.00  0.00    +0.000 A 
ATOM      5  C   UNL     1       1.087   9.128  20.362  0.00  0.00    +0.000 A 
ATOM      6  C   UNL     1       0.470  10.252  19.798  0.00  0.00    +0.000 A 
ENDROOT
BRANCH   5   7
ATOM      7  N   UNL     1       1.769   8.207  19.525  0.00  0.00    +0.000 N 
ATOM      8  C   UNL     1       1.958   6.867  19.829  0.00  0.00    +0.000 C 
ATOM      9  O   UNL     1       1.568   6.296  20.842  0.00  0.00    +0.000 OA
ATOM     10  H   UNL     1       2.079   8.550  18.625  0.00  0.00    +0.000 HD
BRANCH   8  11
ATOM     11  C   UNL     1       2.674   6.031  18.838  0.00  0.00    +0.000 A 
ATOM     12  C   UNL     1       2.385   4.659  18.829  0.00  0.00    +0.000 A 
ATOM     13  C   UNL     1       3.069   3.796  17.979  0.00  0.00    +0.000 A 
ATOM     14  C   UNL     1       4.057   4.304  17.138  0.00  0.00    +0.000 A 
ATOM     15  C   UNL     1       4.374   5.672  17.141  0.00  0.00    +0.000 A 
ATOM     16  C   UNL     1       3.672   6.543  17.999  0.00  0.00    +0.000 A 
BRANCH  15  17
ATOM     17  C   UNL     1       5.472   6.205  16.253  0.00  0.00    +0.000 C 
ATOM     18  F   UNL     1       6.116   7.284  16.775  0.00  0.00    +0.000 F 
ATOM     19  F   UNL     1       6.431   5.274  16.006  0.00  0.00    +0.000 F 
ATOM     20  F   UNL     1       5.007   6.597  15.035  0.00  0.00    +0.000 F 
ENDBRANCH  15  17
ENDBRANCH   8  11
ENDBRANCH   5   7
BRANCH   1  21
ATOM     21  C   UNL     1      -0.923  12.324  20.060  0.00  0.00    +0.000 C 
ATOM     22  O   UNL     1      -0.329  13.397  20.007  0.00  0.00    +0.000 OA
BRANCH  21  25
ATOM     23  N   UNL     1      -4.539  12.210  19.425  0.00  0.00    +0.000 N 
ATOM     24  C   UNL     1      -3.458  12.524  20.221  0.00  0.00    +0.000 A 
ATOM     25  C   UNL     1      -2.289  12.177  19.560  0.00  0.00    +0.000 A 
ATOM     26  C   UNL     1      -2.687  11.667  18.290  0.00  0.00    +0.000 A 
ATOM     27  C   UNL     1      -2.036  11.133  17.177  0.00  0.00    +0.000 A 
ATOM     28  N   UNL     1      -2.756  10.719  16.111  0.00  0.00    +0.000 NA
ATOM     29  C   UNL     1      -4.093  10.854  16.163  0.00  0.00    +0.000 A 
ATOM     30  N   UNL     1      -4.825  11.342  17.174  0.00  0.00    +0.000 NA
ATOM     31  C   UNL     1      -4.074  11.724  18.221  0.00  0.00    +0.000 A 
BRANCH  23  33
ATOM     32  C   UNL     1      -6.768  13.340  19.102  0.00  0.00    +0.000 C 
ATOM     33  C   UNL     1      -5.929  12.311  19.852  0.00  0.00    +0.000 C 
ATOM     34  C   UNL     1      -6.649  10.954  20.041  0.00  0.00    +0.000 C 
ATOM     35  O   UNL     1      -7.062  11.323  21.384  0.00  0.00    +0.000 OA
ATOM     36  C   UNL     1      -6.071  12.381  21.395  0.00  0.00    +0.000 C 
ENDBRANCH  23  33
ENDBRANCH  21  25
ENDBRANCH   1  21
TORSDOF 6
ENDMDL
MODEL 6
REMARK VINA RESULT:      -9.1      2.483      3.041
REMARK  Name = 
REMARK  7 active torsions:
REMARK  status: ('A' for Active; 'I' for Inactive)
REMARK    1  A    between atoms: C_1  and  C_2
REMARK    2  A    between atoms: C_2  and  N_3
REMARK    3  A    between atoms: C_5  and  C_6
REMARK    4  A    between atoms: C_6  and  C_8
REMARK    5  A    between atoms: C_12  and  N_13
REMARK    6  A    between atoms: C_14  and  C_16
REMARK    7  A    between atoms: C_20  and  C_21
REMARK                            x       y       z     vdW  Elec       q    Type
REMARK                         _______ _______ _______ _____ _____    ______ ____
ROOT
ATOM      1  C   UNL     1       0.326  10.775  20.208  0.00  0.00    +0.000 A 
ATOM      2  C   UNL     1       0.344  10.803  21.595  0.00  0.00    +0.000 A 
ATOM      3  N   UNL     1       0.851   9.815  22.354  0.00  0.00    +0.000 NA
ATOM      4  C   UNL     1       1.328   8.731  21.697  0.00  0.00    +0.000 A 
ATOM      5  C   UNL     1       1.340   8.579  20.307  0.00  0.00    +0.000 A 
ATOM      6  C   UNL     1       0.825   9.640  19.552  0.00  0.00    +0.000 A 
ENDROOT
BRANCH   5   7
ATOM      7  N   UNL     1       1.832   7.422  19.649  0.00  0.00    +0.000 N 
ATOM      8  C   UNL     1       2.586   7.447  18.486  0.00  0.00    +0.000 C 
ATOM      9  O   UNL     1       2.933   8.451  17.872  0.00  0.00    +0.000 OA
ATOM     10  H   UNL     1       1.664   6.532  20.101  0.00  0.00    +0.000 HD
BRANCH   8  11
ATOM     11  C   UNL     1       3.042   6.151  17.933  0.00  0.00    +0.000 A 
ATOM     12  C   UNL     1       2.194   5.047  18.105  0.00  0.00    +0.000 A 
ATOM     13  C   UNL     1       2.583   3.781  17.680  0.00  0.00    +0.000 A 
ATOM     14  C   UNL     1       3.833   3.611  17.089  0.00  0.00    +0.000 A 
ATOM     15  C   UNL     1       4.706   4.699  16.921  0.00  0.00    +0.000 A 
ATOM     16  C   UNL     1       4.303   5.981  17.345  0.00  0.00    +0.000 A 
BRANCH  15  17
ATOM     17  C   UNL     1       6.072   4.497  16.313  0.00  0.00    +0.000 C 
ATOM     18  F   UNL     1       7.048   4.272  17.234  0.00  0.00    +0.000 F 
ATOM     19  F   UNL     1       6.104   3.438  15.460  0.00  0.00    +0.000 F 
ATOM     20  F   UNL     1       6.480   5.575  15.588  0.00  0.00    +0.000 F 
ENDBRANCH  15  17
ENDBRANCH   8  11
ENDBRANCH   5   7
BRANCH   1  21
ATOM     21  C   UNL     1      -0.273  11.895  19.442  0.00  0.00    +0.000 C 
ATOM     22  O   UNL     1       0.476  12.702  18.900  0.00  0.00    +0.000 OA
BRANCH  21  25
ATOM     23  N   UNL     1      -3.891  12.413  19.812  0.00  0.00    +0.000 N 
ATOM     24  C   UNL     1      -2.600  12.501  20.287  0.00  0.00    +0.000 A 
ATOM     25  C   UNL     1      -1.728  12.002  19.331  0.00  0.00    +0.000 A 
ATOM     26  C   UNL     1      -2.531  11.634  18.213  0.00  0.00    +0.000 A 
ATOM     27  C   UNL     1      -2.303  11.061  16.961  0.00  0.00    +0.000 A 
ATOM     28  N   UNL     1      -3.341  10.830  16.128  0.00  0.00    +0.000 NA
ATOM     29  C   UNL     1      -4.571  11.180  16.542  0.00  0.00    +0.000 A 
ATOM     30  N   UNL     1      -4.912  11.727  17.717  0.00  0.00    +0.000 NA
ATOM     31  C   UNL     1      -3.855  11.923  18.524  0.00  0.00    +0.000 A 
BRANCH  23  33
ATOM     32  C   UNL     1      -6.249  11.759  20.415  0.00  0.00    +0.000 C 
ATOM     33  C   UNL     1      -5.078  12.718  20.601  0.00  0.00    +0.000 C 
ATOM     34  C   UNL     1      -4.799  13.063  22.084  0.00  0.00    +0.000 C 
ATOM     35  O   UNL     1      -5.553  14.299  21.973  0.00  0.00    +0.000 OA
ATOM     36  C   UNL     1      -5.469  14.217  20.528  0.00  0.00    +0.000 C 
ENDBRANCH  23  33
ENDBRANCH  21  25
ENDBRANCH   1  21
TORSDOF 6
ENDMDL
MODEL 7
REMARK VINA RESULT:      -9.1      1.301      1.630
REMARK  Name = 
REMARK  7 active torsions:
REMARK  status: ('A' for Active; 'I' for Inactive)
REMARK    1  A    between atoms: C_1  and  C_2
REMARK    2  A    between atoms: C_2  and  N_3
REMARK    3  A    between atoms: C_5  and  C_6
REMARK    4  A    between atoms: C_6  and  C_8
REMARK    5  A    between atoms: C_12  and  N_13
REMARK    6  A    between atoms: C_14  and  C_16
REMARK    7  A    between atoms: C_20  and  C_21
REMARK                            x       y       z     vdW  Elec       q    Type
REMARK                         _______ _______ _______ _____ _____    ______ ____
ROOT
ATOM      1  C   UNL     1       0.058  10.999  20.394  0.00  0.00    +0.000 A 
ATOM      2  C   UNL     1      -0.020  11.051  21.778  0.00  0.00    +0.000 A 
ATOM      3  N   UNL     1       0.478  10.099  22.588  0.00  0.00    +0.000 NA
ATOM      4  C   UNL     1       1.047   9.028  21.986  0.00  0.00    +0.000 A 
ATOM      5  C   UNL     1       1.161   8.855  20.603  0.00  0.00    +0.000 A 
ATOM      6  C   UNL     1       0.650   9.878  19.794  0.00  0.00    +0.000 A 
ENDROOT
BRANCH   5   7
ATOM      7  N   UNL     1       1.747   7.711  20.001  0.00  0.00    +0.000 N 
ATOM      8  C   UNL     1       2.378   7.715  18.766  0.00  0.00    +0.000 C 
ATOM      9  O   UNL     1       2.520   8.688  18.032  0.00  0.00    +0.000 OA
ATOM     10  H   UNL     1       1.751   6.858  20.547  0.00  0.00    +0.000 HD
BRANCH   8  11
ATOM     11  C   UNL     1       2.959   6.441  18.286  0.00  0.00    +0.000 A 
ATOM     12  C   UNL     1       4.072   6.523  17.437  0.00  0.00    +0.000 A 
ATOM     13  C   UNL     1       4.629   5.374  16.885  0.00  0.00    +0.000 A 
ATOM     14  C   UNL     1       4.067   4.133  17.174  0.00  0.00    +0.000 A 
ATOM     15  C   UNL     1       2.943   4.027  18.010  0.00  0.00    +0.000 A 
ATOM     16  C   UNL     1       2.387   5.194  18.573  0.00  0.00    +0.000 A 
BRANCH  15  17
ATOM     17  C   UNL     1       2.319   2.681  18.286  0.00  0.00    +0.000 C 
ATOM     18  F   UNL     1       2.300   1.859  17.203  0.00  0.00    +0.000 F 
ATOM     19  F   UNL     1       2.974   2.003  19.265  0.00  0.00    +0.000 F 
ATOM     20  F   UNL     1       1.027   2.786  18.703  0.00  0.00    +0.000 F 
ENDBRANCH  15  17
ENDBRANCH   8  11
ENDBRANCH   5   7
BRANCH   1  21
ATOM     21  C   UNL     1      -0.539  12.078  19.568  0.00  0.00    +0.000 C 
ATOM     22  O   UNL     1       0.175  13.015  19.223  0.00  0.00    +0.000 OA
BRANCH  21  25
ATOM     23  N   UNL     1      -4.192  12.134  19.192  0.00  0.00    +0.000 N 
ATOM     24  C   UNL     1      -3.044  12.400  19.907  0.00  0.00    +0.000 A 
ATOM     25  C   UNL     1      -1.943  11.994  19.167  0.00  0.00    +0.000 A 
ATOM     26  C   UNL     1      -2.454  11.497  17.933  0.00  0.00    +0.000 A 
ATOM     27  C   UNL     1      -1.910  10.927  16.782  0.00  0.00    +0.000 A 
ATOM     28  N   UNL     1      -2.723  10.543  15.773  0.00  0.00    +0.000 NA
ATOM     29  C   UNL     1      -4.045  10.742  15.918  0.00  0.00    +0.000 A 
ATOM     30  N   UNL     1      -4.679  11.270  16.975  0.00  0.00    +0.000 NA
ATOM     31  C   UNL     1      -3.838  11.621  17.963  0.00  0.00    +0.000 A 
BRANCH  23  33
ATOM     32  C   UNL     1      -5.626  12.672  21.194  0.00  0.00    +0.000 C 
ATOM     33  C   UNL     1      -5.542  12.304  19.716  0.00  0.00    +0.000 C 
ATOM     34  C   UNL     1      -6.483  13.145  18.820  0.00  0.00    +0.000 C 
ATOM     35  O   UNL     1      -7.488  12.096  18.835  0.00  0.00    +0.000 OA
ATOM     36  C   UNL     1      -6.490  11.150  19.295  0.00  0.00    +0.000 C 
ENDBRANCH  23  33
ENDBRANCH  21  25
ENDBRANCH   1  21
TORSDOF 6
ENDMDL
MODEL 8
REMARK VINA RESULT:      -8.9      1.764      2.911
REMARK  Name = 
REMARK  7 active torsions:
REMARK  status: ('A' for Active; 'I' for Inactive)
REMARK    1  A    between atoms: C_1  and  C_2
REMARK    2  A    between atoms: C_2  and  N_3
REMARK    3  A    between atoms: C_5  and  C_6
REMARK    4  A    between atoms: C_6  and  C_8
REMARK    5  A    between atoms: C_12  and  N_13
REMARK    6  A    between atoms: C_14  and  C_16
REMARK    7  A    between atoms: C_20  and  C_21
REMARK                            x       y       z     vdW  Elec       q    Type
REMARK                         _______ _______ _______ _____ _____    ______ ____
ROOT
ATOM      1  C   UNL     1      -0.077  11.026  20.649  0.00  0.00    +0.000 A 
ATOM      2  C   UNL     1      -0.085  11.074  22.036  0.00  0.00    +0.000 A 
ATOM      3  N   UNL     1       0.474  10.133  22.817  0.00  0.00    +0.000 NA
ATOM      4  C   UNL     1       1.035   9.075  22.184  0.00  0.00    +0.000 A 
ATOM      5  C   UNL     1       1.081   8.906  20.796  0.00  0.00    +0.000 A 
ATOM      6  C   UNL     1       0.507   9.919  20.017  0.00  0.00    +0.000 A 
ENDROOT
BRANCH   5   7
ATOM      7  N   UNL     1       1.661   7.776  20.164  0.00  0.00    +0.000 N 
ATOM      8  C   UNL     1       2.228   7.796  18.898  0.00  0.00    +0.000 C 
ATOM      9  O   UNL     1       2.312   8.772  18.160  0.00  0.00    +0.000 OA
ATOM     10  H   UNL     1       1.710   6.923  20.706  0.00  0.00    +0.000 HD
BRANCH   8  11
ATOM     11  C   UNL     1       2.811   6.534  18.386  0.00  0.00    +0.000 A 
ATOM     12  C   UNL     1       3.945   6.638  17.568  0.00  0.00    +0.000 A 
ATOM     13  C   UNL     1       4.507   5.506  16.988  0.00  0.00    +0.000 A 
ATOM     14  C   UNL     1       3.929   4.259  17.218  0.00  0.00    +0.000 A 
ATOM     15  C   UNL     1       2.784   4.133  18.021  0.00  0.00    +0.000 A 
ATOM     16  C   UNL     1       2.223   5.283  18.613  0.00  0.00    +0.000 A 
BRANCH  15  17
ATOM     17  C   UNL     1       2.143   2.783  18.234  0.00  0.00    +0.000 C 
ATOM     18  F   UNL     1       2.472   1.870  17.279  0.00  0.00    +0.000 F 
ATOM     19  F   UNL     1       2.495   2.229  19.425  0.00  0.00    +0.000 F 
ATOM     20  F   UNL     1       0.784   2.851  18.238  0.00  0.00    +0.000 F 
ENDBRANCH  15  17
ENDBRANCH   8  11
ENDBRANCH   5   7
BRANCH   1  21
ATOM     21  C   UNL     1      -0.739  12.092  19.857  0.00  0.00    +0.000 C 
ATOM     22  O   UNL     1      -0.041  12.822  19.159  0.00  0.00    +0.000 OA
BRANCH  21  25
ATOM     23  N   UNL     1      -4.377  12.137  19.360  0.00  0.00    +0.000 N 
ATOM     24  C   UNL     1      -3.105  11.789  18.961  0.00  0.00    +0.000 A 
ATOM     25  C   UNL     1      -2.193  12.237  19.906  0.00  0.00    +0.000 A 
ATOM     26  C   UNL     1      -2.960  12.849  20.940  0.00  0.00    +0.000 A 
ATOM     27  C   UNL     1      -2.679  13.507  22.138  0.00  0.00    +0.000 A 
ATOM     28  N   UNL     1      -3.691  13.992  22.891  0.00  0.00    +0.000 NA
ATOM     29  C   UNL     1      -4.948  13.806  22.453  0.00  0.00    +0.000 A 
ATOM     30  N   UNL     1      -5.337  13.200  21.322  0.00  0.00    +0.000 NA
ATOM     31  C   UNL     1      -4.303  12.749  20.593  0.00  0.00    +0.000 A 
BRANCH  23  33
ATOM     32  C   UNL     1      -6.470  10.788  18.966  0.00  0.00    +0.000 C 
ATOM     33  C   UNL     1      -5.572  11.948  18.547  0.00  0.00    +0.000 C 
ATOM     34  C   UNL     1      -6.355  13.246  18.233  0.00  0.00    +0.000 C 
ATOM     35  O   UNL     1      -6.332  12.955  16.810  0.00  0.00    +0.000 OA
ATOM     36  C   UNL     1      -5.267  11.995  17.026  0.00  0.00    +0.000 C 
ENDBRANCH  23  33
ENDBRANCH  21  25
ENDBRANCH   1  21
TORSDOF 6
ENDMDL
MODEL 9
REMARK VINA RESULT:      -8.8      1.586      2.094
REMARK  Name = 
REMARK  7 active torsions:
REMARK  status: ('A' for Active; 'I' for Inactive)
REMARK    1  A    between atoms: C_1  and  C_2
REMARK    2  A    between atoms: C_2  and  N_3
REMARK    3  A    between atoms: C_5  and  C_6
REMARK    4  A    between atoms: C_6  and  C_8
REMARK    5  A    between atoms: C_12  and  N_13
REMARK    6  A    between atoms: C_14  and  C_16
REMARK    7  A    between atoms: C_20  and  C_21
REMARK                            x       y       z     vdW  Elec       q    Type
REMARK                         _______ _______ _______ _____ _____    ______ ____
ROOT
ATOM      1  C   UNL     1      -0.346  11.166  20.206  0.00  0.00    +0.000 A 
ATOM      2  C   UNL     1      -0.249  11.348  21.579  0.00  0.00    +0.000 A 
ATOM      3  N   UNL     1       0.430  10.519  22.393  0.00  0.00    +0.000 NA
ATOM      4  C   UNL     1       1.007   9.439  21.815  0.00  0.00    +0.000 A 
ATOM      5  C   UNL     1       0.956   9.140  20.450  0.00  0.00    +0.000 A 
ATOM      6  C   UNL     1       0.259  10.038  19.632  0.00  0.00    +0.000 A 
ENDROOT
BRANCH   5   7
ATOM      7  N   UNL     1       1.556   7.989  19.877  0.00  0.00    +0.000 N 
ATOM      8  C   UNL     1       2.274   7.992  18.690  0.00  0.00    +0.000 C 
ATOM      9  O   UNL     1       2.492   8.970  17.982  0.00  0.00    +0.000 OA
ATOM     10  H   UNL     1       1.500   7.130  20.410  0.00  0.00    +0.000 HD
BRANCH   8  11
ATOM     11  C   UNL     1       2.857   6.709  18.236  0.00  0.00    +0.000 A 
ATOM     12  C   UNL     1       3.990   6.776  17.411  0.00  0.00    +0.000 A 
ATOM     13  C   UNL     1       4.552   5.618  16.883  0.00  0.00    +0.000 A 
ATOM     14  C   UNL     1       3.975   4.383  17.171  0.00  0.00    +0.000 A 
ATOM     15  C   UNL     1       2.832   4.293  17.983  0.00  0.00    +0.000 A 
ATOM     16  C   UNL     1       2.271   5.469  18.522  0.00  0.00    +0.000 A 
BRANCH  15  17
ATOM     17  C   UNL     1       2.193   2.954  18.258  0.00  0.00    +0.000 C 
ATOM     18  F   UNL     1       0.833   2.995  18.272  0.00  0.00    +0.000 F 
ATOM     19  F   UNL     1       2.534   2.021  17.331  0.00  0.00    +0.000 F 
ATOM     20  F   UNL     1       2.567   2.441  19.463  0.00  0.00    +0.000 F 
ENDBRANCH  15  17
ENDBRANCH   8  11
ENDBRANCH   5   7
BRANCH   1  21
ATOM     21  C   UNL     1      -1.134  12.111  19.379  0.00  0.00    +0.000 C 
ATOM     22  O   UNL     1      -0.579  12.671  18.438  0.00  0.00    +0.000 OA
BRANCH  21  25
ATOM     23  N   UNL     1      -4.442  12.946  20.739  0.00  0.00    +0.000 N 
ATOM     24  C   UNL     1      -3.066  12.938  20.820  0.00  0.00    +0.000 A 
ATOM     25  C   UNL     1      -2.547  12.338  19.682  0.00  0.00    +0.000 A 
ATOM     26  C   UNL     1      -3.664  12.006  18.862  0.00  0.00    +0.000 A 
ATOM     27  C   UNL     1      -3.850  11.379  17.630  0.00  0.00    +0.000 A 
ATOM     28  N   UNL     1      -5.099  11.211  17.141  0.00  0.00    +0.000 NA
ATOM     29  C   UNL     1      -6.128  11.677  17.871  0.00  0.00    +0.000 A 
ATOM     30  N   UNL     1      -6.073  12.286  19.063  0.00  0.00    +0.000 NA
ATOM     31  C   UNL     1      -4.817  12.416  19.523  0.00  0.00    +0.000 A 
BRANCH  23  33
ATOM     32  C   UNL     1      -5.786  14.827  21.744  0.00  0.00    +0.000 C 
ATOM     33  C   UNL     1      -5.325  13.375  21.817  0.00  0.00    +0.000 C 
ATOM     34  C   UNL     1      -6.467  12.386  22.152  0.00  0.00    +0.000 C 
ATOM     35  O   UNL     1      -6.096  12.382  23.556  0.00  0.00    +0.000 OA
ATOM     36  C   UNL     1      -4.805  12.945  23.214  0.00  0.00    +0.000 C 
ENDBRANCH  23  33
ENDBRANCH  21  25
ENDBRANCH   1  21
TORSDOF 6
ENDMDL
