MODEL 1
REMARK VINA RESULT:      -7.9      0.000      0.000
REMARK  Name = 
REMARK  5 active torsions:
REMARK  status: ('A' for Active; 'I' for Inactive)
REMARK    1  A    between atoms: C_2  and  C_3
REMARK    2  A    between atoms: C_3  and  C_4
REMARK    3  A    between atoms: C_4  and  C_5
REMARK    4  A    between atoms: N_10  and  S_11
REMARK    5  A    between atoms: S_11  and  C_14
REMARK                            x       y       z     vdW  Elec       q    Type
REMARK                         _______ _______ _______ _____ _____    ______ ____
ROOT
ATOM      1  S   UNL     1       6.580   5.620  16.425  0.00  0.00    +0.000 S 
ATOM      2  O   UNL     1       5.994   5.557  15.104  0.00  0.00    +0.000 OA
ATOM      3  O   UNL     1       7.728   4.801  16.755  0.00  0.00    +0.000 OA
ENDROOT
BRANCH   1   4
ATOM      4  C   UNL     1       5.311   5.306  17.591  0.00  0.00    +0.000 A 
ATOM      5  C   UNL     1       5.365   4.161  18.415  0.00  0.00    +0.000 A 
ATOM      6  C   UNL     1       4.471   3.948  19.488  0.00  0.00    +0.000 A 
ATOM      7  C   UNL     1       3.448   4.853  19.821  0.00  0.00    +0.000 A 
ATOM      8  C   UNL     1       3.329   5.999  18.999  0.00  0.00    +0.000 A 
ATOM      9  C   UNL     1       4.282   6.239  17.850  0.00  0.00    +0.000 A 
ATOM     10  N   UNL     1       4.032   7.392  17.207  0.00  0.00    +0.000 NA
ATOM     11  S   UNL     1       2.699   8.068  17.932  0.00  0.00    +0.000 S 
ATOM     12  N   UNL     1       2.414   6.970  19.140  0.00  0.00    +0.000 NA
ENDBRANCH   1   4
BRANCH   1  15
ATOM     13  O   UNL     1       8.166   6.913  18.656  0.00  0.00    +0.000 OA
ATOM     14  C   UNL     1       7.738   7.661  17.788  0.00  0.00    +0.000 C 
ATOM     15  N   UNL     1       7.010   7.209  16.681  0.00  0.00    +0.000 N 
ATOM     16  H   UNL     1       6.512   7.853  16.075  0.00  0.00    +0.000 HD
BRANCH  14  17
ATOM     17  C   UNL     1       7.929   9.162  17.856  0.00  0.00    +0.000 C 
BRANCH  17  18
ATOM     18  C   UNL     1       8.956   9.552  18.921  0.00  0.00    +0.000 C 
BRANCH  18  19
ATOM     19  C   UNL     1       9.783  10.788  18.555  0.00  0.00    +0.000 C 
ATOM     20  C   UNL     1       8.966  11.925  17.950  0.00  0.00    +0.000 C 
ATOM     21  C   UNL     1       9.885  13.132  18.073  0.00  0.00    +0.000 C 
ATOM     22  C   UNL     1      10.737  12.881  19.315  0.00  0.00    +0.000 C 
ATOM     23  C   UNL     1      10.422  11.457  19.772  0.00  0.00    +0.000 C 
ENDBRANCH  18  19
ENDBRANCH  17  18
ENDBRANCH  14  17
ENDBRANCH   1  15
TORSDOF 5
ENDMDL
MODEL 2
REMARK VINA RESULT:      -7.8      1.750      2.294
REMARK  Name = 
REMARK  5 active torsions:
REMARK  status: ('A' for Active; 'I' for Inactive)
REMARK    1  A    between atoms: C_2  and  C_3
REMARK    2  A    between atoms: C_3  and  C_4
REMARK    3  A    between atoms: C_4  and  C_5
REMARK    4  A    between atoms: N_10  and  S_11
REMARK    5  A    between atoms: S_11  and  C_14
REMARK                            x       y       z     vdW  Elec       q    Type
REMARK                         _______ _______ _______ _____ _____    ______ ____
ROOT
ATOM      1  S   UNL     1       6.468   5.768  16.550  0.00  0.00    +0.000 S 
ATOM      2  O   UNL     1       6.282   5.561  15.131  0.00  0.00    +0.000 OA
ATOM      3  O   UNL     1       7.317   4.877  17.314  0.00  0.00    +0.000 OA
ENDROOT
BRANCH   1   4
ATOM      4  C   UNL     1       4.884   5.811  17.297  0.00  0.00    +0.000 A 
ATOM      5  C   UNL     1       4.264   7.046  17.587  0.00  0.00    +0.000 A 
ATOM      6  C   UNL     1       2.923   7.147  18.022  0.00  0.00    +0.000 A 
ATOM      7  C   UNL     1       2.096   6.026  18.211  0.00  0.00    +0.000 A 
ATOM      8  C   UNL     1       2.685   4.761  17.971  0.00  0.00    +0.000 A 
ATOM      9  C   UNL     1       4.117   4.643  17.502  0.00  0.00    +0.000 A 
ATOM     10  N   UNL     1       4.486   3.367  17.297  0.00  0.00    +0.000 NA
ATOM     11  S   UNL     1       3.190   2.417  17.714  0.00  0.00    +0.000 S 
ATOM     12  N   UNL     1       2.072   3.576  18.108  0.00  0.00    +0.000 NA
ENDBRANCH   1   4
BRANCH   1  15
ATOM     13  O   UNL     1       8.139   6.998  18.754  0.00  0.00    +0.000 OA
ATOM     14  C   UNL     1       7.817   7.740  17.837  0.00  0.00    +0.000 C 
ATOM     15  N   UNL     1       7.067   7.311  16.734  0.00  0.00    +0.000 N 
ATOM     16  H   UNL     1       6.659   7.971  16.081  0.00  0.00    +0.000 HD
BRANCH  14  17
ATOM     17  C   UNL     1       8.174   9.212  17.831  0.00  0.00    +0.000 C 
BRANCH  17  18
ATOM     18  C   UNL     1       9.096   9.573  18.997  0.00  0.00    +0.000 C 
BRANCH  18  19
ATOM     19  C   UNL     1       9.480  11.055  19.042  0.00  0.00    +0.000 C 
ATOM     20  C   UNL     1      10.243  11.461  20.299  0.00  0.00    +0.000 C 
ATOM     21  C   UNL     1      10.861  12.801  19.927  0.00  0.00    +0.000 C 
ATOM     22  C   UNL     1      11.102  12.743  18.419  0.00  0.00    +0.000 C 
ATOM     23  C   UNL     1      10.450  11.451  17.929  0.00  0.00    +0.000 C 
ENDBRANCH  18  19
ENDBRANCH  17  18
ENDBRANCH  14  17
ENDBRANCH   1  15
TORSDOF 5
ENDMDL
MODEL 3
REMARK VINA RESULT:      -7.5      1.754      2.156
REMARK  Name = 
REMARK  5 active torsions:
REMARK  status: ('A' for Active; 'I' for Inactive)
REMARK    1  A    between atoms: C_2  and  C_3
REMARK    2  A    between atoms: C_3  and  C_4
REMARK    3  A    between atoms: C_4  and  C_5
REMARK    4  A    between atoms: N_10  and  S_11
REMARK    5  A    between atoms: S_11  and  C_14
REMARK                            x       y       z     vdW  Elec       q    Type
REMARK                         _______ _______ _______ _____ _____    ______ ____
ROOT
ATOM      1  S   UNL     1       6.598   5.410  16.860  0.00  0.00    +0.000 S 
ATOM      2  O   UNL     1       6.296   5.025  15.499  0.00  0.00    +0.000 OA
ATOM      3  O   UNL     1       7.538   4.638  17.646  0.00  0.00    +0.000 OA
ENDROOT
BRANCH   1   4
ATOM      4  C   UNL     1       5.085   5.513  17.736  0.00  0.00    +0.000 A 
ATOM      5  C   UNL     1       4.216   6.607  17.534  0.00  0.00    +0.000 A 
ATOM      6  C   UNL     1       2.911   6.659  18.073  0.00  0.00    +0.000 A 
ATOM      7  C   UNL     1       2.371   5.629  18.863  0.00  0.00    +0.000 A 
ATOM      8  C   UNL     1       3.219   4.526  19.127  0.00  0.00    +0.000 A 
ATOM      9  C   UNL     1       4.615   4.460  18.552  0.00  0.00    +0.000 A 
ATOM     10  N   UNL     1       5.255   3.326  18.885  0.00  0.00    +0.000 NA
ATOM     11  S   UNL     1       4.230   2.467  19.870  0.00  0.00    +0.000 S 
ATOM     12  N   UNL     1       2.899   3.455  19.868  0.00  0.00    +0.000 NA
ENDBRANCH   1   4
BRANCH   1  15
ATOM     13  O   UNL     1       8.121   7.050  18.898  0.00  0.00    +0.000 OA
ATOM     14  C   UNL     1       7.841   7.611  17.847  0.00  0.00    +0.000 C 
ATOM     15  N   UNL     1       7.163   6.976  16.799  0.00  0.00    +0.000 N 
ATOM     16  H   UNL     1       6.783   7.500  16.018  0.00  0.00    +0.000 HD
BRANCH  14  17
ATOM     17  C   UNL     1       8.176   9.067  17.599  0.00  0.00    +0.000 C 
BRANCH  17  18
ATOM     18  C   UNL     1       8.927   9.682  18.782  0.00  0.00    +0.000 C 
BRANCH  18  19
ATOM     19  C   UNL     1       9.786  10.892  18.403  0.00  0.00    +0.000 C 
ATOM     20  C   UNL     1       8.989  12.072  17.857  0.00  0.00    +0.000 C 
ATOM     21  C   UNL     1       9.960  13.240  17.962  0.00  0.00    +0.000 C 
ATOM     22  C   UNL     1      10.855  12.929  19.161  0.00  0.00    +0.000 C 
ATOM     23  C   UNL     1      10.503  11.510  19.603  0.00  0.00    +0.000 C 
ENDBRANCH  18  19
ENDBRANCH  17  18
ENDBRANCH  14  17
ENDBRANCH   1  15
TORSDOF 5
ENDMDL
MODEL 4
REMARK VINA RESULT:      -7.5      4.866      6.435
REMARK  Name = 
REMARK  5 active torsions:
REMARK  status: ('A' for Active; 'I' for Inactive)
REMARK    1  A    between atoms: C_2  and  C_3
REMARK    2  A    between atoms: C_3  and  C_4
REMARK    3  A    between atoms: C_4  and  C_5
REMARK    4  A    between atoms: N_10  and  S_11
REMARK    5  A    between atoms: S_11  and  C_14
REMARK                            x       y       z     vdW  Elec       q    Type
REMARK                         _______ _______ _______ _____ _____    ______ ____
ROOT
ATOM      1  S   UNL     1       3.371   3.210  17.919  0.00  0.00    +0.000 S 
ATOM      2  O   UNL     1       3.795   2.072  18.705  0.00  0.00    +0.000 OA
ATOM      3  O   UNL     1       2.292   3.076  16.962  0.00  0.00    +0.000 OA
ENDROOT
BRANCH   1   4
ATOM      4  C   UNL     1       4.780   3.845  17.093  0.00  0.00    +0.000 A 
ATOM      5  C   UNL     1       4.856   3.815  15.684  0.00  0.00    +0.000 A 
ATOM      6  C   UNL     1       5.878   4.467  14.958  0.00  0.00    +0.000 A 
ATOM      7  C   UNL     1       6.909   5.194  15.578  0.00  0.00    +0.000 A 
ATOM      8  C   UNL     1       6.898   5.221  16.994  0.00  0.00    +0.000 A 
ATOM      9  C   UNL     1       5.808   4.530  17.779  0.00  0.00    +0.000 A 
ATOM     10  N   UNL     1       5.948   4.693  19.106  0.00  0.00    +0.000 NA
ATOM     11  S   UNL     1       7.339   5.569  19.339  0.00  0.00    +0.000 S 
ATOM     12  N   UNL     1       7.797   5.844  17.770  0.00  0.00    +0.000 NA
ENDBRANCH   1   4
BRANCH   1  15
ATOM     13  O   UNL     1       1.053   3.383  19.858  0.00  0.00    +0.000 OA
ATOM     14  C   UNL     1       1.808   4.345  19.824  0.00  0.00    +0.000 C 
ATOM     15  N   UNL     1       2.938   4.402  18.999  0.00  0.00    +0.000 N 
ATOM     16  H   UNL     1       3.444   5.268  18.851  0.00  0.00    +0.000 HD
BRANCH  14  17
ATOM     17  C   UNL     1       1.564   5.587  20.657  0.00  0.00    +0.000 C 
BRANCH  17  18
ATOM     18  C   UNL     1       2.413   6.765  20.174  0.00  0.00    +0.000 C 
BRANCH  18  19
ATOM     19  C   UNL     1       1.634   7.778  19.329  0.00  0.00    +0.000 C 
ATOM     20  C   UNL     1       1.221   9.034  20.090  0.00  0.00    +0.000 C 
ATOM     21  C   UNL     1       0.869  10.022  18.987  0.00  0.00    +0.000 C 
ATOM     22  C   UNL     1       1.756   9.652  17.800  0.00  0.00    +0.000 C 
ATOM     23  C   UNL     1       2.461   8.350  18.178  0.00  0.00    +0.000 C 
ENDBRANCH  18  19
ENDBRANCH  17  18
ENDBRANCH  14  17
ENDBRANCH   1  15
TORSDOF 5
ENDMDL
MODEL 5
REMARK VINA RESULT:      -7.3      1.091      1.266
REMARK  Name = 
REMARK  5 active torsions:
REMARK  status: ('A' for Active; 'I' for Inactive)
REMARK    1  A    between atoms: C_2  and  C_3
REMARK    2  A    between atoms: C_3  and  C_4
REMARK    3  A    between atoms: C_4  and  C_5
REMARK    4  A    between atoms: N_10  and  S_11
REMARK    5  A    between atoms: S_11  and  C_14
REMARK                            x       y       z     vdW  Elec       q    Type
REMARK                         _______ _______ _______ _____ _____    ______ ____
ROOT
ATOM      1  S   UNL     1       6.097   5.525  15.783  0.00  0.00    +0.000 S 
ATOM      2  O   UNL     1       5.501   6.235  14.672  0.00  0.00    +0.000 OA
ATOM      3  O   UNL     1       7.013   4.430  15.544  0.00  0.00    +0.000 OA
ENDROOT
BRANCH   1   4
ATOM      4  C   UNL     1       4.799   4.959  16.814  0.00  0.00    +0.000 A 
ATOM      5  C   UNL     1       4.666   3.584  17.105  0.00  0.00    +0.000 A 
ATOM      6  C   UNL     1       3.755   3.088  18.064  0.00  0.00    +0.000 A 
ATOM      7  C   UNL     1       2.898   3.922  18.805  0.00  0.00    +0.000 A 
ATOM      8  C   UNL     1       2.967   5.307  18.521  0.00  0.00    +0.000 A 
ATOM      9  C   UNL     1       3.940   5.847  17.499  0.00  0.00    +0.000 A 
ATOM     10  N   UNL     1       3.882   7.186  17.391  0.00  0.00    +0.000 NA
ATOM     11  S   UNL     1       2.684   7.700  18.420  0.00  0.00    +0.000 S 
ATOM     12  N   UNL     1       2.227   6.262  19.104  0.00  0.00    +0.000 NA
ENDBRANCH   1   4
BRANCH   1  15
ATOM     13  O   UNL     1       7.735   5.237  18.312  0.00  0.00    +0.000 OA
ATOM     14  C   UNL     1       7.608   6.371  17.872  0.00  0.00    +0.000 C 
ATOM     15  N   UNL     1       6.902   6.661  16.698  0.00  0.00    +0.000 N 
ATOM     16  H   UNL     1       6.655   7.613  16.449  0.00  0.00    +0.000 HD
BRANCH  14  17
ATOM     17  C   UNL     1       8.181   7.578  18.586  0.00  0.00    +0.000 C 
BRANCH  17  18
ATOM     18  C   UNL     1       7.913   8.871  17.812  0.00  0.00    +0.000 C 
BRANCH  18  19
ATOM     19  C   UNL     1       8.929   9.981  18.098  0.00  0.00    +0.000 C 
ATOM     20  C   UNL     1       8.429  11.381  17.759  0.00  0.00    +0.000 C 
ATOM     21  C   UNL     1       9.393  12.297  18.500  0.00  0.00    +0.000 C 
ATOM     22  C   UNL     1       9.838  11.516  19.736  0.00  0.00    +0.000 C 
ATOM     23  C   UNL     1       9.269  10.107  19.583  0.00  0.00    +0.000 C 
ENDBRANCH  18  19
ENDBRANCH  17  18
ENDBRANCH  14  17
ENDBRANCH   1  15
TORSDOF 5
ENDMDL
MODEL 6
REMARK VINA RESULT:      -7.3      0.860      1.177
REMARK  Name = 
REMARK  5 active torsions:
REMARK  status: ('A' for Active; 'I' for Inactive)
REMARK    1  A    between atoms: C_2  and  C_3
REMARK    2  A    between atoms: C_3  and  C_4
REMARK    3  A    between atoms: C_4  and  C_5
REMARK    4  A    between atoms: N_10  and  S_11
REMARK    5  A    between atoms: S_11  and  C_14
REMARK                            x       y       z     vdW  Elec       q    Type
REMARK                         _______ _______ _______ _____ _____    ______ ____
ROOT
ATOM      1  S   UNL     1       6.225   6.021  16.119  0.00  0.00    +0.000 S 
ATOM      2  O   UNL     1       5.486   6.707  15.083  0.00  0.00    +0.000 OA
ATOM      3  O   UNL     1       7.175   4.983  15.775  0.00  0.00    +0.000 OA
ENDROOT
BRANCH   1   4
ATOM      4  C   UNL     1       5.067   5.366  17.259  0.00  0.00    +0.000 A 
ATOM      5  C   UNL     1       5.219   4.054  17.758  0.00  0.00    +0.000 A 
ATOM      6  C   UNL     1       4.424   3.537  18.806  0.00  0.00    +0.000 A 
ATOM      7  C   UNL     1       3.411   4.281  19.434  0.00  0.00    +0.000 A 
ATOM      8  C   UNL     1       3.194   5.591  18.942  0.00  0.00    +0.000 A 
ATOM      9  C   UNL     1       4.039   6.155  17.824  0.00  0.00    +0.000 A 
ATOM     10  N   UNL     1       3.707   7.420  17.516  0.00  0.00    +0.000 NA
ATOM     11  S   UNL     1       2.423   7.830  18.486  0.00  0.00    +0.000 S 
ATOM     12  N   UNL     1       2.269   6.452  19.393  0.00  0.00    +0.000 NA
ENDBRANCH   1   4
BRANCH   1  15
ATOM     13  O   UNL     1       7.993   5.814  18.568  0.00  0.00    +0.000 OA
ATOM     14  C   UNL     1       7.818   6.937  18.115  0.00  0.00    +0.000 C 
ATOM     15  N   UNL     1       7.048   7.190  16.974  0.00  0.00    +0.000 N 
ATOM     16  H   UNL     1       6.767   8.131  16.721  0.00  0.00    +0.000 HD
BRANCH  14  17
ATOM     17  C   UNL     1       8.398   8.170  18.779  0.00  0.00    +0.000 C 
BRANCH  17  18
ATOM     18  C   UNL     1       8.399   9.372  17.833  0.00  0.00    +0.000 C 
BRANCH  18  19
ATOM     19  C   UNL     1       8.970  10.647  18.460  0.00  0.00    +0.000 C 
ATOM     20  C   UNL     1       9.500  10.458  19.877  0.00  0.00    +0.000 C 
ATOM     21  C   UNL     1      10.366  11.690  20.104  0.00  0.00    +0.000 C 
ATOM     22  C   UNL     1      10.908  12.075  18.728  0.00  0.00    +0.000 C 
ATOM     23  C   UNL     1      10.198  11.174  17.719  0.00  0.00    +0.000 C 
ENDBRANCH  18  19
ENDBRANCH  17  18
ENDBRANCH  14  17
ENDBRANCH   1  15
TORSDOF 5
ENDMDL
MODEL 7
REMARK VINA RESULT:      -7.3      1.372      1.611
REMARK  Name = 
REMARK  5 active torsions:
REMARK  status: ('A' for Active; 'I' for Inactive)
REMARK    1  A    between atoms: C_2  and  C_3
REMARK    2  A    between atoms: C_3  and  C_4
REMARK    3  A    between atoms: C_4  and  C_5
REMARK    4  A    between atoms: N_10  and  S_11
REMARK    5  A    between atoms: S_11  and  C_14
REMARK                            x       y       z     vdW  Elec       q    Type
REMARK                         _______ _______ _______ _____ _____    ______ ____
ROOT
ATOM      1  S   UNL     1       5.515   5.166  17.038  0.00  0.00    +0.000 S 
ATOM      2  O   UNL     1       4.844   5.941  16.018  0.00  0.00    +0.000 OA
ATOM      3  O   UNL     1       6.415   4.094  16.668  0.00  0.00    +0.000 OA
ENDROOT
BRANCH   1   4
ATOM      4  C   UNL     1       4.291   4.526  18.116  0.00  0.00    +0.000 A 
ATOM      5  C   UNL     1       4.220   3.140  18.373  0.00  0.00    +0.000 A 
ATOM      6  C   UNL     1       3.376   2.587  19.362  0.00  0.00    +0.000 A 
ATOM      7  C   UNL     1       2.531   3.369  20.169  0.00  0.00    +0.000 A 
ATOM      8  C   UNL     1       2.538   4.763  19.922  0.00  0.00    +0.000 A 
ATOM      9  C   UNL     1       3.439   5.365  18.869  0.00  0.00    +0.000 A 
ATOM     10  N   UNL     1       3.330   6.703  18.803  0.00  0.00    +0.000 NA
ATOM     11  S   UNL     1       2.170   7.146  19.905  0.00  0.00    +0.000 S 
ATOM     12  N   UNL     1       1.797   5.674  20.569  0.00  0.00    +0.000 NA
ENDBRANCH   1   4
BRANCH   1  15
ATOM     13  O   UNL     1       7.861   6.950  16.345  0.00  0.00    +0.000 OA
ATOM     14  C   UNL     1       7.467   6.993  17.503  0.00  0.00    +0.000 C 
ATOM     15  N   UNL     1       6.378   6.246  17.968  0.00  0.00    +0.000 N 
ATOM     16  H   UNL     1       6.181   6.155  18.959  0.00  0.00    +0.000 HD
BRANCH  14  17
ATOM     17  C   UNL     1       8.155   7.840  18.554  0.00  0.00    +0.000 C 
BRANCH  17  18
ATOM     18  C   UNL     1       8.278   9.299  18.110  0.00  0.00    +0.000 C 
BRANCH  18  19
ATOM     19  C   UNL     1       9.496  10.019  18.696  0.00  0.00    +0.000 C 
ATOM     20  C   UNL     1       9.954  11.226  17.883  0.00  0.00    +0.000 C 
ATOM     21  C   UNL     1      10.850  11.989  18.848  0.00  0.00    +0.000 C 
ATOM     22  C   UNL     1      10.300  11.700  20.243  0.00  0.00    +0.000 C 
ATOM     23  C   UNL     1       9.219  10.634  20.067  0.00  0.00    +0.000 C 
ENDBRANCH  18  19
ENDBRANCH  17  18
ENDBRANCH  14  17
ENDBRANCH   1  15
TORSDOF 5
ENDMDL
MODEL 8
REMARK VINA RESULT:      -7.3      4.663      6.562
REMARK  Name = 
REMARK  5 active torsions:
REMARK  status: ('A' for Active; 'I' for Inactive)
REMARK    1  A    between atoms: C_2  and  C_3
REMARK    2  A    between atoms: C_3  and  C_4
REMARK    3  A    between atoms: C_4  and  C_5
REMARK    4  A    between atoms: N_10  and  S_11
REMARK    5  A    between atoms: S_11  and  C_14
REMARK                            x       y       z     vdW  Elec       q    Type
REMARK                         _______ _______ _______ _____ _____    ______ ____
ROOT
ATOM      1  S   UNL     1       4.136   3.363  18.707  0.00  0.00    +0.000 S 
ATOM      2  O   UNL     1       5.047   2.916  19.738  0.00  0.00    +0.000 OA
ATOM      3  O   UNL     1       3.149   2.456  18.160  0.00  0.00    +0.000 OA
ENDROOT
BRANCH   1   4
ATOM      4  C   UNL     1       5.093   4.012  17.391  0.00  0.00    +0.000 A 
ATOM      5  C   UNL     1       4.815   3.645  16.056  0.00  0.00    +0.000 A 
ATOM      6  C   UNL     1       5.431   4.266  14.947  0.00  0.00    +0.000 A 
ATOM      7  C   UNL     1       6.379   5.296  15.078  0.00  0.00    +0.000 A 
ATOM      8  C   UNL     1       6.721   5.673  16.399  0.00  0.00    +0.000 A 
ATOM      9  C   UNL     1       6.065   5.018  17.593  0.00  0.00    +0.000 A 
ATOM     10  N   UNL     1       6.493   5.529  18.760  0.00  0.00    +0.000 NA
ATOM     11  S   UNL     1       7.645   6.667  18.393  0.00  0.00    +0.000 S 
ATOM     12  N   UNL     1       7.610   6.619  16.736  0.00  0.00    +0.000 NA
ENDBRANCH   1   4
BRANCH   1  15
ATOM     13  O   UNL     1       2.146   3.572  20.979  0.00  0.00    +0.000 OA
ATOM     14  C   UNL     1       2.403   4.609  20.382  0.00  0.00    +0.000 C 
ATOM     15  N   UNL     1       3.321   4.677  19.327  0.00  0.00    +0.000 N 
ATOM     16  H   UNL     1       3.386   5.496  18.733  0.00  0.00    +0.000 HD
BRANCH  14  17
ATOM     17  C   UNL     1       1.714   5.917  20.714  0.00  0.00    +0.000 C 
BRANCH  17  18
ATOM     18  C   UNL     1       2.223   7.060  19.834  0.00  0.00    +0.000 C 
BRANCH  18  19
ATOM     19  C   UNL     1       1.728   8.442  20.274  0.00  0.00    +0.000 C 
ATOM     20  C   UNL     1       1.159   9.287  19.139  0.00  0.00    +0.000 C 
ATOM     21  C   UNL     1       0.375  10.375  19.859  0.00  0.00    +0.000 C 
ATOM     22  C   UNL     1      -0.113   9.742  21.161  0.00  0.00    +0.000 C 
ATOM     23  C   UNL     1       0.553   8.370  21.248  0.00  0.00    +0.000 C 
ENDBRANCH  18  19
ENDBRANCH  17  18
ENDBRANCH  14  17
ENDBRANCH   1  15
TORSDOF 5
ENDMDL
MODEL 9
REMARK VINA RESULT:      -7.2      1.772      2.347
REMARK  Name = 
REMARK  5 active torsions:
REMARK  status: ('A' for Active; 'I' for Inactive)
REMARK    1  A    between atoms: C_2  and  C_3
REMARK    2  A    between atoms: C_3  and  C_4
REMARK    3  A    between atoms: C_4  and  C_5
REMARK    4  A    between atoms: N_10  and  S_11
REMARK    5  A    between atoms: S_11  and  C_14
REMARK                            x       y       z     vdW  Elec       q    Type
REMARK                         _______ _______ _______ _____ _____    ______ ____
ROOT
ATOM      1  S   UNL     1       6.064   5.937  16.385  0.00  0.00    +0.000 S 
ATOM      2  O   UNL     1       5.616   6.468  15.116  0.00  0.00    +0.000 OA
ATOM      3  O   UNL     1       6.673   4.625  16.454  0.00  0.00    +0.000 OA
ENDROOT
BRANCH   1   4
ATOM      4  C   UNL     1       4.711   5.989  17.496  0.00  0.00    +0.000 A 
ATOM      5  C   UNL     1       3.832   7.093  17.500  0.00  0.00    +0.000 A 
ATOM      6  C   UNL     1       2.630   7.112  18.243  0.00  0.00    +0.000 A 
ATOM      7  C   UNL     1       2.212   6.037  19.047  0.00  0.00    +0.000 A 
ATOM      8  C   UNL     1       3.081   4.921  19.106  0.00  0.00    +0.000 A 
ATOM      9  C   UNL     1       4.367   4.889  18.313  0.00  0.00    +0.000 A 
ATOM     10  N   UNL     1       5.040   3.736  18.472  0.00  0.00    +0.000 NA
ATOM     11  S   UNL     1       4.177   2.820  19.555  0.00  0.00    +0.000 S 
ATOM     12  N   UNL     1       2.873   3.807  19.824  0.00  0.00    +0.000 NA
ENDBRANCH   1   4
BRANCH   1  15
ATOM     13  O   UNL     1       7.506   6.019  19.046  0.00  0.00    +0.000 OA
ATOM     14  C   UNL     1       7.732   6.942  18.275  0.00  0.00    +0.000 C 
ATOM     15  N   UNL     1       7.161   7.030  17.000  0.00  0.00    +0.000 N 
ATOM     16  H   UNL     1       7.215   7.882  16.452  0.00  0.00    +0.000 HD
BRANCH  14  17
ATOM     17  C   UNL     1       8.631   8.102  18.653  0.00  0.00    +0.000 C 
BRANCH  17  18
ATOM     18  C   UNL     1       8.226   9.387  17.929  0.00  0.00    +0.000 C 
BRANCH  18  19
ATOM     19  C   UNL     1       8.864  10.650  18.516  0.00  0.00    +0.000 C 
ATOM     20  C   UNL     1       9.415  10.469  19.927  0.00  0.00    +0.000 C 
ATOM     21  C   UNL     1      10.337  11.667  20.109  0.00  0.00    +0.000 C 
ATOM     22  C   UNL     1      10.867  11.998  18.715  0.00  0.00    +0.000 C 
ATOM     23  C   UNL     1      10.099  11.108  17.740  0.00  0.00    +0.000 C 
ENDBRANCH  18  19
ENDBRANCH  17  18
ENDBRANCH  14  17
ENDBRANCH   1  15
TORSDOF 5
ENDMDL
