MODEL 1
REMARK VINA RESULT:      -9.0      0.000      0.000
REMARK  Name = 
REMARK  8 active torsions:
REMARK  status: ('A' for Active; 'I' for Inactive)
REMARK    1  A    between atoms: C_1  and  O_2
REMARK    2  A    between atoms: O_2  and  C_3
REMARK    3  A    between atoms: C_6  and  N_7
REMARK    4  A    between atoms: N_10  and  C_11
REMARK    5  A    between atoms: C_14  and  O_15
REMARK    6  A    between atoms: O_15  and  C_16
REMARK    7  A    between atoms: C_23  and  C_24
REMARK    8  A    between atoms: C_24  and  C_25
REMARK                            x       y       z     vdW  Elec       q    Type
REMARK                         _______ _______ _______ _____ _____    ______ ____
ROOT
ATOM      1  N   UNL     1       1.783   7.084  20.104  0.00  0.00    +0.000 N 
ATOM      2  C   UNL     1       2.518   6.192  19.381  0.00  0.00    +0.000 A 
ATOM      3  N   UNL     1       3.229   6.439  18.266  0.00  0.00    +0.000 NA
ATOM      4  N   UNL     1       3.790   5.245  17.981  0.00  0.00    +0.000 N 
ATOM      5  N   UNL     1       3.481   4.231  18.812  0.00  0.00    +0.000 NA
ATOM      6  C   UNL     1       2.680   4.812  19.715  0.00  0.00    +0.000 A 
ATOM      7  H   UNL     1       1.432   6.825  21.032  0.00  0.00    +0.000 HD
ENDROOT
BRANCH   1  11
ATOM      8  C   UNL     1       0.894  11.150  19.258  0.00  0.00    +0.000 A 
ATOM      9  C   UNL     1       1.550  10.364  18.323  0.00  0.00    +0.000 A 
ATOM     10  C   UNL     1       1.811   9.027  18.596  0.00  0.00    +0.000 A 
ATOM     11  C   UNL     1       1.431   8.441  19.812  0.00  0.00    +0.000 A 
ATOM     12  C   UNL     1       0.757   9.221  20.782  0.00  0.00    +0.000 A 
ATOM     13  N   UNL     1       0.375   8.669  21.962  0.00  0.00    +0.000 NA
ATOM     14  C   UNL     1      -0.260   9.448  22.871  0.00  0.00    +0.000 A 
ATOM     15  C   UNL     1      -0.543  10.784  22.684  0.00  0.00    +0.000 A 
ATOM     16  C   UNL     1      -0.158  11.356  21.479  0.00  0.00    +0.000 A 
ATOM     17  C   UNL     1       0.498  10.589  20.497  0.00  0.00    +0.000 A 
BRANCH   8  19
ATOM     18  C   UNL     1       1.657  13.224  18.393  0.00  0.00    +0.000 C 
ATOM     19  O   UNL     1       0.642  12.488  19.070  0.00  0.00    +0.000 OA
ENDBRANCH   8  19
ENDBRANCH   1  11
BRANCH   4  20
ATOM     20  C   UNL     1       4.674   5.015  16.891  0.00  0.00    +0.000 A 
ATOM     21  C   UNL     1       5.151   3.741  16.582  0.00  0.00    +0.000 A 
ATOM     22  C   UNL     1       5.977   3.571  15.460  0.00  0.00    +0.000 A 
ATOM     23  C   UNL     1       6.320   4.657  14.639  0.00  0.00    +0.000 A 
ATOM     24  C   UNL     1       5.902   5.933  14.996  0.00  0.00    +0.000 A 
ATOM     25  C   UNL     1       5.067   6.109  16.101  0.00  0.00    +0.000 A 
BRANCH  23  26
ATOM     26  O   UNL     1       7.101   4.356  13.565  0.00  0.00    +0.000 OA
BRANCH  26  27
ATOM     27  C   UNL     1       6.503   3.801  12.397  0.00  0.00    +0.000 C 
ATOM     28  F   UNL     1       6.792   2.500  12.179  0.00  0.00    +0.000 F 
ATOM     29  F   UNL     1       5.161   3.937  12.476  0.00  0.00    +0.000 F 
ATOM     30  F   UNL     1       6.932   4.499  11.321  0.00  0.00    +0.000 F 
ENDBRANCH  26  27
ENDBRANCH  23  26
ENDBRANCH   4  20
BRANCH   6  31
ATOM     31  C   UNL     1       2.115   4.031  20.806  0.00  0.00    +0.000 C 
ATOM     32  C   UNL     1       1.180   2.884  20.460  0.00  0.00    +0.000 C 
ATOM     33  O   UNL     1       2.396   4.266  21.982  0.00  0.00    +0.000 OA
ENDBRANCH   6  31
TORSDOF 6
ENDMDL
MODEL 2
REMARK VINA RESULT:      -9.0      0.166      1.088
REMARK  Name = 
REMARK  8 active torsions:
REMARK  status: ('A' for Active; 'I' for Inactive)
REMARK    1  A    between atoms: C_1  and  O_2
REMARK    2  A    between atoms: O_2  and  C_3
REMARK    3  A    between atoms: C_6  and  N_7
REMARK    4  A    between atoms: N_10  and  C_11
REMARK    5  A    between atoms: C_14  and  O_15
REMARK    6  A    between atoms: O_15  and  C_16
REMARK    7  A    between atoms: C_23  and  C_24
REMARK    8  A    between atoms: C_24  and  C_25
REMARK                            x       y       z     vdW  Elec       q    Type
REMARK                         _______ _______ _______ _____ _____    ______ ____
ROOT
ATOM      1  N   UNL     1       1.792   7.145  20.173  0.00  0.00    +0.000 N 
ATOM      2  C   UNL     1       2.484   6.236  19.428  0.00  0.00    +0.000 A 
ATOM      3  N   UNL     1       3.145   6.462  18.279  0.00  0.00    +0.000 NA
ATOM      4  N   UNL     1       3.681   5.259  17.984  0.00  0.00    +0.000 N 
ATOM      5  N   UNL     1       3.401   4.259  18.841  0.00  0.00    +0.000 NA
ATOM      6  C   UNL     1       2.648   4.859  19.772  0.00  0.00    +0.000 A 
ATOM      7  H   UNL     1       1.481   6.901  21.120  0.00  0.00    +0.000 HD
ENDROOT
BRANCH   1  11
ATOM      8  C   UNL     1       0.902  11.210  19.327  0.00  0.00    +0.000 A 
ATOM      9  C   UNL     1       1.572  10.429  18.398  0.00  0.00    +0.000 A 
ATOM     10  C   UNL     1       1.833   9.091  18.671  0.00  0.00    +0.000 A 
ATOM     11  C   UNL     1       1.440   8.501  19.880  0.00  0.00    +0.000 A 
ATOM     12  C   UNL     1       0.751   9.277  20.844  0.00  0.00    +0.000 A 
ATOM     13  N   UNL     1       0.356   8.721  22.017  0.00  0.00    +0.000 NA
ATOM     14  C   UNL     1      -0.293   9.496  22.920  0.00  0.00    +0.000 A 
ATOM     15  C   UNL     1      -0.577  10.831  22.733  0.00  0.00    +0.000 A 
ATOM     16  C   UNL     1      -0.178  11.408  21.534  0.00  0.00    +0.000 A 
ATOM     17  C   UNL     1       0.492  10.646  20.559  0.00  0.00    +0.000 A 
BRANCH   8  19
ATOM     18  C   UNL     1       1.704  13.307  18.555  0.00  0.00    +0.000 C 
ATOM     19  O   UNL     1       0.649  12.549  19.139  0.00  0.00    +0.000 OA
ENDBRANCH   8  19
ENDBRANCH   1  11
BRANCH   4  20
ATOM     20  C   UNL     1       4.511   5.007  16.857  0.00  0.00    +0.000 A 
ATOM     21  C   UNL     1       5.005   6.039  16.058  0.00  0.00    +0.000 A 
ATOM     22  C   UNL     1       5.865   5.729  14.992  0.00  0.00    +0.000 A 
ATOM     23  C   UNL     1       6.244   4.404  14.725  0.00  0.00    +0.000 A 
ATOM     24  C   UNL     1       5.688   3.377  15.479  0.00  0.00    +0.000 A 
ATOM     25  C   UNL     1       4.846   3.677  16.551  0.00  0.00    +0.000 A 
BRANCH  23  26
ATOM     26  O   UNL     1       7.106   4.239  13.685  0.00  0.00    +0.000 OA
BRANCH  26  27
ATOM     27  C   UNL     1       6.600   3.852  12.410  0.00  0.00    +0.000 C 
ATOM     28  F   UNL     1       5.255   3.879  12.305  0.00  0.00    +0.000 F 
ATOM     29  F   UNL     1       7.122   4.658  11.460  0.00  0.00    +0.000 F 
ATOM     30  F   UNL     1       7.004   2.587  12.154  0.00  0.00    +0.000 F 
ENDBRANCH  26  27
ENDBRANCH  23  26
ENDBRANCH   4  20
BRANCH   6  31
ATOM     31  C   UNL     1       2.127   4.097  20.898  0.00  0.00    +0.000 C 
ATOM     32  C   UNL     1       1.043   3.066  20.629  0.00  0.00    +0.000 C 
ATOM     33  O   UNL     1       2.559   4.256  22.041  0.00  0.00    +0.000 OA
ENDBRANCH   6  31
TORSDOF 6
ENDMDL
MODEL 3
REMARK VINA RESULT:      -8.4      4.836      8.101
REMARK  Name = 
REMARK  8 active torsions:
REMARK  status: ('A' for Active; 'I' for Inactive)
REMARK    1  A    between atoms: C_1  and  O_2
REMARK    2  A    between atoms: O_2  and  C_3
REMARK    3  A    between atoms: C_6  and  N_7
REMARK    4  A    between atoms: N_10  and  C_11
REMARK    5  A    between atoms: C_14  and  O_15
REMARK    6  A    between atoms: O_15  and  C_16
REMARK    7  A    between atoms: C_23  and  C_24
REMARK    8  A    between atoms: C_24  and  C_25
REMARK                            x       y       z     vdW  Elec       q    Type
REMARK                         _______ _______ _______ _____ _____    ______ ____
ROOT
ATOM      1  N   UNL     1      -2.274  13.423  19.797  0.00  0.00    +0.000 N 
ATOM      2  C   UNL     1      -1.147  12.674  19.629  0.00  0.00    +0.000 A 
ATOM      3  N   UNL     1      -1.006  11.357  19.858  0.00  0.00    +0.000 NA
ATOM      4  N   UNL     1       0.272  11.112  19.499  0.00  0.00    +0.000 N 
ATOM      5  N   UNL     1       0.983  12.174  19.075  0.00  0.00    +0.000 NA
ATOM      6  C   UNL     1       0.098  13.177  19.141  0.00  0.00    +0.000 A 
ATOM      7  H   UNL     1      -2.316  14.377  19.421  0.00  0.00    +0.000 HD
ENDROOT
BRANCH   1  11
ATOM      8  C   UNL     1      -5.921  12.290  21.655  0.00  0.00    +0.000 A 
ATOM      9  C   UNL     1      -4.945  12.964  22.374  0.00  0.00    +0.000 A 
ATOM     10  C   UNL     1      -3.767  13.357  21.750  0.00  0.00    +0.000 A 
ATOM     11  C   UNL     1      -3.529  13.081  20.397  0.00  0.00    +0.000 A 
ATOM     12  C   UNL     1      -4.510  12.397  19.640  0.00  0.00    +0.000 A 
ATOM     13  N   UNL     1      -4.300  12.128  18.327  0.00  0.00    +0.000 NA
ATOM     14  C   UNL     1      -5.259  11.462  17.636  0.00  0.00    +0.000 A 
ATOM     15  C   UNL     1      -6.446  11.027  18.183  0.00  0.00    +0.000 A 
ATOM     16  C   UNL     1      -6.671  11.300  19.525  0.00  0.00    +0.000 A 
ATOM     17  C   UNL     1      -5.711  11.994  20.287  0.00  0.00    +0.000 A 
BRANCH   8  19
ATOM     18  C   UNL     1      -7.780  12.761  23.054  0.00  0.00    +0.000 C 
ATOM     19  O   UNL     1      -7.090  11.836  22.220  0.00  0.00    +0.000 OA
ENDBRANCH   8  19
ENDBRANCH   1  11
BRANCH   4  20
ATOM     20  C   UNL     1       0.880   9.827  19.532  0.00  0.00    +0.000 A 
ATOM     21  C   UNL     1       1.561   9.303  18.432  0.00  0.00    +0.000 A 
ATOM     22  C   UNL     1       2.188   8.051  18.546  0.00  0.00    +0.000 A 
ATOM     23  C   UNL     1       2.151   7.326  19.747  0.00  0.00    +0.000 A 
ATOM     24  C   UNL     1       1.408   7.821  20.812  0.00  0.00    +0.000 A 
ATOM     25  C   UNL     1       0.796   9.071  20.714  0.00  0.00    +0.000 A 
BRANCH  23  26
ATOM     26  O   UNL     1       2.823   6.142  19.738  0.00  0.00    +0.000 OA
BRANCH  26  27
ATOM     27  C   UNL     1       2.160   4.964  19.290  0.00  0.00    +0.000 C 
ATOM     28  F   UNL     1       1.676   5.032  18.032  0.00  0.00    +0.000 F 
ATOM     29  F   UNL     1       3.011   3.917  19.367  0.00  0.00    +0.000 F 
ATOM     30  F   UNL     1       1.117   4.717  20.115  0.00  0.00    +0.000 F 
ENDBRANCH  26  27
ENDBRANCH  23  26
ENDBRANCH   4  20
BRANCH   6  31
ATOM     31  C   UNL     1       0.489  14.527  18.761  0.00  0.00    +0.000 C 
ATOM     32  C   UNL     1       1.964  14.810  18.527  0.00  0.00    +0.000 C 
ATOM     33  O   UNL     1      -0.344  15.421  18.607  0.00  0.00    +0.000 OA
ENDBRANCH   6  31
TORSDOF 6
ENDMDL
MODEL 4
REMARK VINA RESULT:      -8.4      4.754      8.859
REMARK  Name = 
REMARK  8 active torsions:
REMARK  status: ('A' for Active; 'I' for Inactive)
REMARK    1  A    between atoms: C_1  and  O_2
REMARK    2  A    between atoms: O_2  and  C_3
REMARK    3  A    between atoms: C_6  and  N_7
REMARK    4  A    between atoms: N_10  and  C_11
REMARK    5  A    between atoms: C_14  and  O_15
REMARK    6  A    between atoms: O_15  and  C_16
REMARK    7  A    between atoms: C_23  and  C_24
REMARK    8  A    between atoms: C_24  and  C_25
REMARK                            x       y       z     vdW  Elec       q    Type
REMARK                         _______ _______ _______ _____ _____    ______ ____
ROOT
ATOM      1  N   UNL     1       3.343   4.276  18.361  0.00  0.00    +0.000 N 
ATOM      2  C   UNL     1       2.621   5.088  19.185  0.00  0.00    +0.000 A 
ATOM      3  N   UNL     1       2.645   6.432  19.225  0.00  0.00    +0.000 NA
ATOM      4  N   UNL     1       1.730   6.734  20.171  0.00  0.00    +0.000 N 
ATOM      5  N   UNL     1       1.128   5.688  20.769  0.00  0.00    +0.000 NA
ATOM      6  C   UNL     1       1.672   4.631  20.151  0.00  0.00    +0.000 A 
ATOM      7  H   UNL     1       3.111   3.279  18.294  0.00  0.00    +0.000 HD
ENDROOT
BRANCH   1  11
ATOM      8  C   UNL     1       6.528   5.050  15.661  0.00  0.00    +0.000 A 
ATOM      9  C   UNL     1       5.300   4.609  15.192  0.00  0.00    +0.000 A 
ATOM     10  C   UNL     1       4.253   4.386  16.079  0.00  0.00    +0.000 A 
ATOM     11  C   UNL     1       4.408   4.590  17.458  0.00  0.00    +0.000 A 
ATOM     12  C   UNL     1       5.651   5.043  17.962  0.00  0.00    +0.000 A 
ATOM     13  N   UNL     1       5.817   5.253  19.292  0.00  0.00    +0.000 NA
ATOM     14  C   UNL     1       7.024   5.678  19.740  0.00  0.00    +0.000 A 
ATOM     15  C   UNL     1       8.114   5.908  18.929  0.00  0.00    +0.000 A 
ATOM     16  C   UNL     1       7.953   5.698  17.565  0.00  0.00    +0.000 A 
ATOM     17  C   UNL     1       6.718   5.263  17.048  0.00  0.00    +0.000 A 
BRANCH   8  19
ATOM     18  C   UNL     1       7.450   4.867  13.481  0.00  0.00    +0.000 C 
ATOM     19  O   UNL     1       7.615   5.248  14.843  0.00  0.00    +0.000 OA
ENDBRANCH   8  19
ENDBRANCH   1  11
BRANCH   4  20
ATOM     20  C   UNL     1       1.373   8.058  20.547  0.00  0.00    +0.000 A 
ATOM     21  C   UNL     1       1.116   8.407  21.873  0.00  0.00    +0.000 A 
ATOM     22  C   UNL     1       0.822   9.743  22.187  0.00  0.00    +0.000 A 
ATOM     23  C   UNL     1       0.794  10.734  21.193  0.00  0.00    +0.000 A 
ATOM     24  C   UNL     1       0.977  10.365  19.866  0.00  0.00    +0.000 A 
ATOM     25  C   UNL     1       1.286   9.042  19.547  0.00  0.00    +0.000 A 
BRANCH  23  26
ATOM     26  O   UNL     1       0.528  11.995  21.630  0.00  0.00    +0.000 OA
BRANCH  26  27
ATOM     27  C   UNL     1      -0.794  12.330  22.040  0.00  0.00    +0.000 C 
ATOM     28  F   UNL     1      -1.085  12.013  23.320  0.00  0.00    +0.000 F 
ATOM     29  F   UNL     1      -0.991  13.656  21.871  0.00  0.00    +0.000 F 
ATOM     30  F   UNL     1      -1.670  11.673  21.248  0.00  0.00    +0.000 F 
ENDBRANCH  26  27
ENDBRANCH  23  26
ENDBRANCH   4  20
BRANCH   6  31
ATOM     31  C   UNL     1       1.278   3.280  20.523  0.00  0.00    +0.000 C 
ATOM     32  C   UNL     1       1.800   2.714  21.834  0.00  0.00    +0.000 C 
ATOM     33  O   UNL     1       0.526   2.609  19.816  0.00  0.00    +0.000 OA
ENDBRANCH   6  31
TORSDOF 6
ENDMDL
MODEL 5
REMARK VINA RESULT:      -8.3      0.938      1.123
REMARK  Name = 
REMARK  8 active torsions:
REMARK  status: ('A' for Active; 'I' for Inactive)
REMARK    1  A    between atoms: C_1  and  O_2
REMARK    2  A    between atoms: O_2  and  C_3
REMARK    3  A    between atoms: C_6  and  N_7
REMARK    4  A    between atoms: N_10  and  C_11
REMARK    5  A    between atoms: C_14  and  O_15
REMARK    6  A    between atoms: O_15  and  C_16
REMARK    7  A    between atoms: C_23  and  C_24
REMARK    8  A    between atoms: C_24  and  C_25
REMARK                            x       y       z     vdW  Elec       q    Type
REMARK                         _______ _______ _______ _____ _____    ______ ____
ROOT
ATOM      1  N   UNL     1       1.713   7.026  20.306  0.00  0.00    +0.000 N 
ATOM      2  C   UNL     1       2.546   6.155  19.670  0.00  0.00    +0.000 A 
ATOM      3  N   UNL     1       3.383   6.427  18.653  0.00  0.00    +0.000 NA
ATOM      4  N   UNL     1       3.996   5.246  18.426  0.00  0.00    +0.000 N 
ATOM      5  N   UNL     1       3.606   4.217  19.203  0.00  0.00    +0.000 NA
ATOM      6  C   UNL     1       2.691   4.774  20.007  0.00  0.00    +0.000 A 
ATOM      7  H   UNL     1       1.256   6.750  21.182  0.00  0.00    +0.000 HD
ENDROOT
BRANCH   1  11
ATOM      8  C   UNL     1       0.866  11.083  19.379  0.00  0.00    +0.000 A 
ATOM      9  C   UNL     1       1.513  10.272  18.460  0.00  0.00    +0.000 A 
ATOM     10  C   UNL     1       1.760   8.937  18.759  0.00  0.00    +0.000 A 
ATOM     11  C   UNL     1       1.375   8.380  19.987  0.00  0.00    +0.000 A 
ATOM     12  C   UNL     1       0.710   9.187  20.942  0.00  0.00    +0.000 A 
ATOM     13  N   UNL     1       0.324   8.663  22.133  0.00  0.00    +0.000 NA
ATOM     14  C   UNL     1      -0.302   9.468  23.027  0.00  0.00    +0.000 A 
ATOM     15  C   UNL     1      -0.572  10.802  22.812  0.00  0.00    +0.000 A 
ATOM     16  C   UNL     1      -0.181  11.346  21.596  0.00  0.00    +0.000 A 
ATOM     17  C   UNL     1       0.466  10.552  20.629  0.00  0.00    +0.000 A 
BRANCH   8  19
ATOM     18  C   UNL     1       1.703  13.161  18.593  0.00  0.00    +0.000 C 
ATOM     19  O   UNL     1       0.628  12.420  19.164  0.00  0.00    +0.000 OA
ENDBRANCH   8  19
ENDBRANCH   1  11
BRANCH   4  20
ATOM     20  C   UNL     1       5.010   5.044  17.450  0.00  0.00    +0.000 A 
ATOM     21  C   UNL     1       4.962   3.985  16.543  0.00  0.00    +0.000 A 
ATOM     22  C   UNL     1       5.965   3.871  15.567  0.00  0.00    +0.000 A 
ATOM     23  C   UNL     1       7.005   4.809  15.481  0.00  0.00    +0.000 A 
ATOM     24  C   UNL     1       7.087   5.817  16.435  0.00  0.00    +0.000 A 
ATOM     25  C   UNL     1       6.085   5.947  17.398  0.00  0.00    +0.000 A 
BRANCH  23  26
ATOM     26  O   UNL     1       7.897   4.606  14.473  0.00  0.00    +0.000 OA
BRANCH  26  27
ATOM     27  C   UNL     1       7.607   5.103  13.170  0.00  0.00    +0.000 C 
ATOM     28  F   UNL     1       8.558   5.908  12.649  0.00  0.00    +0.000 F 
ATOM     29  F   UNL     1       7.416   4.063  12.329  0.00  0.00    +0.000 F 
ATOM     30  F   UNL     1       6.458   5.812  13.226  0.00  0.00    +0.000 F 
ENDBRANCH  26  27
ENDBRANCH  23  26
ENDBRANCH   4  20
BRANCH   6  31
ATOM     31  C   UNL     1       2.012   3.970  21.014  0.00  0.00    +0.000 C 
ATOM     32  C   UNL     1       0.773   3.195  20.598  0.00  0.00    +0.000 C 
ATOM     33  O   UNL     1       2.431   3.894  22.169  0.00  0.00    +0.000 OA
ENDBRANCH   6  31
TORSDOF 6
ENDMDL
MODEL 6
REMARK VINA RESULT:      -8.2      4.850      8.929
REMARK  Name = 
REMARK  8 active torsions:
REMARK  status: ('A' for Active; 'I' for Inactive)
REMARK    1  A    between atoms: C_1  and  O_2
REMARK    2  A    between atoms: O_2  and  C_3
REMARK    3  A    between atoms: C_6  and  N_7
REMARK    4  A    between atoms: N_10  and  C_11
REMARK    5  A    between atoms: C_14  and  O_15
REMARK    6  A    between atoms: O_15  and  C_16
REMARK    7  A    between atoms: C_23  and  C_24
REMARK    8  A    between atoms: C_24  and  C_25
REMARK                            x       y       z     vdW  Elec       q    Type
REMARK                         _______ _______ _______ _____ _____    ______ ____
ROOT
ATOM      1  N   UNL     1       3.313   4.270  18.288  0.00  0.00    +0.000 N 
ATOM      2  C   UNL     1       2.603   5.071  19.134  0.00  0.00    +0.000 A 
ATOM      3  N   UNL     1       2.661   6.411  19.224  0.00  0.00    +0.000 NA
ATOM      4  N   UNL     1       1.745   6.702  20.171  0.00  0.00    +0.000 N 
ATOM      5  N   UNL     1       1.109   5.651  20.724  0.00  0.00    +0.000 NA
ATOM      6  C   UNL     1       1.633   4.604  20.073  0.00  0.00    +0.000 A 
ATOM      7  H   UNL     1       3.057   3.282  18.183  0.00  0.00    +0.000 HD
ENDROOT
BRANCH   1  11
ATOM      8  C   UNL     1       6.549   5.057  15.654  0.00  0.00    +0.000 A 
ATOM      9  C   UNL     1       5.324   4.637  15.158  0.00  0.00    +0.000 A 
ATOM     10  C   UNL     1       4.262   4.410  16.024  0.00  0.00    +0.000 A 
ATOM     11  C   UNL     1       4.396   4.588  17.408  0.00  0.00    +0.000 A 
ATOM     12  C   UNL     1       5.635   5.020  17.940  0.00  0.00    +0.000 A 
ATOM     13  N   UNL     1       5.781   5.206  19.276  0.00  0.00    +0.000 NA
ATOM     14  C   UNL     1       6.986   5.611  19.750  0.00  0.00    +0.000 A 
ATOM     15  C   UNL     1       8.091   5.844  18.960  0.00  0.00    +0.000 A 
ATOM     16  C   UNL     1       7.949   5.658  17.591  0.00  0.00    +0.000 A 
ATOM     17  C   UNL     1       6.719   5.245  17.047  0.00  0.00    +0.000 A 
BRANCH   8  19
ATOM     18  C   UNL     1       7.477   4.990  13.470  0.00  0.00    +0.000 C 
ATOM     19  O   UNL     1       7.652   5.258  14.857  0.00  0.00    +0.000 OA
ENDBRANCH   8  19
ENDBRANCH   1  11
BRANCH   4  20
ATOM     20  C   UNL     1       1.418   8.021  20.590  0.00  0.00    +0.000 A 
ATOM     21  C   UNL     1       1.150   9.042  19.677  0.00  0.00    +0.000 A 
ATOM     22  C   UNL     1       0.779  10.309  20.155  0.00  0.00    +0.000 A 
ATOM     23  C   UNL     1       0.662  10.562  21.530  0.00  0.00    +0.000 A 
ATOM     24  C   UNL     1       1.004   9.562  22.433  0.00  0.00    +0.000 A 
ATOM     25  C   UNL     1       1.357   8.295  21.967  0.00  0.00    +0.000 A 
BRANCH  23  26
ATOM     26  O   UNL     1       0.266  11.821  21.863  0.00  0.00    +0.000 OA
BRANCH  26  27
ATOM     27  C   UNL     1      -1.026  12.023  22.429  0.00  0.00    +0.000 C 
ATOM     28  F   UNL     1      -1.380  11.117  23.366  0.00  0.00    +0.000 F 
ATOM     29  F   UNL     1      -1.085  13.255  22.979  0.00  0.00    +0.000 F 
ATOM     30  F   UNL     1      -1.943  11.963  21.437  0.00  0.00    +0.000 F 
ENDBRANCH  26  27
ENDBRANCH  23  26
ENDBRANCH   4  20
BRANCH   6  31
ATOM     31  C   UNL     1       1.200   3.251  20.392  0.00  0.00    +0.000 C 
ATOM     32  C   UNL     1       0.629   2.396  19.273  0.00  0.00    +0.000 C 
ATOM     33  O   UNL     1       1.309   2.789  21.529  0.00  0.00    +0.000 OA
ENDBRANCH   6  31
TORSDOF 6
ENDMDL
MODEL 7
REMARK VINA RESULT:      -8.2      1.071      1.317
REMARK  Name = 
REMARK  8 active torsions:
REMARK  status: ('A' for Active; 'I' for Inactive)
REMARK    1  A    between atoms: C_1  and  O_2
REMARK    2  A    between atoms: O_2  and  C_3
REMARK    3  A    between atoms: C_6  and  N_7
REMARK    4  A    between atoms: N_10  and  C_11
REMARK    5  A    between atoms: C_14  and  O_15
REMARK    6  A    between atoms: O_15  and  C_16
REMARK    7  A    between atoms: C_23  and  C_24
REMARK    8  A    between atoms: C_24  and  C_25
REMARK                            x       y       z     vdW  Elec       q    Type
REMARK                         _______ _______ _______ _____ _____    ______ ____
ROOT
ATOM      1  N   UNL     1       1.640   7.155  20.324  0.00  0.00    +0.000 N 
ATOM      2  C   UNL     1       2.477   6.315  19.653  0.00  0.00    +0.000 A 
ATOM      3  N   UNL     1       3.293   6.626  18.630  0.00  0.00    +0.000 NA
ATOM      4  N   UNL     1       3.922   5.462  18.365  0.00  0.00    +0.000 N 
ATOM      5  N   UNL     1       3.563   4.408  19.122  0.00  0.00    +0.000 NA
ATOM      6  C   UNL     1       2.651   4.928  19.954  0.00  0.00    +0.000 A 
ATOM      7  H   UNL     1       1.201   6.849  21.200  0.00  0.00    +0.000 HD
ENDROOT
BRANCH   1  11
ATOM      8  C   UNL     1       0.708  11.218  19.512  0.00  0.00    +0.000 A 
ATOM      9  C   UNL     1       1.352  10.441  18.562  0.00  0.00    +0.000 A 
ATOM     10  C   UNL     1       1.627   9.104  18.825  0.00  0.00    +0.000 A 
ATOM     11  C   UNL     1       1.274   8.511  20.045  0.00  0.00    +0.000 A 
ATOM     12  C   UNL     1       0.612   9.282  21.031  0.00  0.00    +0.000 A 
ATOM     13  N   UNL     1       0.255   8.723  22.214  0.00  0.00    +0.000 NA
ATOM     14  C   UNL     1      -0.369   9.494  23.138  0.00  0.00    +0.000 A 
ATOM     15  C   UNL     1      -0.664  10.829  22.962  0.00  0.00    +0.000 A 
ATOM     16  C   UNL     1      -0.305  11.409  21.752  0.00  0.00    +0.000 A 
ATOM     17  C   UNL     1       0.339  10.650  20.756  0.00  0.00    +0.000 A 
BRANCH   8  19
ATOM     18  C   UNL     1      -0.601  12.869  18.418  0.00  0.00    +0.000 C 
ATOM     19  O   UNL     1       0.444  12.556  19.334  0.00  0.00    +0.000 OA
ENDBRANCH   8  19
ENDBRANCH   1  11
BRANCH   4  20
ATOM     20  C   UNL     1       4.924   5.303  17.368  0.00  0.00    +0.000 A 
ATOM     21  C   UNL     1       6.057   6.116  17.322  0.00  0.00    +0.000 A 
ATOM     22  C   UNL     1       7.037   5.873  16.346  0.00  0.00    +0.000 A 
ATOM     23  C   UNL     1       6.901   4.821  15.426  0.00  0.00    +0.000 A 
ATOM     24  C   UNL     1       5.735   4.065  15.431  0.00  0.00    +0.000 A 
ATOM     25  C   UNL     1       4.764   4.289  16.408  0.00  0.00    +0.000 A 
BRANCH  23  26
ATOM     26  O   UNL     1       7.933   4.670  14.551  0.00  0.00    +0.000 OA
BRANCH  26  27
ATOM     27  C   UNL     1       7.801   5.160  13.220  0.00  0.00    +0.000 C 
ATOM     28  F   UNL     1       7.600   4.205  12.286  0.00  0.00    +0.000 F 
ATOM     29  F   UNL     1       6.773   6.036  13.167  0.00  0.00    +0.000 F 
ATOM     30  F   UNL     1       8.933   5.821  12.890  0.00  0.00    +0.000 F 
ENDBRANCH  26  27
ENDBRANCH  23  26
ENDBRANCH   4  20
BRANCH   6  31
ATOM     31  C   UNL     1       2.002   4.088  20.950  0.00  0.00    +0.000 C 
ATOM     32  C   UNL     1       0.759   3.316  20.540  0.00  0.00    +0.000 C 
ATOM     33  O   UNL     1       2.449   3.979  22.093  0.00  0.00    +0.000 OA
ENDBRANCH   6  31
TORSDOF 6
ENDMDL
MODEL 8
REMARK VINA RESULT:      -8.2      4.622      7.575
REMARK  Name = 
REMARK  8 active torsions:
REMARK  status: ('A' for Active; 'I' for Inactive)
REMARK    1  A    between atoms: C_1  and  O_2
REMARK    2  A    between atoms: O_2  and  C_3
REMARK    3  A    between atoms: C_6  and  N_7
REMARK    4  A    between atoms: N_10  and  C_11
REMARK    5  A    between atoms: C_14  and  O_15
REMARK    6  A    between atoms: O_15  and  C_16
REMARK    7  A    between atoms: C_23  and  C_24
REMARK    8  A    between atoms: C_24  and  C_25
REMARK                            x       y       z     vdW  Elec       q    Type
REMARK                         _______ _______ _______ _____ _____    ______ ____
ROOT
ATOM      1  N   UNL     1      -2.192  12.913  19.201  0.00  0.00    +0.000 N 
ATOM      2  C   UNL     1      -1.017  12.222  19.164  0.00  0.00    +0.000 A 
ATOM      3  N   UNL     1      -0.854  10.891  19.265  0.00  0.00    +0.000 NA
ATOM      4  N   UNL     1       0.479  10.727  19.127  0.00  0.00    +0.000 N 
ATOM      5  N   UNL     1       1.201  11.853  18.966  0.00  0.00    +0.000 NA
ATOM      6  C   UNL     1       0.270  12.815  18.978  0.00  0.00    +0.000 A 
ATOM      7  H   UNL     1      -2.212  13.904  18.934  0.00  0.00    +0.000 HD
ENDROOT
BRANCH   1  11
ATOM      8  C   UNL     1      -6.177  11.697  20.021  0.00  0.00    +0.000 A 
ATOM      9  C   UNL     1      -5.572  11.360  18.820  0.00  0.00    +0.000 A 
ATOM     10  C   UNL     1      -4.258  11.737  18.572  0.00  0.00    +0.000 A 
ATOM     11  C   UNL     1      -3.516  12.466  19.512  0.00  0.00    +0.000 A 
ATOM     12  C   UNL     1      -4.110  12.820  20.747  0.00  0.00    +0.000 A 
ATOM     13  N   UNL     1      -3.405  13.519  21.672  0.00  0.00    +0.000 NA
ATOM     14  C   UNL     1      -4.009  13.849  22.840  0.00  0.00    +0.000 A 
ATOM     15  C   UNL     1      -5.311  13.526  23.157  0.00  0.00    +0.000 A 
ATOM     16  C   UNL     1      -6.039  12.809  22.217  0.00  0.00    +0.000 A 
ATOM     17  C   UNL     1      -5.457  12.435  20.991  0.00  0.00    +0.000 A 
BRANCH   8  19
ATOM     18  C   UNL     1      -7.754  10.031  20.632  0.00  0.00    +0.000 C 
ATOM     19  O   UNL     1      -7.486  11.393  20.313  0.00  0.00    +0.000 OA
ENDBRANCH   8  19
ENDBRANCH   1  11
BRANCH   4  20
ATOM     20  C   UNL     1       1.135   9.466  19.128  0.00  0.00    +0.000 A 
ATOM     21  C   UNL     1       1.776   8.965  17.994  0.00  0.00    +0.000 A 
ATOM     22  C   UNL     1       2.453   7.738  18.075  0.00  0.00    +0.000 A 
ATOM     23  C   UNL     1       2.505   7.014  19.276  0.00  0.00    +0.000 A 
ATOM     24  C   UNL     1       1.801   7.482  20.379  0.00  0.00    +0.000 A 
ATOM     25  C   UNL     1       1.139   8.710  20.313  0.00  0.00    +0.000 A 
BRANCH  23  26
ATOM     26  O   UNL     1       3.218   5.855  19.233  0.00  0.00    +0.000 OA
BRANCH  26  27
ATOM     27  C   UNL     1       2.541   4.623  19.003  0.00  0.00    +0.000 C 
ATOM     28  F   UNL     1       1.481   4.709  18.171  0.00  0.00    +0.000 F 
ATOM     29  F   UNL     1       3.412   3.723  18.498  0.00  0.00    +0.000 F 
ATOM     30  F   UNL     1       2.092   4.152  20.188  0.00  0.00    +0.000 F 
ENDBRANCH  26  27
ENDBRANCH  23  26
ENDBRANCH   4  20
BRANCH   6  31
ATOM     31  C   UNL     1       0.655  14.212  18.833  0.00  0.00    +0.000 C 
ATOM     32  C   UNL     1       2.122  14.532  18.600  0.00  0.00    +0.000 C 
ATOM     33  O   UNL     1      -0.177  15.119  18.875  0.00  0.00    +0.000 OA
ENDBRANCH   6  31
TORSDOF 6
ENDMDL
MODEL 9
REMARK VINA RESULT:      -8.1      4.478      8.708
REMARK  Name = 
REMARK  8 active torsions:
REMARK  status: ('A' for Active; 'I' for Inactive)
REMARK    1  A    between atoms: C_1  and  O_2
REMARK    2  A    between atoms: O_2  and  C_3
REMARK    3  A    between atoms: C_6  and  N_7
REMARK    4  A    between atoms: N_10  and  C_11
REMARK    5  A    between atoms: C_14  and  O_15
REMARK    6  A    between atoms: O_15  and  C_16
REMARK    7  A    between atoms: C_23  and  C_24
REMARK    8  A    between atoms: C_24  and  C_25
REMARK                            x       y       z     vdW  Elec       q    Type
REMARK                         _______ _______ _______ _____ _____    ______ ____
ROOT
ATOM      1  N   UNL     1       3.472   4.201  18.727  0.00  0.00    +0.000 N 
ATOM      2  C   UNL     1       2.741   5.102  19.444  0.00  0.00    +0.000 A 
ATOM      3  N   UNL     1       2.724   6.438  19.294  0.00  0.00    +0.000 NA
ATOM      4  N   UNL     1       1.820   6.845  20.209  0.00  0.00    +0.000 N 
ATOM      5  N   UNL     1       1.262   5.879  20.962  0.00  0.00    +0.000 NA
ATOM      6  C   UNL     1       1.826   4.760  20.487  0.00  0.00    +0.000 A 
ATOM      7  H   UNL     1       3.270   3.198  18.807  0.00  0.00    +0.000 HD
ENDROOT
BRANCH   1  11
ATOM      8  C   UNL     1       6.569   4.670  15.860  0.00  0.00    +0.000 A 
ATOM      9  C   UNL     1       5.311   4.235  15.471  0.00  0.00    +0.000 A 
ATOM     10  C   UNL     1       4.294   4.113  16.411  0.00  0.00    +0.000 A 
ATOM     11  C   UNL     1       4.509   4.413  17.764  0.00  0.00    +0.000 A 
ATOM     12  C   UNL     1       5.784   4.862  18.185  0.00  0.00    +0.000 A 
ATOM     13  N   UNL     1       6.008   5.164  19.489  0.00  0.00    +0.000 NA
ATOM     14  C   UNL     1       7.244   5.582  19.858  0.00  0.00    +0.000 A 
ATOM     15  C   UNL     1       8.308   5.716  18.992  0.00  0.00    +0.000 A 
ATOM     16  C   UNL     1       8.086   5.411  17.655  0.00  0.00    +0.000 A 
ATOM     17  C   UNL     1       6.820   4.980  17.218  0.00  0.00    +0.000 A 
BRANCH   8  19
ATOM     18  C   UNL     1       7.296   4.862  13.608  0.00  0.00    +0.000 C 
ATOM     19  O   UNL     1       7.629   4.772  14.989  0.00  0.00    +0.000 OA
ENDBRANCH   8  19
ENDBRANCH   1  11
BRANCH   4  20
ATOM     20  C   UNL     1       1.430   8.199  20.401  0.00  0.00    +0.000 A 
ATOM     21  C   UNL     1       1.404   9.117  19.350  0.00  0.00    +0.000 A 
ATOM     22  C   UNL     1       0.957  10.426  19.593  0.00  0.00    +0.000 A 
ATOM     23  C   UNL     1       0.525  10.821  20.869  0.00  0.00    +0.000 A 
ATOM     24  C   UNL     1       0.624   9.923  21.925  0.00  0.00    +0.000 A 
ATOM     25  C   UNL     1       1.052   8.615  21.689  0.00  0.00    +0.000 A 
BRANCH  23  26
ATOM     26  O   UNL     1       0.086  12.106  20.968  0.00  0.00    +0.000 OA
BRANCH  26  27
ATOM     27  C   UNL     1      -1.175  12.461  20.408  0.00  0.00    +0.000 C 
ATOM     28  F   UNL     1      -1.968  11.414  20.093  0.00  0.00    +0.000 F 
ATOM     29  F   UNL     1      -1.839  13.257  21.274  0.00  0.00    +0.000 F 
ATOM     30  F   UNL     1      -0.959  13.164  19.274  0.00  0.00    +0.000 F 
ENDBRANCH  26  27
ENDBRANCH  23  26
ENDBRANCH   4  20
BRANCH   6  31
ATOM     31  C   UNL     1       1.481   3.465  21.056  0.00  0.00    +0.000 C 
ATOM     32  C   UNL     1       0.745   2.467  20.178  0.00  0.00    +0.000 C 
ATOM     33  O   UNL     1       1.791   3.164  22.210  0.00  0.00    +0.000 OA
ENDBRANCH   6  31
TORSDOF 6
ENDMDL
