MODEL 1
REMARK VINA RESULT:      -6.1      0.000      0.000
REMARK  Name = 
REMARK  9 active torsions:
REMARK  status: ('A' for Active; 'I' for Inactive)
REMARK    1  A    between atoms: C_1  and  C_2
REMARK    2  A    between atoms: N_4  and  C_5
REMARK    3  A    between atoms: C_6  and  C_7
REMARK    4  A    between atoms: C_8  and  C_9
REMARK    5  A    between atoms: C_11  and  C_12
REMARK    6  A    between atoms: N_15  and  C_16
REMARK    7  A    between atoms: C_17  and  C_18
REMARK    8  A    between atoms: C_21  and  C_22
REMARK    9  A    between atoms: C_24  and  N_25
REMARK                            x       y       z     vdW  Elec       q    Type
REMARK                         _______ _______ _______ _____ _____    ______ ____
ROOT
ATOM      1  C   UNL     1       2.045   7.089  20.055  0.00  0.00    +0.000 A 
ATOM      2  C   UNL     1       3.318   6.872  19.549  0.00  0.00    +0.000 A 
ATOM      3  C   UNL     1       3.882   5.589  19.529  0.00  0.00    +0.000 A 
ATOM      4  C   UNL     1       3.081   4.534  19.990  0.00  0.00    +0.000 A 
ATOM      5  C   UNL     1       1.792   4.825  20.465  0.00  0.00    +0.000 A 
ATOM      6  N   UNL     1       1.285   6.075  20.515  0.00  0.00    +0.000 NA
ENDROOT
BRANCH   1  14
ATOM      7  C   UNL     1       1.162   8.922  22.691  0.00  0.00    +0.000 C 
ATOM      8  C   UNL     1       1.074   9.222  21.239  0.00  0.00    +0.000 A 
ATOM      9  N   UNL     1       0.555  10.395  20.864  0.00  0.00    +0.000 NA
ATOM     10  N   UNL     1       0.680  10.404  19.530  0.00  0.00    +0.000 N 
ATOM     11  C   UNL     1       0.220  11.567  18.806  0.00  0.00    +0.000 C 
ATOM     12  C   UNL     1       1.246   9.264  19.018  0.00  0.00    +0.000 A 
ATOM     13  C   UNL     1       1.493   9.057  17.566  0.00  0.00    +0.000 C 
ATOM     14  C   UNL     1       1.494   8.442  20.117  0.00  0.00    +0.000 A 
ENDBRANCH   1  14
BRANCH   3  15
ATOM     15  C   UNL     1       5.228   5.410  18.956  0.00  0.00    +0.000 A 
ATOM     16  C   UNL     1       6.475   5.397  19.634  0.00  0.00    +0.000 A 
ATOM     17  N   UNL     1       7.498   5.091  18.842  0.00  0.00    +0.000 NA
ATOM     18  N   UNL     1       6.932   4.890  17.642  0.00  0.00    +0.000 N 
ATOM     19  C   UNL     1       7.812   4.612  16.532  0.00  0.00    +0.000 C 
ATOM     20  C   UNL     1       5.567   5.066  17.645  0.00  0.00    +0.000 A 
BRANCH  20  21
ATOM     21  C   UNL     1       4.590   4.918  16.470  0.00  0.00    +0.000 C 
ATOM     22  C   UNL     1       4.806   4.062  15.249  0.00  0.00    +0.000 C 
ATOM     23  C   UNL     1       3.903   3.572  16.332  0.00  0.00    +0.000 C 
ENDBRANCH  20  21
ENDBRANCH   3  15
BRANCH   5  24
ATOM     24  N   UNL     1       0.890   3.829  20.835  0.00  0.00    +0.000 N 
ATOM     25  H   UNL     1       1.055   2.924  20.408  0.00  0.00    +0.000 HD
ATOM     26  H   UNL     1       0.858   3.785  21.851  0.00  0.00    +0.000 HD
ENDBRANCH   5  24
BRANCH   4  27
ATOM     27  C   UNL     1       3.524   3.173  20.002  0.00  0.00    +0.000 C 
ATOM     28  N   UNL     1       3.871   2.065  20.002  0.00  0.00    +0.000 NA
ENDBRANCH   4  27
TORSDOF 5
ENDMDL
MODEL 2
REMARK VINA RESULT:      -6.1      1.173      2.068
REMARK  Name = 
REMARK  9 active torsions:
REMARK  status: ('A' for Active; 'I' for Inactive)
REMARK    1  A    between atoms: C_1  and  C_2
REMARK    2  A    between atoms: N_4  and  C_5
REMARK    3  A    between atoms: C_6  and  C_7
REMARK    4  A    between atoms: C_8  and  C_9
REMARK    5  A    between atoms: C_11  and  C_12
REMARK    6  A    between atoms: N_15  and  C_16
REMARK    7  A    between atoms: C_17  and  C_18
REMARK    8  A    between atoms: C_21  and  C_22
REMARK    9  A    between atoms: C_24  and  N_25
REMARK                            x       y       z     vdW  Elec       q    Type
REMARK                         _______ _______ _______ _____ _____    ______ ____
ROOT
ATOM      1  C   UNL     1       2.160   6.924  19.845  0.00  0.00    +0.000 A 
ATOM      2  C   UNL     1       3.023   6.583  18.814  0.00  0.00    +0.000 A 
ATOM      3  C   UNL     1       3.594   5.305  18.737  0.00  0.00    +0.000 A 
ATOM      4  C   UNL     1       3.210   4.376  19.715  0.00  0.00    +0.000 A 
ATOM      5  C   UNL     1       2.312   4.783  20.715  0.00  0.00    +0.000 A 
ATOM      6  N   UNL     1       1.808   6.033  20.795  0.00  0.00    +0.000 NA
ENDROOT
BRANCH   1  14
ATOM      7  C   UNL     1       1.089   8.621  22.502  0.00  0.00    +0.000 C 
ATOM      8  C   UNL     1       1.116   9.000  21.066  0.00  0.00    +0.000 A 
ATOM      9  N   UNL     1       0.636  10.197  20.717  0.00  0.00    +0.000 NA
ATOM     10  N   UNL     1       0.864  10.277  19.399  0.00  0.00    +0.000 N 
ATOM     11  C   UNL     1       0.470  11.483  18.707  0.00  0.00    +0.000 C 
ATOM     12  C   UNL     1       1.460   9.160  18.870  0.00  0.00    +0.000 A 
ATOM     13  C   UNL     1       1.817   9.029  17.433  0.00  0.00    +0.000 C 
ATOM     14  C   UNL     1       1.616   8.277  19.939  0.00  0.00    +0.000 A 
ENDBRANCH   1  14
BRANCH   3  15
ATOM     15  C   UNL     1       4.484   4.988  17.606  0.00  0.00    +0.000 A 
ATOM     16  C   UNL     1       4.205   4.184  16.471  0.00  0.00    +0.000 A 
ATOM     17  N   UNL     1       5.182   4.194  15.568  0.00  0.00    +0.000 NA
ATOM     18  N   UNL     1       6.104   5.015  16.097  0.00  0.00    +0.000 N 
ATOM     19  C   UNL     1       7.342   5.174  15.374  0.00  0.00    +0.000 C 
ATOM     20  C   UNL     1       5.742   5.525  17.324  0.00  0.00    +0.000 A 
BRANCH  20  21
ATOM     21  C   UNL     1       6.532   6.491  18.218  0.00  0.00    +0.000 C 
ATOM     22  C   UNL     1       7.992   6.370  18.570  0.00  0.00    +0.000 C 
ATOM     23  C   UNL     1       7.575   7.350  17.525  0.00  0.00    +0.000 C 
ENDBRANCH  20  21
ENDBRANCH   3  15
BRANCH   5  24
ATOM     24  N   UNL     1       1.791   3.898  21.657  0.00  0.00    +0.000 N 
ATOM     25  H   UNL     1       0.851   4.114  21.971  0.00  0.00    +0.000 HD
ATOM     26  H   UNL     1       1.876   2.953  21.291  0.00  0.00    +0.000 HD
ENDBRANCH   5  24
BRANCH   4  27
ATOM     27  C   UNL     1       3.698   3.031  19.740  0.00  0.00    +0.000 C 
ATOM     28  N   UNL     1       4.093   1.940  19.776  0.00  0.00    +0.000 NA
ENDBRANCH   4  27
TORSDOF 5
ENDMDL
MODEL 3
REMARK VINA RESULT:      -6.1      1.219      2.668
REMARK  Name = 
REMARK  9 active torsions:
REMARK  status: ('A' for Active; 'I' for Inactive)
REMARK    1  A    between atoms: C_1  and  C_2
REMARK    2  A    between atoms: N_4  and  C_5
REMARK    3  A    between atoms: C_6  and  C_7
REMARK    4  A    between atoms: C_8  and  C_9
REMARK    5  A    between atoms: C_11  and  C_12
REMARK    6  A    between atoms: N_15  and  C_16
REMARK    7  A    between atoms: C_17  and  C_18
REMARK    8  A    between atoms: C_21  and  C_22
REMARK    9  A    between atoms: C_24  and  N_25
REMARK                            x       y       z     vdW  Elec       q    Type
REMARK                         _______ _______ _______ _____ _____    ______ ____
ROOT
ATOM      1  C   UNL     1       2.215   6.869  19.702  0.00  0.00    +0.000 A 
ATOM      2  C   UNL     1       3.026   6.503  18.637  0.00  0.00    +0.000 A 
ATOM      3  C   UNL     1       3.639   5.244  18.591  0.00  0.00    +0.000 A 
ATOM      4  C   UNL     1       3.350   4.356  19.637  0.00  0.00    +0.000 A 
ATOM      5  C   UNL     1       2.499   4.785  20.669  0.00  0.00    +0.000 A 
ATOM      6  N   UNL     1       1.954   6.018  20.715  0.00  0.00    +0.000 NA
ENDROOT
BRANCH   1  14
ATOM      7  C   UNL     1       2.161   9.283  17.409  0.00  0.00    +0.000 C 
ATOM      8  C   UNL     1       1.632   9.264  18.797  0.00  0.00    +0.000 A 
ATOM      9  N   UNL     1       1.039  10.366  19.266  0.00  0.00    +0.000 NA
ATOM     10  N   UNL     1       0.609  10.020  20.487  0.00  0.00    +0.000 N 
ATOM     11  C   UNL     1      -0.105  11.006  21.266  0.00  0.00    +0.000 C 
ATOM     12  C   UNL     1       0.921   8.732  20.841  0.00  0.00    +0.000 A 
ATOM     13  C   UNL     1       0.535   8.128  22.144  0.00  0.00    +0.000 C 
ATOM     14  C   UNL     1       1.626   8.206  19.759  0.00  0.00    +0.000 A 
ENDBRANCH   1  14
BRANCH   3  15
ATOM     15  C   UNL     1       4.470   4.897  17.424  0.00  0.00    +0.000 A 
ATOM     16  C   UNL     1       4.073   4.246  16.227  0.00  0.00    +0.000 A 
ATOM     17  N   UNL     1       5.040   4.189  15.316  0.00  0.00    +0.000 NA
ATOM     18  N   UNL     1       6.074   4.813  15.901  0.00  0.00    +0.000 N 
ATOM     19  C   UNL     1       7.322   4.848  15.177  0.00  0.00    +0.000 C 
ATOM     20  C   UNL     1       5.795   5.263  17.172  0.00  0.00    +0.000 A 
BRANCH  20  21
ATOM     21  C   UNL     1       6.721   6.018  18.135  0.00  0.00    +0.000 C 
ATOM     22  C   UNL     1       6.966   5.665  19.579  0.00  0.00    +0.000 C 
ATOM     23  C   UNL     1       7.987   5.294  18.556  0.00  0.00    +0.000 C 
ENDBRANCH  20  21
ENDBRANCH   3  15
BRANCH   5  24
ATOM     24  N   UNL     1       2.069   3.933  21.685  0.00  0.00    +0.000 N 
ATOM     25  H   UNL     1       2.773   3.710  22.380  0.00  0.00    +0.000 HD
ATOM     26  H   UNL     1       1.223   4.321  22.094  0.00  0.00    +0.000 HD
ENDBRANCH   5  24
BRANCH   4  27
ATOM     27  C   UNL     1       3.889   3.032  19.700  0.00  0.00    +0.000 C 
ATOM     28  N   UNL     1       4.330   1.960  19.767  0.00  0.00    +0.000 NA
ENDBRANCH   4  27
TORSDOF 5
ENDMDL
MODEL 4
REMARK VINA RESULT:      -6.0      1.806      6.331
REMARK  Name = 
REMARK  9 active torsions:
REMARK  status: ('A' for Active; 'I' for Inactive)
REMARK    1  A    between atoms: C_1  and  C_2
REMARK    2  A    between atoms: N_4  and  C_5
REMARK    3  A    between atoms: C_6  and  C_7
REMARK    4  A    between atoms: C_8  and  C_9
REMARK    5  A    between atoms: C_11  and  C_12
REMARK    6  A    between atoms: N_15  and  C_16
REMARK    7  A    between atoms: C_17  and  C_18
REMARK    8  A    between atoms: C_21  and  C_22
REMARK    9  A    between atoms: C_24  and  N_25
REMARK                            x       y       z     vdW  Elec       q    Type
REMARK                         _______ _______ _______ _____ _____    ______ ____
ROOT
ATOM      1  C   UNL     1       4.624   4.559  17.172  0.00  0.00    +0.000 A 
ATOM      2  C   UNL     1       3.980   5.486  17.978  0.00  0.00    +0.000 A 
ATOM      3  C   UNL     1       2.850   5.133  18.729  0.00  0.00    +0.000 A 
ATOM      4  C   UNL     1       2.440   3.793  18.672  0.00  0.00    +0.000 A 
ATOM      5  C   UNL     1       3.155   2.904  17.854  0.00  0.00    +0.000 A 
ATOM      6  N   UNL     1       4.215   3.276  17.105  0.00  0.00    +0.000 NA
ENDROOT
BRANCH   1  14
ATOM      7  C   UNL     1       7.371   6.243  18.011  0.00  0.00    +0.000 C 
ATOM      8  C   UNL     1       6.932   5.715  16.694  0.00  0.00    +0.000 A 
ATOM      9  N   UNL     1       7.716   5.927  15.633  0.00  0.00    +0.000 NA
ATOM     10  N   UNL     1       7.105   5.279  14.632  0.00  0.00    +0.000 N 
ATOM     11  C   UNL     1       7.722   5.299  13.325  0.00  0.00    +0.000 C 
ATOM     12  C   UNL     1       5.934   4.666  15.000  0.00  0.00    +0.000 A 
ATOM     13  C   UNL     1       5.093   3.880  14.059  0.00  0.00    +0.000 C 
ATOM     14  C   UNL     1       5.769   4.958  16.354  0.00  0.00    +0.000 A 
ENDBRANCH   1  14
BRANCH   3  15
ATOM     15  C   UNL     1       2.219   6.151  19.589  0.00  0.00    +0.000 A 
ATOM     16  C   UNL     1       1.954   6.080  20.981  0.00  0.00    +0.000 A 
ATOM     17  N   UNL     1       1.483   7.217  21.484  0.00  0.00    +0.000 NA
ATOM     18  N   UNL     1       1.447   8.048  20.430  0.00  0.00    +0.000 N 
ATOM     19  C   UNL     1       0.898   9.365  20.642  0.00  0.00    +0.000 C 
ATOM     20  C   UNL     1       1.878   7.465  19.259  0.00  0.00    +0.000 A 
BRANCH  20  21
ATOM     21  C   UNL     1       1.981   8.101  17.866  0.00  0.00    +0.000 C 
ATOM     22  C   UNL     1       2.073   9.577  17.577  0.00  0.00    +0.000 C 
ATOM     23  C   UNL     1       3.310   8.745  17.516  0.00  0.00    +0.000 C 
ENDBRANCH  20  21
ENDBRANCH   3  15
BRANCH   5  24
ATOM     24  N   UNL     1       2.888   1.537  17.824  0.00  0.00    +0.000 N 
ATOM     25  H   UNL     1       2.376   1.185  18.626  0.00  0.00    +0.000 HD
ATOM     26  H   UNL     1       2.435   1.316  16.941  0.00  0.00    +0.000 HD
ENDBRANCH   5  24
BRANCH   4  27
ATOM     27  C   UNL     1       1.318   3.295  19.408  0.00  0.00    +0.000 C 
ATOM     28  N   UNL     1       0.398   2.895  19.992  0.00  0.00    +0.000 NA
ENDBRANCH   4  27
TORSDOF 5
ENDMDL
MODEL 5
REMARK VINA RESULT:      -6.0      3.725      8.899
REMARK  Name = 
REMARK  9 active torsions:
REMARK  status: ('A' for Active; 'I' for Inactive)
REMARK    1  A    between atoms: C_1  and  C_2
REMARK    2  A    between atoms: N_4  and  C_5
REMARK    3  A    between atoms: C_6  and  C_7
REMARK    4  A    between atoms: C_8  and  C_9
REMARK    5  A    between atoms: C_11  and  C_12
REMARK    6  A    between atoms: N_15  and  C_16
REMARK    7  A    between atoms: C_17  and  C_18
REMARK    8  A    between atoms: C_21  and  C_22
REMARK    9  A    between atoms: C_24  and  N_25
REMARK                            x       y       z     vdW  Elec       q    Type
REMARK                         _______ _______ _______ _____ _____    ______ ____
ROOT
ATOM      1  C   UNL     1       0.750  11.017  19.766  0.00  0.00    +0.000 A 
ATOM      2  C   UNL     1       1.330  12.042  20.500  0.00  0.00    +0.000 A 
ATOM      3  C   UNL     1       1.093  13.386  20.182  0.00  0.00    +0.000 A 
ATOM      4  C   UNL     1       0.202  13.645  19.131  0.00  0.00    +0.000 A 
ATOM      5  C   UNL     1      -0.369  12.558  18.449  0.00  0.00    +0.000 A 
ATOM      6  N   UNL     1      -0.092  11.270  18.744  0.00  0.00    +0.000 NA
ENDROOT
BRANCH   1  14
ATOM      7  C   UNL     1      -0.012   9.214  22.460  0.00  0.00    +0.000 C 
ATOM      8  C   UNL     1       0.764   8.849  21.247  0.00  0.00    +0.000 A 
ATOM      9  N   UNL     1       1.277   7.618  21.168  0.00  0.00    +0.000 NA
ATOM     10  N   UNL     1       1.841   7.568  19.953  0.00  0.00    +0.000 N 
ATOM     11  C   UNL     1       2.479   6.337  19.545  0.00  0.00    +0.000 C 
ATOM     12  C   UNL     1       1.732   8.736  19.243  0.00  0.00    +0.000 A 
ATOM     13  C   UNL     1       2.273   8.908  17.868  0.00  0.00    +0.000 C 
ATOM     14  C   UNL     1       1.051   9.621  20.078  0.00  0.00    +0.000 A 
ENDBRANCH   1  14
BRANCH   3  15
ATOM     15  C   UNL     1       1.715  14.435  21.010  0.00  0.00    +0.000 A 
ATOM     16  C   UNL     1       1.222  15.012  22.210  0.00  0.00    +0.000 A 
ATOM     17  N   UNL     1       2.082  15.851  22.780  0.00  0.00    +0.000 NA
ATOM     18  N   UNL     1       3.150  15.823  21.967  0.00  0.00    +0.000 N 
ATOM     19  C   UNL     1       4.247  16.706  22.282  0.00  0.00    +0.000 C 
ATOM     20  C   UNL     1       2.992  14.989  20.883  0.00  0.00    +0.000 A 
BRANCH  20  21
ATOM     21  C   UNL     1       3.992  14.700  19.755  0.00  0.00    +0.000 C 
ATOM     22  C   UNL     1       3.643  14.470  18.307  0.00  0.00    +0.000 C 
ATOM     23  C   UNL     1       4.180  15.798  18.725  0.00  0.00    +0.000 C 
ENDBRANCH  20  21
ENDBRANCH   3  15
BRANCH   5  24
ATOM     24  N   UNL     1      -1.348  12.721  17.470  0.00  0.00    +0.000 N 
ATOM     25  H   UNL     1      -1.057  13.262  16.663  0.00  0.00    +0.000 HD
ATOM     26  H   UNL     1      -1.708  11.804  17.219  0.00  0.00    +0.000 HD
ENDBRANCH   5  24
BRANCH   4  27
ATOM     27  C   UNL     1      -0.147  14.971  18.720  0.00  0.00    +0.000 C 
ATOM     28  N   UNL     1      -0.425  16.052  18.402  0.00  0.00    +0.000 NA
ENDBRANCH   4  27
TORSDOF 5
ENDMDL
MODEL 6
REMARK VINA RESULT:      -5.9      5.239     11.135
REMARK  Name = 
REMARK  9 active torsions:
REMARK  status: ('A' for Active; 'I' for Inactive)
REMARK    1  A    between atoms: C_1  and  C_2
REMARK    2  A    between atoms: N_4  and  C_5
REMARK    3  A    between atoms: C_6  and  C_7
REMARK    4  A    between atoms: C_8  and  C_9
REMARK    5  A    between atoms: C_11  and  C_12
REMARK    6  A    between atoms: N_15  and  C_16
REMARK    7  A    between atoms: C_17  and  C_18
REMARK    8  A    between atoms: C_21  and  C_22
REMARK    9  A    between atoms: C_24  and  N_25
REMARK                            x       y       z     vdW  Elec       q    Type
REMARK                         _______ _______ _______ _____ _____    ______ ____
ROOT
ATOM      1  C   UNL     1      -0.639  12.150  21.911  0.00  0.00    +0.000 A 
ATOM      2  C   UNL     1      -1.945  11.957  22.337  0.00  0.00    +0.000 A 
ATOM      3  C   UNL     1      -2.628  12.946  23.057  0.00  0.00    +0.000 A 
ATOM      4  C   UNL     1      -1.951  14.155  23.277  0.00  0.00    +0.000 A 
ATOM      5  C   UNL     1      -0.639  14.290  22.795  0.00  0.00    +0.000 A 
ATOM      6  N   UNL     1       0.015  13.307  22.140  0.00  0.00    +0.000 NA
ENDROOT
BRANCH   1  14
ATOM      7  C   UNL     1       0.480  12.034  18.777  0.00  0.00    +0.000 C 
ATOM      8  C   UNL     1       0.524  11.010  19.852  0.00  0.00    +0.000 A 
ATOM      9  N   UNL     1       1.078   9.825  19.577  0.00  0.00    +0.000 NA
ATOM     10  N   UNL     1       1.040   9.161  20.740  0.00  0.00    +0.000 N 
ATOM     11  C   UNL     1       1.591   7.825  20.785  0.00  0.00    +0.000 C 
ATOM     12  C   UNL     1       0.459   9.866  21.763  0.00  0.00    +0.000 A 
ATOM     13  C   UNL     1       0.318   9.333  23.144  0.00  0.00    +0.000 C 
ATOM     14  C   UNL     1       0.076  11.086  21.207  0.00  0.00    +0.000 A 
ENDBRANCH   1  14
BRANCH   3  15
ATOM     15  C   UNL     1      -4.023  12.699  23.462  0.00  0.00    +0.000 A 
ATOM     16  C   UNL     1      -4.505  12.258  24.722  0.00  0.00    +0.000 A 
ATOM     17  N   UNL     1      -5.832  12.250  24.802  0.00  0.00    +0.000 NA
ATOM     18  N   UNL     1      -6.232  12.696  23.601  0.00  0.00    +0.000 N 
ATOM     19  C   UNL     1      -7.652  12.728  23.346  0.00  0.00    +0.000 C 
ATOM     20  C   UNL     1      -5.190  12.985  22.749  0.00  0.00    +0.000 A 
BRANCH  20  21
ATOM     21  C   UNL     1      -5.261  13.516  21.311  0.00  0.00    +0.000 C 
ATOM     22  C   UNL     1      -4.404  13.059  20.160  0.00  0.00    +0.000 C 
ATOM     23  C   UNL     1      -5.806  12.560  20.266  0.00  0.00    +0.000 C 
ENDBRANCH  20  21
ENDBRANCH   3  15
BRANCH   5  24
ATOM     24  N   UNL     1       0.064  15.491  22.869  0.00  0.00    +0.000 N 
ATOM     25  H   UNL     1       0.276  15.804  23.810  0.00  0.00    +0.000 HD
ATOM     26  H   UNL     1       0.892  15.416  22.283  0.00  0.00    +0.000 HD
ENDBRANCH   5  24
BRANCH   4  27
ATOM     27  C   UNL     1      -2.540  15.256  23.976  0.00  0.00    +0.000 C 
ATOM     28  N   UNL     1      -3.019  16.158  24.529  0.00  0.00    +0.000 NA
ENDBRANCH   4  27
TORSDOF 5
ENDMDL
MODEL 7
REMARK VINA RESULT:      -5.9      5.088     10.872
REMARK  Name = 
REMARK  9 active torsions:
REMARK  status: ('A' for Active; 'I' for Inactive)
REMARK    1  A    between atoms: C_1  and  C_2
REMARK    2  A    between atoms: N_4  and  C_5
REMARK    3  A    between atoms: C_6  and  C_7
REMARK    4  A    between atoms: C_8  and  C_9
REMARK    5  A    between atoms: C_11  and  C_12
REMARK    6  A    between atoms: N_15  and  C_16
REMARK    7  A    between atoms: C_17  and  C_18
REMARK    8  A    between atoms: C_21  and  C_22
REMARK    9  A    between atoms: C_24  and  N_25
REMARK                            x       y       z     vdW  Elec       q    Type
REMARK                         _______ _______ _______ _____ _____    ______ ____
ROOT
ATOM      1  C   UNL     1      -0.533  12.067  21.679  0.00  0.00    +0.000 A 
ATOM      2  C   UNL     1      -1.827  11.899  22.152  0.00  0.00    +0.000 A 
ATOM      3  C   UNL     1      -2.451  12.888  22.925  0.00  0.00    +0.000 A 
ATOM      4  C   UNL     1      -1.732  14.071  23.147  0.00  0.00    +0.000 A 
ATOM      5  C   UNL     1      -0.437  14.183  22.616  0.00  0.00    +0.000 A 
ATOM      6  N   UNL     1       0.162  13.200  21.911  0.00  0.00    +0.000 NA
ENDROOT
BRANCH   1  14
ATOM      7  C   UNL     1       0.733   9.167  22.715  0.00  0.00    +0.000 C 
ATOM      8  C   UNL     1       0.704   9.774  21.360  0.00  0.00    +0.000 A 
ATOM      9  N   UNL     1       1.272   9.104  20.352  0.00  0.00    +0.000 NA
ATOM     10  N   UNL     1       1.022   9.853  19.270  0.00  0.00    +0.000 N 
ATOM     11  C   UNL     1       1.497   9.385  17.988  0.00  0.00    +0.000 C 
ATOM     12  C   UNL     1       0.325  11.004  19.540  0.00  0.00    +0.000 A 
ATOM     13  C   UNL     1      -0.074  11.980  18.493  0.00  0.00    +0.000 C 
ATOM     14  C   UNL     1       0.122  11.003  20.920  0.00  0.00    +0.000 A 
ENDBRANCH   1  14
BRANCH   3  15
ATOM     15  C   UNL     1      -3.835  12.669  23.380  0.00  0.00    +0.000 A 
ATOM     16  C   UNL     1      -4.283  12.277  24.668  0.00  0.00    +0.000 A 
ATOM     17  N   UNL     1      -5.607  12.284  24.788  0.00  0.00    +0.000 NA
ATOM     18  N   UNL     1      -6.040  12.691  23.584  0.00  0.00    +0.000 N 
ATOM     19  C   UNL     1      -7.466  12.728  23.370  0.00  0.00    +0.000 C 
ATOM     20  C   UNL     1      -5.021  12.939  22.692  0.00  0.00    +0.000 A 
BRANCH  20  21
ATOM     21  C   UNL     1      -5.131  13.420  21.238  0.00  0.00    +0.000 C 
ATOM     22  C   UNL     1      -4.407  12.827  20.058  0.00  0.00    +0.000 C 
ATOM     23  C   UNL     1      -5.845  12.490  20.274  0.00  0.00    +0.000 C 
ENDBRANCH  20  21
ENDBRANCH   3  15
BRANCH   5  24
ATOM     24  N   UNL     1       0.303  15.361  22.692  0.00  0.00    +0.000 N 
ATOM     25  H   UNL     1       1.023  15.459  21.984  0.00  0.00    +0.000 HD
ATOM     26  H   UNL     1      -0.344  16.147  22.706  0.00  0.00    +0.000 HD
ENDBRANCH   5  24
BRANCH   4  27
ATOM     27  C   UNL     1      -2.261  15.169  23.897  0.00  0.00    +0.000 C 
ATOM     28  N   UNL     1      -2.700  16.049  24.515  0.00  0.00    +0.000 NA
ENDBRANCH   4  27
TORSDOF 5
ENDMDL
MODEL 8
REMARK VINA RESULT:      -5.9      4.353     10.490
REMARK  Name = 
REMARK  9 active torsions:
REMARK  status: ('A' for Active; 'I' for Inactive)
REMARK    1  A    between atoms: C_1  and  C_2
REMARK    2  A    between atoms: N_4  and  C_5
REMARK    3  A    between atoms: C_6  and  C_7
REMARK    4  A    between atoms: C_8  and  C_9
REMARK    5  A    between atoms: C_11  and  C_12
REMARK    6  A    between atoms: N_15  and  C_16
REMARK    7  A    between atoms: C_17  and  C_18
REMARK    8  A    between atoms: C_21  and  C_22
REMARK    9  A    between atoms: C_24  and  N_25
REMARK                            x       y       z     vdW  Elec       q    Type
REMARK                         _______ _______ _______ _____ _____    ______ ____
ROOT
ATOM      1  C   UNL     1      -0.131  11.410  20.568  0.00  0.00    +0.000 A 
ATOM      2  C   UNL     1      -1.514  11.520  20.611  0.00  0.00    +0.000 A 
ATOM      3  C   UNL     1      -2.143  12.771  20.595  0.00  0.00    +0.000 A 
ATOM      4  C   UNL     1      -1.317  13.899  20.477  0.00  0.00    +0.000 A 
ATOM      5  C   UNL     1       0.073  13.711  20.413  0.00  0.00    +0.000 A 
ATOM      6  N   UNL     1       0.661  12.498  20.473  0.00  0.00    +0.000 NA
ENDROOT
BRANCH   1  14
ATOM      7  C   UNL     1       0.244   9.349  23.157  0.00  0.00    +0.000 C 
ATOM      8  C   UNL     1       0.713   9.225  21.753  0.00  0.00    +0.000 A 
ATOM      9  N   UNL     1       1.414   8.139  21.412  0.00  0.00    +0.000 NA
ATOM     10  N   UNL     1       1.621   8.275  20.096  0.00  0.00    +0.000 N 
ATOM     11  C   UNL     1       2.350   7.235  19.406  0.00  0.00    +0.000 C 
ATOM     12  C   UNL     1       1.095   9.426  19.567  0.00  0.00    +0.000 A 
ATOM     13  C   UNL     1       1.194   9.781  18.126  0.00  0.00    +0.000 C 
ATOM     14  C   UNL     1       0.511  10.098  20.640  0.00  0.00    +0.000 A 
ENDBRANCH   1  14
BRANCH   3  15
ATOM     15  C   UNL     1      -3.616  12.829  20.616  0.00  0.00    +0.000 A 
ATOM     16  C   UNL     1      -4.519  12.579  19.550  0.00  0.00    +0.000 A 
ATOM     17  N   UNL     1      -5.793  12.597  19.927  0.00  0.00    +0.000 NA
ATOM     18  N   UNL     1      -5.738  12.846  21.245  0.00  0.00    +0.000 N 
ATOM     19  C   UNL     1      -6.992  13.005  21.943  0.00  0.00    +0.000 C 
ATOM     20  C   UNL     1      -4.455  12.996  21.721  0.00  0.00    +0.000 A 
BRANCH  20  21
ATOM     21  C   UNL     1      -4.006  13.281  23.160  0.00  0.00    +0.000 C 
ATOM     22  C   UNL     1      -4.567  12.637  24.401  0.00  0.00    +0.000 C 
ATOM     23  C   UNL     1      -3.257  12.165  23.865  0.00  0.00    +0.000 C 
ENDBRANCH  20  21
ENDBRANCH   3  15
BRANCH   5  24
ATOM     24  N   UNL     1       0.958  14.763  20.182  0.00  0.00    +0.000 N 
ATOM     25  H   UNL     1       1.173  14.932  19.206  0.00  0.00    +0.000 HD
ATOM     26  H   UNL     1       0.606  15.590  20.657  0.00  0.00    +0.000 HD
ENDBRANCH   5  24
BRANCH   4  27
ATOM     27  C   UNL     1      -1.832  15.233  20.424  0.00  0.00    +0.000 C 
ATOM     28  N   UNL     1      -2.255  16.313  20.366  0.00  0.00    +0.000 NA
ENDBRANCH   4  27
TORSDOF 5
ENDMDL
MODEL 9
REMARK VINA RESULT:      -5.8      0.492      1.684
REMARK  Name = 
REMARK  9 active torsions:
REMARK  status: ('A' for Active; 'I' for Inactive)
REMARK    1  A    between atoms: C_1  and  C_2
REMARK    2  A    between atoms: N_4  and  C_5
REMARK    3  A    between atoms: C_6  and  C_7
REMARK    4  A    between atoms: C_8  and  C_9
REMARK    5  A    between atoms: C_11  and  C_12
REMARK    6  A    between atoms: N_15  and  C_16
REMARK    7  A    between atoms: C_17  and  C_18
REMARK    8  A    between atoms: C_21  and  C_22
REMARK    9  A    between atoms: C_24  and  N_25
REMARK                            x       y       z     vdW  Elec       q    Type
REMARK                         _______ _______ _______ _____ _____    ______ ____
ROOT
ATOM      1  C   UNL     1       2.039   7.102  19.998  0.00  0.00    +0.000 A 
ATOM      2  C   UNL     1       3.315   6.880  19.500  0.00  0.00    +0.000 A 
ATOM      3  C   UNL     1       3.891   5.603  19.526  0.00  0.00    +0.000 A 
ATOM      4  C   UNL     1       3.100   4.557  20.024  0.00  0.00    +0.000 A 
ATOM      5  C   UNL     1       1.808   4.851  20.488  0.00  0.00    +0.000 A 
ATOM      6  N   UNL     1       1.289   6.097  20.493  0.00  0.00    +0.000 NA
ENDROOT
BRANCH   1  14
ATOM      7  C   UNL     1       1.279   9.130  17.469  0.00  0.00    +0.000 C 
ATOM      8  C   UNL     1       1.182   9.345  18.935  0.00  0.00    +0.000 A 
ATOM      9  N   UNL     1       0.737  10.526  19.376  0.00  0.00    +0.000 NA
ATOM     10  N   UNL     1       0.690  10.389  20.708  0.00  0.00    +0.000 N 
ATOM     11  C   UNL     1       0.223  11.507  21.495  0.00  0.00    +0.000 C 
ATOM     12  C   UNL     1       1.111   9.162  21.155  0.00  0.00    +0.000 A 
ATOM     13  C   UNL     1       1.133   8.782  22.592  0.00  0.00    +0.000 C 
ATOM     14  C   UNL     1       1.474   8.451  20.012  0.00  0.00    +0.000 A 
ENDBRANCH   1  14
BRANCH   3  15
ATOM     15  C   UNL     1       5.239   5.417  18.959  0.00  0.00    +0.000 A 
ATOM     16  C   UNL     1       6.484   5.414  19.641  0.00  0.00    +0.000 A 
ATOM     17  N   UNL     1       7.510   5.098  18.858  0.00  0.00    +0.000 NA
ATOM     18  N   UNL     1       6.948   4.881  17.658  0.00  0.00    +0.000 N 
ATOM     19  C   UNL     1       7.831   4.588  16.555  0.00  0.00    +0.000 C 
ATOM     20  C   UNL     1       5.582   5.056  17.654  0.00  0.00    +0.000 A 
BRANCH  20  21
ATOM     21  C   UNL     1       4.610   4.891  16.478  0.00  0.00    +0.000 C 
ATOM     22  C   UNL     1       4.819   4.000  15.281  0.00  0.00    +0.000 C 
ATOM     23  C   UNL     1       3.904   3.552  16.371  0.00  0.00    +0.000 C 
ENDBRANCH  20  21
ENDBRANCH   3  15
BRANCH   5  24
ATOM     24  N   UNL     1       0.916   3.860  20.893  0.00  0.00    +0.000 N 
ATOM     25  H   UNL     1       0.300   4.126  21.654  0.00  0.00    +0.000 HD
ATOM     26  H   UNL     1       0.410   3.529  20.075  0.00  0.00    +0.000 HD
ENDBRANCH   5  24
BRANCH   4  27
ATOM     27  C   UNL     1       3.557   3.202  20.084  0.00  0.00    +0.000 C 
ATOM     28  N   UNL     1       3.932   2.105  20.148  0.00  0.00    +0.000 NA
ENDBRANCH   4  27
TORSDOF 5
ENDMDL
