MODEL 1
REMARK VINA RESULT:      -7.1      0.000      0.000
REMARK  Name = 
REMARK  5 active torsions:
REMARK  status: ('A' for Active; 'I' for Inactive)
REMARK    1  A    between atoms: S_2  and  N_4
REMARK    2  A    between atoms: S_2  and  N_12
REMARK    3  A    between atoms: N_4  and  C_5
REMARK    4  A    between atoms: C_5  and  C_6
REMARK    5  A    between atoms: C_6  and  C_7
REMARK                            x       y       z     vdW  Elec       q    Type
REMARK                         _______ _______ _______ _____ _____    ______ ____
ROOT
ATOM      1  O   UNL     1       2.192   3.209  16.963  0.00  0.00    +0.000 OA
ATOM      2  S   UNL     1       3.144   2.668  17.906  0.00  0.00    +0.000 S 
ATOM      3  O   UNL     1       3.159   1.273  18.269  0.00  0.00    +0.000 OA
ENDROOT
BRANCH   2   4
ATOM      4  N   UNL     1       3.140   3.599  19.294  0.00  0.00    +0.000 NA
ATOM      5  C   UNL     1       3.570   2.968  20.574  0.00  0.00    +0.000 C 
ATOM      6  C   UNL     1       2.445   3.380  21.536  0.00  0.00    +0.000 C 
ATOM      7  C   UNL     1       1.136   2.683  21.109  0.00  0.00    +0.000 C 
ATOM      8  C   UNL     1       0.711   3.482  19.865  0.00  0.00    +0.000 C 
ATOM      9  C   UNL     1       1.917   4.400  19.635  0.00  0.00    +0.000 C 
ATOM     10  C   UNL     1       2.218   4.819  21.081  0.00  0.00    +0.000 C 
ENDBRANCH   2   4
BRANCH   2  11
ATOM     11  N   UNL     1       4.692   3.035  17.371  0.00  0.00    +0.000 NA
ATOM     12  H   UNL     1       5.132   2.173  17.061  0.00  0.00    +0.000 HD
BRANCH  11  13
ATOM     13  C   UNL     1       4.768   4.092  16.331  0.00  0.00    +0.000 C 
BRANCH  13  14
ATOM     14  C   UNL     1       5.147   5.434  16.972  0.00  0.00    +0.000 C 
BRANCH  14  15
ATOM     15  C   UNL     1       6.199   5.311  18.019  0.00  0.00    +0.000 A 
ATOM     16  C   UNL     1       7.546   4.917  17.858  0.00  0.00    +0.000 A 
ATOM     17  N   UNL     1       8.217   4.914  19.011  0.00  0.00    +0.000 NA
ATOM     18  O   UNL     1       7.292   5.296  19.970  0.00  0.00    +0.000 OA
ATOM     19  C   UNL     1       6.097   5.529  19.372  0.00  0.00    +0.000 A 
ENDBRANCH  14  15
ENDBRANCH  13  14
ENDBRANCH  11  13
ENDBRANCH   2  11
TORSDOF 5
ENDMDL
MODEL 2
REMARK VINA RESULT:      -6.9      1.835      2.183
REMARK  Name = 
REMARK  5 active torsions:
REMARK  status: ('A' for Active; 'I' for Inactive)
REMARK    1  A    between atoms: S_2  and  N_4
REMARK    2  A    between atoms: S_2  and  N_12
REMARK    3  A    between atoms: N_4  and  C_5
REMARK    4  A    between atoms: C_5  and  C_6
REMARK    5  A    between atoms: C_6  and  C_7
REMARK                            x       y       z     vdW  Elec       q    Type
REMARK                         _______ _______ _______ _____ _____    ______ ____
ROOT
ATOM      1  O   UNL     1       3.410   1.435  18.591  0.00  0.00    +0.000 OA
ATOM      2  S   UNL     1       4.226   2.256  19.455  0.00  0.00    +0.000 S 
ATOM      3  O   UNL     1       5.195   1.692  20.362  0.00  0.00    +0.000 OA
ENDROOT
BRANCH   2   4
ATOM      4  N   UNL     1       3.249   3.326  20.288  0.00  0.00    +0.000 NA
ATOM      5  C   UNL     1       2.267   2.779  21.266  0.00  0.00    +0.000 C 
ATOM      6  C   UNL     1       0.974   3.512  20.876  0.00  0.00    +0.000 C 
ATOM      7  C   UNL     1       0.528   3.037  19.477  0.00  0.00    +0.000 C 
ATOM      8  C   UNL     1       1.516   3.752  18.540  0.00  0.00    +0.000 C 
ATOM      9  C   UNL     1       2.506   4.384  19.526  0.00  0.00    +0.000 C 
ATOM     10  C   UNL     1       1.532   4.904  20.592  0.00  0.00    +0.000 C 
ENDBRANCH   2   4
BRANCH   2  11
ATOM     11  N   UNL     1       5.054   3.368  18.509  0.00  0.00    +0.000 NA
ATOM     12  H   UNL     1       6.047   3.272  18.705  0.00  0.00    +0.000 HD
BRANCH  11  13
ATOM     13  C   UNL     1       4.776   3.291  17.053  0.00  0.00    +0.000 C 
BRANCH  13  14
ATOM     14  C   UNL     1       4.485   4.694  16.500  0.00  0.00    +0.000 C 
BRANCH  14  15
ATOM     15  C   UNL     1       5.665   5.600  16.540  0.00  0.00    +0.000 A 
ATOM     16  C   UNL     1       5.762   6.877  17.136  0.00  0.00    +0.000 A 
ATOM     17  N   UNL     1       6.972   7.419  16.985  0.00  0.00    +0.000 NA
ATOM     18  O   UNL     1       7.696   6.490  16.255  0.00  0.00    +0.000 OA
ATOM     19  C   UNL     1       6.913   5.414  15.995  0.00  0.00    +0.000 A 
ENDBRANCH  14  15
ENDBRANCH  13  14
ENDBRANCH  11  13
ENDBRANCH   2  11
TORSDOF 5
ENDMDL
MODEL 3
REMARK VINA RESULT:      -6.9      2.165      2.819
REMARK  Name = 
REMARK  5 active torsions:
REMARK  status: ('A' for Active; 'I' for Inactive)
REMARK    1  A    between atoms: S_2  and  N_4
REMARK    2  A    between atoms: S_2  and  N_12
REMARK    3  A    between atoms: N_4  and  C_5
REMARK    4  A    between atoms: C_5  and  C_6
REMARK    5  A    between atoms: C_6  and  C_7
REMARK                            x       y       z     vdW  Elec       q    Type
REMARK                         _______ _______ _______ _____ _____    ______ ____
ROOT
ATOM      1  O   UNL     1       3.924   6.023  19.434  0.00  0.00    +0.000 OA
ATOM      2  S   UNL     1       4.117   4.664  18.984  0.00  0.00    +0.000 S 
ATOM      3  O   UNL     1       3.747   4.232  17.660  0.00  0.00    +0.000 OA
ENDROOT
BRANCH   2   4
ATOM      4  N   UNL     1       3.469   3.611  20.109  0.00  0.00    +0.000 NA
ATOM      5  C   UNL     1       2.970   2.288  19.638  0.00  0.00    +0.000 C 
ATOM      6  C   UNL     1       1.584   2.208  20.298  0.00  0.00    +0.000 C 
ATOM      7  C   UNL     1       0.667   3.282  19.675  0.00  0.00    +0.000 C 
ATOM      8  C   UNL     1       1.177   4.583  20.317  0.00  0.00    +0.000 C 
ATOM      9  C   UNL     1       2.428   4.112  21.067  0.00  0.00    +0.000 C 
ATOM     10  C   UNL     1       1.906   2.799  21.667  0.00  0.00    +0.000 C 
ENDBRANCH   2   4
BRANCH   2  11
ATOM     11  N   UNL     1       5.735   4.263  19.179  0.00  0.00    +0.000 NA
ATOM     12  H   UNL     1       6.025   3.717  18.372  0.00  0.00    +0.000 HD
BRANCH  11  13
ATOM     13  C   UNL     1       6.647   5.411  19.417  0.00  0.00    +0.000 C 
BRANCH  13  14
ATOM     14  C   UNL     1       7.574   5.603  18.208  0.00  0.00    +0.000 C 
BRANCH  14  15
ATOM     15  C   UNL     1       6.841   5.811  16.930  0.00  0.00    +0.000 A 
ATOM     16  C   UNL     1       6.929   5.052  15.741  0.00  0.00    +0.000 A 
ATOM     17  N   UNL     1       6.129   5.517  14.780  0.00  0.00    +0.000 NA
ATOM     18  O   UNL     1       5.506   6.625  15.331  0.00  0.00    +0.000 OA
ATOM     19  C   UNL     1       5.934   6.792  16.607  0.00  0.00    +0.000 A 
ENDBRANCH  14  15
ENDBRANCH  13  14
ENDBRANCH  11  13
ENDBRANCH   2  11
TORSDOF 5
ENDMDL
MODEL 4
REMARK VINA RESULT:      -6.7      2.032      2.756
REMARK  Name = 
REMARK  5 active torsions:
REMARK  status: ('A' for Active; 'I' for Inactive)
REMARK    1  A    between atoms: S_2  and  N_4
REMARK    2  A    between atoms: S_2  and  N_12
REMARK    3  A    between atoms: N_4  and  C_5
REMARK    4  A    between atoms: C_5  and  C_6
REMARK    5  A    between atoms: C_6  and  C_7
REMARK                            x       y       z     vdW  Elec       q    Type
REMARK                         _______ _______ _______ _____ _____    ______ ____
ROOT
ATOM      1  O   UNL     1       3.312   4.498  17.986  0.00  0.00    +0.000 OA
ATOM      2  S   UNL     1       3.831   3.215  18.399  0.00  0.00    +0.000 S 
ATOM      3  O   UNL     1       4.133   2.167  17.457  0.00  0.00    +0.000 OA
ENDROOT
BRANCH   2   4
ATOM      4  N   UNL     1       2.874   2.598  19.623  0.00  0.00    +0.000 NA
ATOM      5  C   UNL     1       1.434   2.342  19.338  0.00  0.00    +0.000 C 
ATOM      6  C   UNL     1       0.741   3.004  20.539  0.00  0.00    +0.000 C 
ATOM      7  C   UNL     1       0.949   4.531  20.461  0.00  0.00    +0.000 C 
ATOM      8  C   UNL     1       2.416   4.699  20.893  0.00  0.00    +0.000 C 
ATOM      9  C   UNL     1       2.904   3.249  20.975  0.00  0.00    +0.000 C 
ATOM     10  C   UNL     1       1.694   2.594  21.657  0.00  0.00    +0.000 C 
ENDBRANCH   2   4
BRANCH   2  11
ATOM     11  N   UNL     1       5.231   3.468  19.291  0.00  0.00    +0.000 NA
ATOM     12  H   UNL     1       5.893   2.734  19.056  0.00  0.00    +0.000 HD
BRANCH  11  13
ATOM     13  C   UNL     1       5.839   4.816  19.145  0.00  0.00    +0.000 C 
BRANCH  13  14
ATOM     14  C   UNL     1       6.975   4.770  18.114  0.00  0.00    +0.000 C 
BRANCH  14  15
ATOM     15  C   UNL     1       6.574   5.274  16.772  0.00  0.00    +0.000 A 
ATOM     16  C   UNL     1       5.677   6.322  16.467  0.00  0.00    +0.000 A 
ATOM     17  N   UNL     1       5.544   6.512  15.153  0.00  0.00    +0.000 NA
ATOM     18  O   UNL     1       6.356   5.556  14.564  0.00  0.00    +0.000 OA
ATOM     19  C   UNL     1       6.963   4.826  15.532  0.00  0.00    +0.000 A 
ENDBRANCH  14  15
ENDBRANCH  13  14
ENDBRANCH  11  13
ENDBRANCH   2  11
TORSDOF 5
ENDMDL
MODEL 5
REMARK VINA RESULT:      -6.7      1.988      2.442
REMARK  Name = 
REMARK  5 active torsions:
REMARK  status: ('A' for Active; 'I' for Inactive)
REMARK    1  A    between atoms: S_2  and  N_4
REMARK    2  A    between atoms: S_2  and  N_12
REMARK    3  A    between atoms: N_4  and  C_5
REMARK    4  A    between atoms: C_5  and  C_6
REMARK    5  A    between atoms: C_6  and  C_7
REMARK                            x       y       z     vdW  Elec       q    Type
REMARK                         _______ _______ _______ _____ _____    ______ ____
ROOT
ATOM      1  O   UNL     1       3.625   1.400  18.545  0.00  0.00    +0.000 OA
ATOM      2  S   UNL     1       4.341   2.289  19.429  0.00  0.00    +0.000 S 
ATOM      3  O   UNL     1       5.230   1.803  20.455  0.00  0.00    +0.000 OA
ENDROOT
BRANCH   2   4
ATOM      4  N   UNL     1       3.272   3.385  20.099  0.00  0.00    +0.000 NA
ATOM      5  C   UNL     1       2.397   2.932  21.216  0.00  0.00    +0.000 C 
ATOM      6  C   UNL     1       1.013   3.428  20.769  0.00  0.00    +0.000 C 
ATOM      7  C   UNL     1       0.579   2.645  19.512  0.00  0.00    +0.000 C 
ATOM      8  C   UNL     1       1.442   3.271  18.403  0.00  0.00    +0.000 C 
ATOM      9  C   UNL     1       2.382   4.187  19.194  0.00  0.00    +0.000 C 
ATOM     10  C   UNL     1       1.390   4.792  20.197  0.00  0.00    +0.000 C 
ENDBRANCH   2   4
BRANCH   2  11
ATOM     11  N   UNL     1       5.236   3.361  18.496  0.00  0.00    +0.000 NA
ATOM     12  H   UNL     1       4.706   3.564  17.653  0.00  0.00    +0.000 HD
BRANCH  11  13
ATOM     13  C   UNL     1       5.655   4.605  19.190  0.00  0.00    +0.000 C 
BRANCH  13  14
ATOM     14  C   UNL     1       5.342   5.826  18.314  0.00  0.00    +0.000 C 
BRANCH  14  15
ATOM     15  C   UNL     1       5.940   5.744  16.953  0.00  0.00    +0.000 A 
ATOM     16  C   UNL     1       7.274   5.432  16.605  0.00  0.00    +0.000 A 
ATOM     17  N   UNL     1       7.472   5.448  15.286  0.00  0.00    +0.000 NA
ATOM     18  O   UNL     1       6.248   5.796  14.739  0.00  0.00    +0.000 OA
ATOM     19  C   UNL     1       5.345   5.970  15.735  0.00  0.00    +0.000 A 
ENDBRANCH  14  15
ENDBRANCH  13  14
ENDBRANCH  11  13
ENDBRANCH   2  11
TORSDOF 5
ENDMDL
MODEL 6
REMARK VINA RESULT:      -6.6      1.041      1.123
REMARK  Name = 
REMARK  5 active torsions:
REMARK  status: ('A' for Active; 'I' for Inactive)
REMARK    1  A    between atoms: S_2  and  N_4
REMARK    2  A    between atoms: S_2  and  N_12
REMARK    3  A    between atoms: N_4  and  C_5
REMARK    4  A    between atoms: C_5  and  C_6
REMARK    5  A    between atoms: C_6  and  C_7
REMARK                            x       y       z     vdW  Elec       q    Type
REMARK                         _______ _______ _______ _____ _____    ______ ____
ROOT
ATOM      1  O   UNL     1       2.233   2.339  17.082  0.00  0.00    +0.000 OA
ATOM      2  S   UNL     1       3.305   2.448  18.044  0.00  0.00    +0.000 S 
ATOM      3  O   UNL     1       3.793   1.312  18.785  0.00  0.00    +0.000 OA
ENDROOT
BRANCH   2   4
ATOM      4  N   UNL     1       2.974   3.697  19.104  0.00  0.00    +0.000 NA
ATOM      5  C   UNL     1       3.553   3.637  20.475  0.00  0.00    +0.000 C 
ATOM      6  C   UNL     1       2.333   3.945  21.358  0.00  0.00    +0.000 C 
ATOM      7  C   UNL     1       1.323   2.784  21.245  0.00  0.00    +0.000 C 
ATOM      8  C   UNL     1       0.695   3.009  19.859  0.00  0.00    +0.000 C 
ATOM      9  C   UNL     1       1.553   4.144  19.288  0.00  0.00    +0.000 C 
ATOM     10  C   UNL     1       1.672   5.042  20.528  0.00  0.00    +0.000 C 
ENDBRANCH   2   4
BRANCH   2  11
ATOM     11  N   UNL     1       4.639   3.124  17.280  0.00  0.00    +0.000 NA
ATOM     12  H   UNL     1       4.816   2.597  16.429  0.00  0.00    +0.000 HD
BRANCH  11  13
ATOM     13  C   UNL     1       4.543   4.581  17.011  0.00  0.00    +0.000 C 
BRANCH  13  14
ATOM     14  C   UNL     1       5.844   5.082  16.367  0.00  0.00    +0.000 C 
BRANCH  14  15
ATOM     15  C   UNL     1       6.764   5.742  17.333  0.00  0.00    +0.000 A 
ATOM     16  C   UNL     1       7.362   5.186  18.486  0.00  0.00    +0.000 A 
ATOM     17  N   UNL     1       8.135   6.061  19.131  0.00  0.00    +0.000 NA
ATOM     18  O   UNL     1       8.038   7.236  18.404  0.00  0.00    +0.000 OA
ATOM     19  C   UNL     1       7.222   7.038  17.339  0.00  0.00    +0.000 A 
ENDBRANCH  14  15
ENDBRANCH  13  14
ENDBRANCH  11  13
ENDBRANCH   2  11
TORSDOF 5
ENDMDL
MODEL 7
REMARK VINA RESULT:      -6.6      2.948      3.886
REMARK  Name = 
REMARK  5 active torsions:
REMARK  status: ('A' for Active; 'I' for Inactive)
REMARK    1  A    between atoms: S_2  and  N_4
REMARK    2  A    between atoms: S_2  and  N_12
REMARK    3  A    between atoms: N_4  and  C_5
REMARK    4  A    between atoms: C_5  and  C_6
REMARK    5  A    between atoms: C_6  and  C_7
REMARK                            x       y       z     vdW  Elec       q    Type
REMARK                         _______ _______ _______ _____ _____    ______ ____
ROOT
ATOM      1  O   UNL     1       5.555   4.076  19.553  0.00  0.00    +0.000 OA
ATOM      2  S   UNL     1       4.423   4.766  18.981  0.00  0.00    +0.000 S 
ATOM      3  O   UNL     1       3.816   5.909  19.616  0.00  0.00    +0.000 OA
ENDROOT
BRANCH   2   4
ATOM      4  N   UNL     1       3.235   3.656  18.593  0.00  0.00    +0.000 NA
ATOM      5  C   UNL     1       1.899   4.163  18.171  0.00  0.00    +0.000 C 
ATOM      6  C   UNL     1       0.944   3.329  19.040  0.00  0.00    +0.000 C 
ATOM      7  C   UNL     1       1.130   3.728  20.519  0.00  0.00    +0.000 C 
ATOM      8  C   UNL     1       2.462   3.055  20.891  0.00  0.00    +0.000 C 
ATOM      9  C   UNL     1       2.952   2.525  19.539  0.00  0.00    +0.000 C 
ATOM     10  C   UNL     1       1.638   1.971  18.972  0.00  0.00    +0.000 C 
ENDBRANCH   2   4
BRANCH   2  11
ATOM     11  N   UNL     1       4.823   5.248  17.423  0.00  0.00    +0.000 NA
ATOM     12  H   UNL     1       4.981   6.252  17.433  0.00  0.00    +0.000 HD
BRANCH  11  13
ATOM     13  C   UNL     1       5.965   4.522  16.810  0.00  0.00    +0.000 C 
BRANCH  13  14
ATOM     14  C   UNL     1       5.513   3.830  15.517  0.00  0.00    +0.000 C 
BRANCH  14  15
ATOM     15  C   UNL     1       6.313   4.226  14.325  0.00  0.00    +0.000 A 
ATOM     16  C   UNL     1       7.254   5.275  14.217  0.00  0.00    +0.000 A 
ATOM     17  N   UNL     1       7.791   5.353  12.999  0.00  0.00    +0.000 NA
ATOM     18  O   UNL     1       7.182   4.346  12.268  0.00  0.00    +0.000 OA
ATOM     19  C   UNL     1       6.306   3.682  13.063  0.00  0.00    +0.000 A 
ENDBRANCH  14  15
ENDBRANCH  13  14
ENDBRANCH  11  13
ENDBRANCH   2  11
TORSDOF 5
ENDMDL
MODEL 8
REMARK VINA RESULT:      -6.6      1.966      2.698
REMARK  Name = 
REMARK  5 active torsions:
REMARK  status: ('A' for Active; 'I' for Inactive)
REMARK    1  A    between atoms: S_2  and  N_4
REMARK    2  A    between atoms: S_2  and  N_12
REMARK    3  A    between atoms: N_4  and  C_5
REMARK    4  A    between atoms: C_5  and  C_6
REMARK    5  A    between atoms: C_6  and  C_7
REMARK                            x       y       z     vdW  Elec       q    Type
REMARK                         _______ _______ _______ _____ _____    ______ ____
ROOT
ATOM      1  O   UNL     1       4.353   2.667  17.329  0.00  0.00    +0.000 OA
ATOM      2  S   UNL     1       4.106   3.480  18.498  0.00  0.00    +0.000 S 
ATOM      3  O   UNL     1       5.159   3.866  19.403  0.00  0.00    +0.000 OA
ENDROOT
BRANCH   2   4
ATOM      4  N   UNL     1       2.840   2.825  19.371  0.00  0.00    +0.000 NA
ATOM      5  C   UNL     1       1.453   3.015  18.863  0.00  0.00    +0.000 C 
ATOM      6  C   UNL     1       0.709   3.496  20.119  0.00  0.00    +0.000 C 
ATOM      7  C   UNL     1       1.238   4.891  20.515  0.00  0.00    +0.000 C 
ATOM      8  C   UNL     1       2.607   4.574  21.139  0.00  0.00    +0.000 C 
ATOM      9  C   UNL     1       2.763   3.077  20.849  0.00  0.00    +0.000 C 
ATOM     10  C   UNL     1       1.343   2.589  21.170  0.00  0.00    +0.000 C 
ENDBRANCH   2   4
BRANCH   2  11
ATOM     11  N   UNL     1       3.355   4.900  18.010  0.00  0.00    +0.000 NA
ATOM     12  H   UNL     1       2.479   4.984  18.517  0.00  0.00    +0.000 HD
BRANCH  11  13
ATOM     13  C   UNL     1       4.180   6.128  18.140  0.00  0.00    +0.000 C 
BRANCH  13  14
ATOM     14  C   UNL     1       4.641   6.600  16.754  0.00  0.00    +0.000 C 
BRANCH  14  15
ATOM     15  C   UNL     1       5.727   5.762  16.177  0.00  0.00    +0.000 A 
ATOM     16  C   UNL     1       6.968   5.421  16.760  0.00  0.00    +0.000 A 
ATOM     17  N   UNL     1       7.710   4.650  15.963  0.00  0.00    +0.000 NA
ATOM     18  O   UNL     1       6.956   4.486  14.812  0.00  0.00    +0.000 OA
ATOM     19  C   UNL     1       5.781   5.149  14.947  0.00  0.00    +0.000 A 
ENDBRANCH  14  15
ENDBRANCH  13  14
ENDBRANCH  11  13
ENDBRANCH   2  11
TORSDOF 5
ENDMDL
MODEL 9
REMARK VINA RESULT:      -6.5      1.314      1.613
REMARK  Name = 
REMARK  5 active torsions:
REMARK  status: ('A' for Active; 'I' for Inactive)
REMARK    1  A    between atoms: S_2  and  N_4
REMARK    2  A    between atoms: S_2  and  N_12
REMARK    3  A    between atoms: N_4  and  C_5
REMARK    4  A    between atoms: C_5  and  C_6
REMARK    5  A    between atoms: C_6  and  C_7
REMARK                            x       y       z     vdW  Elec       q    Type
REMARK                         _______ _______ _______ _____ _____    ______ ____
ROOT
ATOM      1  O   UNL     1       3.408   2.219  17.440  0.00  0.00    +0.000 OA
ATOM      2  S   UNL     1       3.949   3.322  18.200  0.00  0.00    +0.000 S 
ATOM      3  O   UNL     1       5.035   3.154  19.134  0.00  0.00    +0.000 OA
ENDROOT
BRANCH   2   4
ATOM      4  N   UNL     1       2.702   4.145  18.947  0.00  0.00    +0.000 NA
ATOM      5  C   UNL     1       3.031   5.066  20.072  0.00  0.00    +0.000 C 
ATOM      6  C   UNL     1       2.015   4.645  21.146  0.00  0.00    +0.000 C 
ATOM      7  C   UNL     1       2.349   3.216  21.623  0.00  0.00    +0.000 C 
ATOM      8  C   UNL     1       1.859   2.342  20.456  0.00  0.00    +0.000 C 
ATOM      9  C   UNL     1       1.488   3.385  19.396  0.00  0.00    +0.000 C 
ATOM     10  C   UNL     1       0.781   4.426  20.276  0.00  0.00    +0.000 C 
ENDBRANCH   2   4
BRANCH   2  11
ATOM     11  N   UNL     1       4.427   4.524  17.129  0.00  0.00    +0.000 NA
ATOM     12  H   UNL     1       4.903   5.248  17.660  0.00  0.00    +0.000 HD
BRANCH  11  13
ATOM     13  C   UNL     1       5.247   4.059  15.982  0.00  0.00    +0.000 C 
BRANCH  13  14
ATOM     14  C   UNL     1       6.413   5.029  15.743  0.00  0.00    +0.000 C 
BRANCH  14  15
ATOM     15  C   UNL     1       7.086   5.462  16.998  0.00  0.00    +0.000 A 
ATOM     16  C   UNL     1       7.676   4.652  17.994  0.00  0.00    +0.000 A 
ATOM     17  N   UNL     1       8.193   5.369  18.993  0.00  0.00    +0.000 NA
ATOM     18  O   UNL     1       7.926   6.689  18.669  0.00  0.00    +0.000 OA
ATOM     19  C   UNL     1       7.269   6.735  17.483  0.00  0.00    +0.000 A 
ENDBRANCH  14  15
ENDBRANCH  13  14
ENDBRANCH  11  13
ENDBRANCH   2  11
TORSDOF 5
ENDMDL
