MODEL 1
REMARK VINA RESULT:      -8.2      0.000      0.000
REMARK  Name = 
REMARK  5 active torsions:
REMARK  status: ('A' for Active; 'I' for Inactive)
REMARK    1  A    between atoms: C_1  and  C_2
REMARK    2  A    between atoms: C_5  and  O_6
REMARK    3  A    between atoms: C_8  and  C_9
REMARK    4  A    between atoms: C_14  and  N_15
REMARK    5  A    between atoms: C_16  and  C_18
REMARK                            x       y       z     vdW  Elec       q    Type
REMARK                         _______ _______ _______ _____ _____    ______ ____
ROOT
ATOM      1  C   UNL     1       3.244   6.735  18.358  0.00  0.00    +0.000 A 
ATOM      2  C   UNL     1       2.850   6.446  19.675  0.00  0.00    +0.000 A 
ATOM      3  C   UNL     1       1.920   7.232  20.371  0.00  0.00    +0.000 A 
ATOM      4  C   UNL     1       1.414   8.400  19.802  0.00  0.00    +0.000 A 
ATOM      5  C   UNL     1       0.506   9.234  20.479  0.00  0.00    +0.000 A 
ATOM      6  C   UNL     1       0.086  10.414  19.876  0.00  0.00    +0.000 A 
ATOM      7  N   UNL     1       0.520  10.787  18.664  0.00  0.00    +0.000 NA
ATOM      8  C   UNL     1       1.373   9.968  18.012  0.00  0.00    +0.000 A 
ATOM      9  C   UNL     1       1.844   8.763  18.518  0.00  0.00    +0.000 A 
ATOM     10  C   UNL     1       2.722   7.922  17.804  0.00  0.00    +0.000 A 
ENDROOT
BRANCH   1  17
ATOM     11  C   UNL     1       2.595   3.841  17.407  0.00  0.00    +0.000 C 
ATOM     12  C   UNL     1       3.909   4.540  17.167  0.00  0.00    +0.000 A 
ATOM     13  C   UNL     1       4.884   3.803  16.458  0.00  0.00    +0.000 A 
ATOM     14  C   UNL     1       6.104   4.367  16.098  0.00  0.00    +0.000 A 
ATOM     15  C   UNL     1       6.366   5.674  16.460  0.00  0.00    +0.000 A 
ATOM     16  C   UNL     1       5.443   6.405  17.204  0.00  0.00    +0.000 A 
ATOM     17  C   UNL     1       4.187   5.871  17.584  0.00  0.00    +0.000 A 
BRANCH  15  18
ATOM     18  O   UNL     1       7.528   6.292  16.103  0.00  0.00    +0.000 OA
ATOM     19  H   UNL     1       8.267   5.836  16.538  0.00  0.00    +0.000 HD
ENDBRANCH  15  18
ENDBRANCH   1  17
BRANCH   6  20
ATOM     20  N   UNL     1      -0.821  11.215  20.581  0.00  0.00    +0.000 N 
ATOM     21  C   UNL     1      -0.468  12.226  21.443  0.00  0.00    +0.000 C 
ATOM     22  O   UNL     1       0.648  12.613  21.749  0.00  0.00    +0.000 OA
ATOM     23  H   UNL     1      -1.802  11.036  20.436  0.00  0.00    +0.000 HD
BRANCH  21  24
ATOM     24  C   UNL     1      -1.663  12.917  22.031  0.00  0.00    +0.000 C 
ATOM     25  C   UNL     1      -2.364  12.336  23.238  0.00  0.00    +0.000 C 
ATOM     26  C   UNL     1      -1.539  13.580  23.383  0.00  0.00    +0.000 C 
ENDBRANCH  21  24
ENDBRANCH   6  20
TORSDOF 4
ENDMDL
MODEL 2
REMARK VINA RESULT:      -8.2      1.172      1.902
REMARK  Name = 
REMARK  5 active torsions:
REMARK  status: ('A' for Active; 'I' for Inactive)
REMARK    1  A    between atoms: C_1  and  C_2
REMARK    2  A    between atoms: C_5  and  O_6
REMARK    3  A    between atoms: C_8  and  C_9
REMARK    4  A    between atoms: C_14  and  N_15
REMARK    5  A    between atoms: C_16  and  C_18
REMARK                            x       y       z     vdW  Elec       q    Type
REMARK                         _______ _______ _______ _____ _____    ______ ____
ROOT
ATOM      1  C   UNL     1       2.567   7.440  18.419  0.00  0.00    +0.000 A 
ATOM      2  C   UNL     1       1.954   8.464  17.678  0.00  0.00    +0.000 A 
ATOM      3  C   UNL     1       1.168   9.458  18.278  0.00  0.00    +0.000 A 
ATOM      4  C   UNL     1       0.888   9.413  19.643  0.00  0.00    +0.000 A 
ATOM      5  C   UNL     1       0.077  10.371  20.277  0.00  0.00    +0.000 A 
ATOM      6  C   UNL     1      -0.209  10.232  21.630  0.00  0.00    +0.000 A 
ATOM      7  N   UNL     1       0.264   9.210  22.357  0.00  0.00    +0.000 NA
ATOM      8  C   UNL     1       1.062   8.308  21.744  0.00  0.00    +0.000 A 
ATOM      9  C   UNL     1       1.419   8.361  20.402  0.00  0.00    +0.000 A 
ATOM     10  C   UNL     1       2.268   7.411  19.796  0.00  0.00    +0.000 A 
ENDROOT
BRANCH   1  17
ATOM     11  C   UNL     1       1.761   4.465  17.975  0.00  0.00    +0.000 C 
ATOM     12  C   UNL     1       3.106   5.044  17.616  0.00  0.00    +0.000 A 
ATOM     13  C   UNL     1       4.035   4.148  17.038  0.00  0.00    +0.000 A 
ATOM     14  C   UNL     1       5.277   4.579  16.584  0.00  0.00    +0.000 A 
ATOM     15  C   UNL     1       5.610   5.913  16.719  0.00  0.00    +0.000 A 
ATOM     16  C   UNL     1       4.733   6.806  17.331  0.00  0.00    +0.000 A 
ATOM     17  C   UNL     1       3.457   6.411  17.800  0.00  0.00    +0.000 A 
BRANCH  15  18
ATOM     18  O   UNL     1       6.796   6.400  16.259  0.00  0.00    +0.000 OA
ATOM     19  H   UNL     1       7.502   6.124  16.867  0.00  0.00    +0.000 HD
ENDBRANCH  15  18
ENDBRANCH   1  17
BRANCH   6  20
ATOM     20  N   UNL     1      -1.018  11.209  22.225  0.00  0.00    +0.000 N 
ATOM     21  C   UNL     1      -0.668  12.529  22.378  0.00  0.00    +0.000 C 
ATOM     22  O   UNL     1       0.361  13.090  22.039  0.00  0.00    +0.000 OA
ATOM     23  H   UNL     1      -1.923  10.916  22.557  0.00  0.00    +0.000 HD
BRANCH  21  24
ATOM     24  C   UNL     1      -1.752  13.333  23.032  0.00  0.00    +0.000 C 
ATOM     25  C   UNL     1      -2.905  13.870  22.215  0.00  0.00    +0.000 C 
ATOM     26  C   UNL     1      -3.133  12.734  23.167  0.00  0.00    +0.000 C 
ENDBRANCH  21  24
ENDBRANCH   6  20
TORSDOF 4
ENDMDL
MODEL 3
REMARK VINA RESULT:      -8.1      1.146      1.828
REMARK  Name = 
REMARK  5 active torsions:
REMARK  status: ('A' for Active; 'I' for Inactive)
REMARK    1  A    between atoms: C_1  and  C_2
REMARK    2  A    between atoms: C_5  and  O_6
REMARK    3  A    between atoms: C_8  and  C_9
REMARK    4  A    between atoms: C_14  and  N_15
REMARK    5  A    between atoms: C_16  and  C_18
REMARK                            x       y       z     vdW  Elec       q    Type
REMARK                         _______ _______ _______ _____ _____    ______ ____
ROOT
ATOM      1  C   UNL     1       3.253   7.027  17.961  0.00  0.00    +0.000 A 
ATOM      2  C   UNL     1       2.842   8.171  17.256  0.00  0.00    +0.000 A 
ATOM      3  C   UNL     1       2.009   9.146  17.826  0.00  0.00    +0.000 A 
ATOM      4  C   UNL     1       1.478   8.965  19.103  0.00  0.00    +0.000 A 
ATOM      5  C   UNL     1       0.613   9.901  19.697  0.00  0.00    +0.000 A 
ATOM      6  C   UNL     1       0.073   9.630  20.949  0.00  0.00    +0.000 A 
ATOM      7  N   UNL     1       0.350   8.499  21.614  0.00  0.00    +0.000 NA
ATOM      8  C   UNL     1       1.200   7.617  21.045  0.00  0.00    +0.000 A 
ATOM      9  C   UNL     1       1.803   7.797  19.806  0.00  0.00    +0.000 A 
ATOM     10  C   UNL     1       2.701   6.863  19.247  0.00  0.00    +0.000 A 
ENDROOT
BRANCH   1  17
ATOM     11  C   UNL     1       2.541   4.024  17.542  0.00  0.00    +0.000 C 
ATOM     12  C   UNL     1       3.880   4.634  17.214  0.00  0.00    +0.000 A 
ATOM     13  C   UNL     1       4.849   3.755  16.680  0.00  0.00    +0.000 A 
ATOM     14  C   UNL     1       6.093   4.213  16.256  0.00  0.00    +0.000 A 
ATOM     15  C   UNL     1       6.386   5.557  16.379  0.00  0.00    +0.000 A 
ATOM     16  C   UNL     1       5.467   6.435  16.950  0.00  0.00    +0.000 A 
ATOM     17  C   UNL     1       4.188   6.012  17.386  0.00  0.00    +0.000 A 
BRANCH  15  18
ATOM     18  O   UNL     1       7.572   6.069  15.947  0.00  0.00    +0.000 OA
ATOM     19  H   UNL     1       7.582   7.024  16.127  0.00  0.00    +0.000 HD
ENDBRANCH  15  18
ENDBRANCH   1  17
BRANCH   6  20
ATOM     20  N   UNL     1      -0.781  10.589  21.508  0.00  0.00    +0.000 N 
ATOM     21  C   UNL     1      -0.893  10.850  22.852  0.00  0.00    +0.000 C 
ATOM     22  O   UNL     1      -0.299  10.331  23.782  0.00  0.00    +0.000 OA
ATOM     23  H   UNL     1      -1.347  11.127  20.871  0.00  0.00    +0.000 HD
BRANCH  21  24
ATOM     24  C   UNL     1      -1.875  11.946  23.140  0.00  0.00    +0.000 C 
ATOM     25  C   UNL     1      -1.415  13.384  23.214  0.00  0.00    +0.000 C 
ATOM     26  C   UNL     1      -2.230  12.923  22.042  0.00  0.00    +0.000 C 
ENDBRANCH  21  24
ENDBRANCH   6  20
TORSDOF 4
ENDMDL
MODEL 4
REMARK VINA RESULT:      -8.0      2.028      2.899
REMARK  Name = 
REMARK  5 active torsions:
REMARK  status: ('A' for Active; 'I' for Inactive)
REMARK    1  A    between atoms: C_1  and  C_2
REMARK    2  A    between atoms: C_5  and  O_6
REMARK    3  A    between atoms: C_8  and  C_9
REMARK    4  A    between atoms: C_14  and  N_15
REMARK    5  A    between atoms: C_16  and  C_18
REMARK                            x       y       z     vdW  Elec       q    Type
REMARK                         _______ _______ _______ _____ _____    ______ ____
ROOT
ATOM      1  C   UNL     1       2.278   7.079  18.496  0.00  0.00    +0.000 A 
ATOM      2  C   UNL     1       1.854   8.124  17.657  0.00  0.00    +0.000 A 
ATOM      3  C   UNL     1       1.360   9.337  18.160  0.00  0.00    +0.000 A 
ATOM      4  C   UNL     1       1.185   9.517  19.531  0.00  0.00    +0.000 A 
ATOM      5  C   UNL     1       0.662  10.704  20.073  0.00  0.00    +0.000 A 
ATOM      6  C   UNL     1       0.458  10.794  21.445  0.00  0.00    +0.000 A 
ATOM      7  N   UNL     1       0.745   9.781  22.275  0.00  0.00    +0.000 NA
ATOM      8  C   UNL     1       1.269   8.654  21.748  0.00  0.00    +0.000 A 
ATOM      9  C   UNL     1       1.523   8.466  20.394  0.00  0.00    +0.000 A 
ATOM     10  C   UNL     1       2.088   7.281  19.877  0.00  0.00    +0.000 A 
ENDROOT
BRANCH   1  17
ATOM     11  C   UNL     1       5.146   6.822  17.308  0.00  0.00    +0.000 C 
ATOM     12  C   UNL     1       4.161   5.684  17.407  0.00  0.00    +0.000 A 
ATOM     13  C   UNL     1       4.606   4.433  16.923  0.00  0.00    +0.000 A 
ATOM     14  C   UNL     1       3.825   3.287  17.038  0.00  0.00    +0.000 A 
ATOM     15  C   UNL     1       2.579   3.387  17.627  0.00  0.00    +0.000 A 
ATOM     16  C   UNL     1       2.097   4.618  18.065  0.00  0.00    +0.000 A 
ATOM     17  C   UNL     1       2.862   5.806  17.974  0.00  0.00    +0.000 A 
BRANCH  15  18
ATOM     18  O   UNL     1       1.785   2.293  17.801  0.00  0.00    +0.000 OA
ATOM     19  H   UNL     1       1.030   2.359  17.193  0.00  0.00    +0.000 HD
ENDBRANCH  15  18
ENDBRANCH   1  17
BRANCH   6  20
ATOM     20  N   UNL     1      -0.062  11.994  21.946  0.00  0.00    +0.000 N 
ATOM     21  C   UNL     1      -1.141  12.089  22.792  0.00  0.00    +0.000 C 
ATOM     22  O   UNL     1      -1.825  11.193  23.258  0.00  0.00    +0.000 OA
ATOM     23  H   UNL     1       0.399  12.846  21.667  0.00  0.00    +0.000 HD
BRANCH  21  24
ATOM     24  C   UNL     1      -1.445  13.508  23.171  0.00  0.00    +0.000 C 
ATOM     25  C   UNL     1      -2.571  14.254  22.494  0.00  0.00    +0.000 C 
ATOM     26  C   UNL     1      -2.722  13.812  23.919  0.00  0.00    +0.000 C 
ENDBRANCH  21  24
ENDBRANCH   6  20
TORSDOF 4
ENDMDL
MODEL 5
REMARK VINA RESULT:      -7.9      1.192      1.216
REMARK  Name = 
REMARK  5 active torsions:
REMARK  status: ('A' for Active; 'I' for Inactive)
REMARK    1  A    between atoms: C_1  and  C_2
REMARK    2  A    between atoms: C_5  and  O_6
REMARK    3  A    between atoms: C_8  and  C_9
REMARK    4  A    between atoms: C_14  and  N_15
REMARK    5  A    between atoms: C_16  and  C_18
REMARK                            x       y       z     vdW  Elec       q    Type
REMARK                         _______ _______ _______ _____ _____    ______ ____
ROOT
ATOM      1  C   UNL     1       2.701   7.049  18.633  0.00  0.00    +0.000 A 
ATOM      2  C   UNL     1       2.338   6.824  19.972  0.00  0.00    +0.000 A 
ATOM      3  C   UNL     1       1.509   7.704  20.684  0.00  0.00    +0.000 A 
ATOM      4  C   UNL     1       1.084   8.900  20.106  0.00  0.00    +0.000 A 
ATOM      5  C   UNL     1       0.281   9.825  20.797  0.00  0.00    +0.000 A 
ATOM      6  C   UNL     1      -0.058  11.025  20.182  0.00  0.00    +0.000 A 
ATOM      7  N   UNL     1       0.357  11.332  18.945  0.00  0.00    +0.000 NA
ATOM      8  C   UNL     1       1.108  10.427  18.281  0.00  0.00    +0.000 A 
ATOM      9  C   UNL     1       1.492   9.196  18.798  0.00  0.00    +0.000 A 
ATOM     10  C   UNL     1       2.263   8.265  18.072  0.00  0.00    +0.000 A 
ENDROOT
BRANCH   1  17
ATOM     11  C   UNL     1       1.811   4.160  17.885  0.00  0.00    +0.000 C 
ATOM     12  C   UNL     1       3.145   4.760  17.520  0.00  0.00    +0.000 A 
ATOM     13  C   UNL     1       4.021   3.928  16.786  0.00  0.00    +0.000 A 
ATOM     14  C   UNL     1       5.245   4.394  16.315  0.00  0.00    +0.000 A 
ATOM     15  C   UNL     1       5.611   5.697  16.589  0.00  0.00    +0.000 A 
ATOM     16  C   UNL     1       4.789   6.521  17.353  0.00  0.00    +0.000 A 
ATOM     17  C   UNL     1       3.533   6.090  17.845  0.00  0.00    +0.000 A 
BRANCH  15  18
ATOM     18  O   UNL     1       6.780   6.220  16.121  0.00  0.00    +0.000 OA
ATOM     19  H   UNL     1       6.629   7.149  15.879  0.00  0.00    +0.000 HD
ENDBRANCH  15  18
ENDBRANCH   1  17
BRANCH   6  20
ATOM     20  N   UNL     1      -0.862  11.917  20.902  0.00  0.00    +0.000 N 
ATOM     21  C   UNL     1      -2.120  12.321  20.523  0.00  0.00    +0.000 C 
ATOM     22  O   UNL     1      -2.759  11.996  19.536  0.00  0.00    +0.000 OA
ATOM     23  H   UNL     1      -0.487  12.280  21.764  0.00  0.00    +0.000 HD
BRANCH  21  24
ATOM     24  C   UNL     1      -2.737  13.265  21.510  0.00  0.00    +0.000 C 
ATOM     25  C   UNL     1      -3.619  12.741  22.620  0.00  0.00    +0.000 C 
ATOM     26  C   UNL     1      -2.249  13.257  22.941  0.00  0.00    +0.000 C 
ENDBRANCH  21  24
ENDBRANCH   6  20
TORSDOF 4
ENDMDL
MODEL 6
REMARK VINA RESULT:      -7.7      2.482      8.981
REMARK  Name = 
REMARK  5 active torsions:
REMARK  status: ('A' for Active; 'I' for Inactive)
REMARK    1  A    between atoms: C_1  and  C_2
REMARK    2  A    between atoms: C_5  and  O_6
REMARK    3  A    between atoms: C_8  and  C_9
REMARK    4  A    between atoms: C_14  and  N_15
REMARK    5  A    between atoms: C_16  and  C_18
REMARK                            x       y       z     vdW  Elec       q    Type
REMARK                         _______ _______ _______ _____ _____    ______ ____
ROOT
ATOM      1  C   UNL     1       0.629   9.806  19.917  0.00  0.00    +0.000 A 
ATOM      2  C   UNL     1       1.135  10.266  18.689  0.00  0.00    +0.000 A 
ATOM      3  C   UNL     1       1.993   9.493  17.894  0.00  0.00    +0.000 A 
ATOM      4  C   UNL     1       2.454   8.256  18.343  0.00  0.00    +0.000 A 
ATOM      5  C   UNL     1       3.342   7.465  17.592  0.00  0.00    +0.000 A 
ATOM      6  C   UNL     1       3.808   6.270  18.126  0.00  0.00    +0.000 A 
ATOM      7  N   UNL     1       3.438   5.841  19.341  0.00  0.00    +0.000 NA
ATOM      8  C   UNL     1       2.567   6.597  20.046  0.00  0.00    +0.000 A 
ATOM      9  C   UNL     1       2.033   7.799  19.600  0.00  0.00    +0.000 A 
ATOM     10  C   UNL     1       1.112   8.556  20.353  0.00  0.00    +0.000 A 
ENDROOT
BRANCH   1  17
ATOM     11  C   UNL     1       0.335   9.528  23.005  0.00  0.00    +0.000 C 
ATOM     12  C   UNL     1      -0.492  10.457  22.152  0.00  0.00    +0.000 A 
ATOM     13  C   UNL     1      -1.451  11.240  22.835  0.00  0.00    +0.000 A 
ATOM     14  C   UNL     1      -2.215  12.197  22.174  0.00  0.00    +0.000 A 
ATOM     15  C   UNL     1      -2.037  12.368  20.814  0.00  0.00    +0.000 A 
ATOM     16  C   UNL     1      -1.135  11.573  20.110  0.00  0.00    +0.000 A 
ATOM     17  C   UNL     1      -0.333  10.594  20.745  0.00  0.00    +0.000 A 
BRANCH  15  18
ATOM     18  O   UNL     1      -2.729  13.315  20.121  0.00  0.00    +0.000 OA
ATOM     19  H   UNL     1      -2.887  12.985  19.220  0.00  0.00    +0.000 HD
ENDBRANCH  15  18
ENDBRANCH   1  17
BRANCH   6  20
ATOM     20  N   UNL     1       4.687   5.510  17.345  0.00  0.00    +0.000 N 
ATOM     21  C   UNL     1       4.388   4.288  16.791  0.00  0.00    +0.000 C 
ATOM     22  O   UNL     1       3.349   3.653  16.861  0.00  0.00    +0.000 OA
ATOM     23  H   UNL     1       5.602   5.897  17.174  0.00  0.00    +0.000 HD
BRANCH  21  24
ATOM     24  C   UNL     1       5.527   3.731  15.990  0.00  0.00    +0.000 C 
ATOM     25  C   UNL     1       5.753   4.186  14.566  0.00  0.00    +0.000 C 
ATOM     26  C   UNL     1       6.693   4.629  15.647  0.00  0.00    +0.000 C 
ENDBRANCH  21  24
ENDBRANCH   6  20
TORSDOF 4
ENDMDL
MODEL 7
REMARK VINA RESULT:      -7.7      2.733      8.983
REMARK  Name = 
REMARK  5 active torsions:
REMARK  status: ('A' for Active; 'I' for Inactive)
REMARK    1  A    between atoms: C_1  and  C_2
REMARK    2  A    between atoms: C_5  and  O_6
REMARK    3  A    between atoms: C_8  and  C_9
REMARK    4  A    between atoms: C_14  and  N_15
REMARK    5  A    between atoms: C_16  and  C_18
REMARK                            x       y       z     vdW  Elec       q    Type
REMARK                         _______ _______ _______ _____ _____    ______ ____
ROOT
ATOM      1  C   UNL     1       1.423   8.707  19.866  0.00  0.00    +0.000 A 
ATOM      2  C   UNL     1       1.781   9.251  18.621  0.00  0.00    +0.000 A 
ATOM      3  C   UNL     1       2.531   8.536  17.676  0.00  0.00    +0.000 A 
ATOM      4  C   UNL     1       3.033   7.271  17.981  0.00  0.00    +0.000 A 
ATOM      5  C   UNL     1       3.818   6.535  17.076  0.00  0.00    +0.000 A 
ATOM      6  C   UNL     1       4.336   5.305  17.466  0.00  0.00    +0.000 A 
ATOM      7  N   UNL     1       4.111   4.794  18.685  0.00  0.00    +0.000 NA
ATOM      8  C   UNL     1       3.338   5.498  19.539  0.00  0.00    +0.000 A 
ATOM      9  C   UNL     1       2.762   6.728  19.245  0.00  0.00    +0.000 A 
ATOM     10  C   UNL     1       1.945   7.430  20.154  0.00  0.00    +0.000 A 
ENDROOT
BRANCH   1  17
ATOM     11  C   UNL     1      -0.803  10.747  19.102  0.00  0.00    +0.000 C 
ATOM     12  C   UNL     1      -0.429  10.387  20.518  0.00  0.00    +0.000 A 
ATOM     13  C   UNL     1      -1.161  11.036  21.538  0.00  0.00    +0.000 A 
ATOM     14  C   UNL     1      -0.970  10.727  22.881  0.00  0.00    +0.000 A 
ATOM     15  C   UNL     1      -0.030   9.772  23.218  0.00  0.00    +0.000 A 
ATOM     16  C   UNL     1       0.741   9.156  22.234  0.00  0.00    +0.000 A 
ATOM     17  C   UNL     1       0.573   9.436  20.856  0.00  0.00    +0.000 A 
BRANCH  15  18
ATOM     18  O   UNL     1       0.174   9.400  24.513  0.00  0.00    +0.000 OA
ATOM     19  H   UNL     1      -0.386   9.952  25.085  0.00  0.00    +0.000 HD
ENDBRANCH  15  18
ENDBRANCH   1  17
BRANCH   6  20
ATOM     20  N   UNL     1       5.108   4.602  16.534  0.00  0.00    +0.000 N 
ATOM     21  C   UNL     1       5.750   5.170  15.459  0.00  0.00    +0.000 C 
ATOM     22  O   UNL     1       5.778   6.341  15.120  0.00  0.00    +0.000 OA
ATOM     23  H   UNL     1       5.203   3.608  16.672  0.00  0.00    +0.000 HD
BRANCH  21  24
ATOM     24  C   UNL     1       6.516   4.162  14.655  0.00  0.00    +0.000 C 
ATOM     25  C   UNL     1       5.980   3.677  13.328  0.00  0.00    +0.000 C 
ATOM     26  C   UNL     1       7.166   4.594  13.361  0.00  0.00    +0.000 C 
ENDBRANCH  21  24
ENDBRANCH   6  20
TORSDOF 4
ENDMDL
MODEL 8
REMARK VINA RESULT:      -7.6      2.713      3.481
REMARK  Name = 
REMARK  5 active torsions:
REMARK  status: ('A' for Active; 'I' for Inactive)
REMARK    1  A    between atoms: C_1  and  C_2
REMARK    2  A    between atoms: C_5  and  O_6
REMARK    3  A    between atoms: C_8  and  C_9
REMARK    4  A    between atoms: C_14  and  N_15
REMARK    5  A    between atoms: C_16  and  C_18
REMARK                            x       y       z     vdW  Elec       q    Type
REMARK                         _______ _______ _______ _____ _____    ______ ____
ROOT
ATOM      1  C   UNL     1       2.415   6.286  18.940  0.00  0.00    +0.000 A 
ATOM      2  C   UNL     1       2.381   7.102  17.797  0.00  0.00    +0.000 A 
ATOM      3  C   UNL     1       2.036   8.460  17.855  0.00  0.00    +0.000 A 
ATOM      4  C   UNL     1       1.621   9.036  19.055  0.00  0.00    +0.000 A 
ATOM      5  C   UNL     1       1.234  10.385  19.148  0.00  0.00    +0.000 A 
ATOM      6  C   UNL     1       0.774  10.879  20.363  0.00  0.00    +0.000 A 
ATOM      7  N   UNL     1       0.685  10.108  21.457  0.00  0.00    +0.000 NA
ATOM      8  C   UNL     1       1.081   8.820  21.363  0.00  0.00    +0.000 A 
ATOM      9  C   UNL     1       1.567   8.231  20.201  0.00  0.00    +0.000 A 
ATOM     10  C   UNL     1       1.988   6.887  20.141  0.00  0.00    +0.000 A 
ENDROOT
BRANCH   1  17
ATOM     11  C   UNL     1       5.355   5.316  19.285  0.00  0.00    +0.000 C 
ATOM     12  C   UNL     1       4.182   4.402  19.034  0.00  0.00    +0.000 A 
ATOM     13  C   UNL     1       4.475   3.021  18.960  0.00  0.00    +0.000 A 
ATOM     14  C   UNL     1       3.469   2.070  18.819  0.00  0.00    +0.000 A 
ATOM     15  C   UNL     1       2.157   2.495  18.734  0.00  0.00    +0.000 A 
ATOM     16  C   UNL     1       1.848   3.853  18.753  0.00  0.00    +0.000 A 
ATOM     17  C   UNL     1       2.839   4.853  18.902  0.00  0.00    +0.000 A 
BRANCH  15  18
ATOM     18  O   UNL     1       1.128   1.608  18.633  0.00  0.00    +0.000 OA
ATOM     19  H   UNL     1       1.490   0.707  18.675  0.00  0.00    +0.000 HD
ENDBRANCH  15  18
ENDBRANCH   1  17
BRANCH   6  20
ATOM     20  N   UNL     1       0.402  12.228  20.415  0.00  0.00    +0.000 N 
ATOM     21  C   UNL     1       1.220  13.251  20.834  0.00  0.00    +0.000 C 
ATOM     22  O   UNL     1       2.376  13.194  21.221  0.00  0.00    +0.000 OA
ATOM     23  H   UNL     1      -0.531  12.459  20.116  0.00  0.00    +0.000 HD
BRANCH  21  24
ATOM     24  C   UNL     1       0.544  14.587  20.757  0.00  0.00    +0.000 C 
ATOM     25  C   UNL     1       0.762  15.485  19.561  0.00  0.00    +0.000 C 
ATOM     26  C   UNL     1      -0.558  14.797  19.745  0.00  0.00    +0.000 C 
ENDBRANCH  21  24
ENDBRANCH   6  20
TORSDOF 4
ENDMDL
MODEL 9
REMARK VINA RESULT:      -7.6      1.838      2.705
REMARK  Name = 
REMARK  5 active torsions:
REMARK  status: ('A' for Active; 'I' for Inactive)
REMARK    1  A    between atoms: C_1  and  C_2
REMARK    2  A    between atoms: C_5  and  O_6
REMARK    3  A    between atoms: C_8  and  C_9
REMARK    4  A    between atoms: C_14  and  N_15
REMARK    5  A    between atoms: C_16  and  C_18
REMARK                            x       y       z     vdW  Elec       q    Type
REMARK                         _______ _______ _______ _____ _____    ______ ____
ROOT
ATOM      1  C   UNL     1       2.474   7.134  18.389  0.00  0.00    +0.000 A 
ATOM      2  C   UNL     1       2.057   8.150  17.514  0.00  0.00    +0.000 A 
ATOM      3  C   UNL     1       1.427   9.319  17.966  0.00  0.00    +0.000 A 
ATOM      4  C   UNL     1       1.107   9.476  19.314  0.00  0.00    +0.000 A 
ATOM      5  C   UNL     1       0.447  10.617  19.803  0.00  0.00    +0.000 A 
ATOM      6  C   UNL     1       0.105  10.682  21.149  0.00  0.00    +0.000 A 
ATOM      7  N   UNL     1       0.385   9.687  22.002  0.00  0.00    +0.000 NA
ATOM      8  C   UNL     1       1.040   8.605  21.528  0.00  0.00    +0.000 A 
ATOM      9  C   UNL     1       1.438   8.446  20.206  0.00  0.00    +0.000 A 
ATOM     10  C   UNL     1       2.136   7.311  19.746  0.00  0.00    +0.000 A 
ENDROOT
BRANCH   1  17
ATOM     11  C   UNL     1       5.445   7.104  17.457  0.00  0.00    +0.000 C 
ATOM     12  C   UNL     1       4.548   5.893  17.476  0.00  0.00    +0.000 A 
ATOM     13  C   UNL     1       5.130   4.681  17.039  0.00  0.00    +0.000 A 
ATOM     14  C   UNL     1       4.434   3.477  17.091  0.00  0.00    +0.000 A 
ATOM     15  C   UNL     1       3.138   3.478  17.568  0.00  0.00    +0.000 A 
ATOM     16  C   UNL     1       2.524   4.667  17.957  0.00  0.00    +0.000 A 
ATOM     17  C   UNL     1       3.199   5.911  17.927  0.00  0.00    +0.000 A 
BRANCH  15  18
ATOM     18  O   UNL     1       2.420   2.325  17.678  0.00  0.00    +0.000 OA
ATOM     19  H   UNL     1       2.203   2.183  18.615  0.00  0.00    +0.000 HD
ENDBRANCH  15  18
ENDBRANCH   1  17
BRANCH   6  20
ATOM     20  N   UNL     1      -0.549  11.836  21.596  0.00  0.00    +0.000 N 
ATOM     21  C   UNL     1       0.056  13.056  21.787  0.00  0.00    +0.000 C 
ATOM     22  O   UNL     1       1.223  13.364  21.609  0.00  0.00    +0.000 OA
ATOM     23  H   UNL     1      -1.536  11.762  21.784  0.00  0.00    +0.000 HD
BRANCH  21  24
ATOM     24  C   UNL     1      -0.910  14.104  22.252  0.00  0.00    +0.000 C 
ATOM     25  C   UNL     1      -1.180  14.294  23.727  0.00  0.00    +0.000 C 
ATOM     26  C   UNL     1      -0.383  15.320  22.978  0.00  0.00    +0.000 C 
ENDBRANCH  21  24
ENDBRANCH   6  20
TORSDOF 4
ENDMDL
