MODEL 1
REMARK VINA RESULT:      -7.1      0.000      0.000
REMARK  Name = 
REMARK  17 active torsions:
REMARK  status: ('A' for Active; 'I' for Inactive)
REMARK    1  A    between atoms: C_1  and  O_2
REMARK    2  A    between atoms: O_2  and  C_3
REMARK    3  A    between atoms: C_3  and  C_5
REMARK    4  A    between atoms: C_5  and  C_6
REMARK    5  A    between atoms: C_6  and  C_7
REMARK    6  A    between atoms: C_8  and  C_9
REMARK    7  A    between atoms: C_9  and  C_10
REMARK    8  A    between atoms: C_10  and  C_11
REMARK    9  A    between atoms: C_15  and  O_16
REMARK   10  A    between atoms: C_17  and  C_18
REMARK   11  A    between atoms: C_19  and  C_20
REMARK   12  A    between atoms: C_20  and  C_21
REMARK   13  A    between atoms: C_21  and  C_22
REMARK   14  A    between atoms: C_21  and  O_23
REMARK   15  A    between atoms: C_21  and  C_24
REMARK   16  A    between atoms: C_24  and  C_25
REMARK   17  A    between atoms: C_25  and  C_26
REMARK                            x       y       z     vdW  Elec       q    Type
REMARK                         _______ _______ _______ _____ _____    ______ ____
ROOT
ATOM      1  C   UNL     1       1.105   8.658  19.394  0.00  0.00    +0.000 C 
ATOM      2  C   UNL     1       0.318   9.945  19.584  0.00  0.00    +0.000 C 
ATOM      3  O   UNL     1      -0.718  10.038  20.230  0.00  0.00    +0.000 OA
ATOM      4  C   UNL     1       0.931  11.111  18.874  0.00  0.00    +0.000 C 
ATOM      5  C   UNL     1       1.726  10.386  17.809  0.00  0.00    +0.000 C 
ATOM      6  C   UNL     1       2.289   9.134  18.517  0.00  0.00    +0.000 C 
ENDROOT
BRANCH   5   7
ATOM      7  O   UNL     1       2.742  11.222  17.277  0.00  0.00    +0.000 OA
ATOM      8  H   UNL     1       2.621  11.298  16.315  0.00  0.00    +0.000 HD
ENDBRANCH   5   7
BRANCH   6   9
ATOM      9  C   UNL     1       2.775   8.020  17.613  0.00  0.00    +0.000 C 
ATOM     10  C   UNL     1       3.807   7.208  17.898  0.00  0.00    +0.000 C 
BRANCH  10  11
ATOM     11  C   UNL     1       4.410   6.179  16.983  0.00  0.00    +0.000 C 
BRANCH  11  12
ATOM     12  C   UNL     1       5.696   5.529  17.571  0.00  0.00    +0.000 C 
ATOM     13  C   UNL     1       6.845   6.544  17.663  0.00  0.00    +0.000 C 
BRANCH  12  14
ATOM     14  O   UNL     1       5.421   5.030  18.890  0.00  0.00    +0.000 OA
ATOM     15  H   UNL     1       5.413   5.782  19.503  0.00  0.00    +0.000 HD
ENDBRANCH  12  14
BRANCH  12  16
ATOM     16  C   UNL     1       6.074   4.307  16.706  0.00  0.00    +0.000 C 
BRANCH  16  17
ATOM     17  C   UNL     1       5.233   4.179  15.429  0.00  0.00    +0.000 C 
BRANCH  17  18
ATOM     18  C   UNL     1       6.040   4.310  14.178  0.00  0.00    +0.000 C 
ATOM     19  C   UNL     1       7.138   5.057  14.024  0.00  0.00    +0.000 C 
ATOM     20  C   UNL     1       7.715   4.932  12.659  0.00  0.00    +0.000 C 
ATOM     21  C   UNL     1       6.923   3.777  12.046  0.00  0.00    +0.000 C 
ATOM     22  C   UNL     1       5.695   3.561  12.931  0.00  0.00    +0.000 C 
ENDBRANCH  17  18
ENDBRANCH  16  17
ENDBRANCH  12  16
ENDBRANCH  11  12
ENDBRANCH  10  11
ENDBRANCH   6   9
BRANCH   1  23
ATOM     23  C   UNL     1       1.590   8.036  20.707  0.00  0.00    +0.000 C 
BRANCH  23  24
ATOM     24  C   UNL     1       1.231   6.562  20.907  0.00  0.00    +0.000 C 
BRANCH  24  26
ATOM     25  C   UNL     1       2.292   4.291  20.705  0.00  0.00    +0.000 C 
ATOM     26  C   UNL     1       2.400   5.615  20.929  0.00  0.00    +0.000 C 
BRANCH  25  27
ATOM     27  C   UNL     1       0.975   3.638  20.393  0.00  0.00    +0.000 C 
BRANCH  27  28
ATOM     28  C   UNL     1       0.991   2.753  19.154  0.00  0.00    +0.000 C 
BRANCH  28  29
ATOM     29  C   UNL     1       1.750   3.446  18.047  0.00  0.00    +0.000 C 
ATOM     30  O   UNL     1       1.249   4.150  17.175  0.00  0.00    +0.000 OA
BRANCH  29  32
ATOM     31  C   UNL     1       3.385   1.786  18.022  0.00  0.00    +0.000 C 
ATOM     32  O   UNL     1       3.076   3.175  18.158  0.00  0.00    +0.000 OA
ENDBRANCH  29  32
ENDBRANCH  28  29
ENDBRANCH  27  28
ENDBRANCH  25  27
ENDBRANCH  24  26
ENDBRANCH  23  24
ENDBRANCH   1  23
TORSDOF 15
ENDMDL
MODEL 2
REMARK VINA RESULT:      -7.1      1.721      5.475
REMARK  Name = 
REMARK  17 active torsions:
REMARK  status: ('A' for Active; 'I' for Inactive)
REMARK    1  A    between atoms: C_1  and  O_2
REMARK    2  A    between atoms: O_2  and  C_3
REMARK    3  A    between atoms: C_3  and  C_5
REMARK    4  A    between atoms: C_5  and  C_6
REMARK    5  A    between atoms: C_6  and  C_7
REMARK    6  A    between atoms: C_8  and  C_9
REMARK    7  A    between atoms: C_9  and  C_10
REMARK    8  A    between atoms: C_10  and  C_11
REMARK    9  A    between atoms: C_15  and  O_16
REMARK   10  A    between atoms: C_17  and  C_18
REMARK   11  A    between atoms: C_19  and  C_20
REMARK   12  A    between atoms: C_20  and  C_21
REMARK   13  A    between atoms: C_21  and  C_22
REMARK   14  A    between atoms: C_21  and  O_23
REMARK   15  A    between atoms: C_21  and  C_24
REMARK   16  A    between atoms: C_24  and  C_25
REMARK   17  A    between atoms: C_25  and  C_26
REMARK                            x       y       z     vdW  Elec       q    Type
REMARK                         _______ _______ _______ _____ _____    ______ ____
ROOT
ATOM      1  C   UNL     1       2.904   4.497  19.620  0.00  0.00    +0.000 C 
ATOM      2  C   UNL     1       2.121   3.965  20.811  0.00  0.00    +0.000 C 
ATOM      3  O   UNL     1       2.372   4.224  21.980  0.00  0.00    +0.000 OA
ATOM      4  C   UNL     1       1.001   3.057  20.410  0.00  0.00    +0.000 C 
ATOM      5  C   UNL     1       1.499   2.602  19.055  0.00  0.00    +0.000 C 
ATOM      6  C   UNL     1       2.150   3.855  18.429  0.00  0.00    +0.000 C 
ENDROOT
BRANCH   5   7
ATOM      7  O   UNL     1       0.435   2.084  18.271  0.00  0.00    +0.000 OA
ATOM      8  H   UNL     1      -0.300   2.720  18.273  0.00  0.00    +0.000 HD
ENDBRANCH   5   7
BRANCH   6   9
ATOM      9  C   UNL     1       3.087   3.608  17.265  0.00  0.00    +0.000 C 
ATOM     10  C   UNL     1       4.427   3.631  17.353  0.00  0.00    +0.000 C 
BRANCH  10  11
ATOM     11  C   UNL     1       5.397   3.524  16.209  0.00  0.00    +0.000 C 
BRANCH  11  12
ATOM     12  C   UNL     1       6.288   4.790  16.054  0.00  0.00    +0.000 C 
ATOM     13  C   UNL     1       5.890   5.883  17.058  0.00  0.00    +0.000 C 
BRANCH  12  14
ATOM     14  O   UNL     1       7.662   4.440  16.281  0.00  0.00    +0.000 OA
ATOM     15  H   UNL     1       8.218   5.028  15.744  0.00  0.00    +0.000 HD
ENDBRANCH  12  14
BRANCH  12  16
ATOM     16  C   UNL     1       6.193   5.287  14.595  0.00  0.00    +0.000 C 
BRANCH  16  17
ATOM     17  C   UNL     1       6.970   4.414  13.601  0.00  0.00    +0.000 C 
BRANCH  17  18
ATOM     18  C   UNL     1       6.082   3.618  12.699  0.00  0.00    +0.000 C 
ATOM     19  C   UNL     1       4.833   3.936  12.344  0.00  0.00    +0.000 C 
ATOM     20  C   UNL     1       4.248   2.941  11.405  0.00  0.00    +0.000 C 
ATOM     21  C   UNL     1       5.440   2.060  11.034  0.00  0.00    +0.000 C 
ATOM     22  C   UNL     1       6.540   2.347  12.057  0.00  0.00    +0.000 C 
ENDBRANCH  17  18
ENDBRANCH  16  17
ENDBRANCH  12  16
ENDBRANCH  11  12
ENDBRANCH  10  11
ENDBRANCH   6   9
BRANCH   1  23
ATOM     23  C   UNL     1       2.913   6.025  19.525  0.00  0.00    +0.000 C 
BRANCH  23  24
ATOM     24  C   UNL     1       2.231   6.609  18.286  0.00  0.00    +0.000 C 
BRANCH  24  26
ATOM     25  C   UNL     1       2.243   9.096  17.909  0.00  0.00    +0.000 C 
ATOM     26  C   UNL     1       2.828   7.891  17.770  0.00  0.00    +0.000 C 
BRANCH  25  27
ATOM     27  C   UNL     1       0.930   9.270  18.617  0.00  0.00    +0.000 C 
BRANCH  27  28
ATOM     28  C   UNL     1       1.035   9.315  20.135  0.00  0.00    +0.000 C 
BRANCH  28  29
ATOM     29  C   UNL     1       0.675  10.698  20.626  0.00  0.00    +0.000 C 
ATOM     30  O   UNL     1       0.401  11.656  19.909  0.00  0.00    +0.000 OA
BRANCH  29  32
ATOM     31  C   UNL     1       0.070   9.596  22.588  0.00  0.00    +0.000 C 
ATOM     32  O   UNL     1       0.702  10.727  21.983  0.00  0.00    +0.000 OA
ENDBRANCH  29  32
ENDBRANCH  28  29
ENDBRANCH  27  28
ENDBRANCH  25  27
ENDBRANCH  24  26
ENDBRANCH  23  24
ENDBRANCH   1  23
TORSDOF 15
ENDMDL
MODEL 3
REMARK VINA RESULT:      -7.0      3.372      6.711
REMARK  Name = 
REMARK  17 active torsions:
REMARK  status: ('A' for Active; 'I' for Inactive)
REMARK    1  A    between atoms: C_1  and  O_2
REMARK    2  A    between atoms: O_2  and  C_3
REMARK    3  A    between atoms: C_3  and  C_5
REMARK    4  A    between atoms: C_5  and  C_6
REMARK    5  A    between atoms: C_6  and  C_7
REMARK    6  A    between atoms: C_8  and  C_9
REMARK    7  A    between atoms: C_9  and  C_10
REMARK    8  A    between atoms: C_10  and  C_11
REMARK    9  A    between atoms: C_15  and  O_16
REMARK   10  A    between atoms: C_17  and  C_18
REMARK   11  A    between atoms: C_19  and  C_20
REMARK   12  A    between atoms: C_20  and  C_21
REMARK   13  A    between atoms: C_21  and  C_22
REMARK   14  A    between atoms: C_21  and  O_23
REMARK   15  A    between atoms: C_21  and  C_24
REMARK   16  A    between atoms: C_24  and  C_25
REMARK   17  A    between atoms: C_25  and  C_26
REMARK                            x       y       z     vdW  Elec       q    Type
REMARK                         _______ _______ _______ _____ _____    ______ ____
ROOT
ATOM      1  C   UNL     1       2.318   3.903  18.130  0.00  0.00    +0.000 C 
ATOM      2  C   UNL     1       1.115   3.345  18.875  0.00  0.00    +0.000 C 
ATOM      3  O   UNL     1       0.265   2.617  18.378  0.00  0.00    +0.000 OA
ATOM      4  C   UNL     1       1.055   3.797  20.301  0.00  0.00    +0.000 C 
ATOM      5  C   UNL     1       1.877   5.065  20.214  0.00  0.00    +0.000 C 
ATOM      6  C   UNL     1       3.023   4.729  19.234  0.00  0.00    +0.000 C 
ENDROOT
BRANCH   5   7
ATOM      7  O   UNL     1       2.344   5.456  21.495  0.00  0.00    +0.000 OA
ATOM      8  H   UNL     1       1.855   4.963  22.177  0.00  0.00    +0.000 HD
ENDBRANCH   5   7
BRANCH   6   9
ATOM      9  C   UNL     1       3.759   5.912  18.639  0.00  0.00    +0.000 C 
ATOM     10  C   UNL     1       5.059   5.902  18.299  0.00  0.00    +0.000 C 
BRANCH  10  11
ATOM     11  C   UNL     1       5.865   7.081  17.831  0.00  0.00    +0.000 C 
BRANCH  11  12
ATOM     12  C   UNL     1       7.385   6.767  17.722  0.00  0.00    +0.000 C 
ATOM     13  C   UNL     1       7.716   5.387  18.310  0.00  0.00    +0.000 C 
BRANCH  12  14
ATOM     14  O   UNL     1       7.780   6.783  16.341  0.00  0.00    +0.000 OA
ATOM     15  H   UNL     1       7.210   7.411  15.870  0.00  0.00    +0.000 HD
ENDBRANCH  12  14
BRANCH  12  16
ATOM     16  C   UNL     1       8.175   7.896  18.421  0.00  0.00    +0.000 C 
BRANCH  16  17
ATOM     17  C   UNL     1       8.063   9.250  17.711  0.00  0.00    +0.000 C 
BRANCH  17  18
ATOM     18  C   UNL     1       8.842  10.334  18.385  0.00  0.00    +0.000 C 
ATOM     19  C   UNL     1       9.035  11.572  17.917  0.00  0.00    +0.000 C 
ATOM     20  C   UNL     1       9.829  12.408  18.856  0.00  0.00    +0.000 C 
ATOM     21  C   UNL     1       9.898  11.551  20.121  0.00  0.00    +0.000 C 
ATOM     22  C   UNL     1       9.484  10.135  19.721  0.00  0.00    +0.000 C 
ENDBRANCH  17  18
ENDBRANCH  16  17
ENDBRANCH  12  16
ENDBRANCH  11  12
ENDBRANCH  10  11
ENDBRANCH   6   9
BRANCH   1  23
ATOM     23  C   UNL     1       3.240   2.824  17.557  0.00  0.00    +0.000 C 
BRANCH  23  24
ATOM     24  C   UNL     1       3.956   3.195  16.257  0.00  0.00    +0.000 C 
BRANCH  24  26
ATOM     25  C   UNL     1       6.233   3.803  15.378  0.00  0.00    +0.000 C 
ATOM     26  C   UNL     1       5.452   3.320  16.363  0.00  0.00    +0.000 C 
BRANCH  25  27
ATOM     27  C   UNL     1       5.666   4.281  14.071  0.00  0.00    +0.000 C 
BRANCH  27  28
ATOM     28  C   UNL     1       6.530   3.966  12.858  0.00  0.00    +0.000 C 
BRANCH  28  29
ATOM     29  C   UNL     1       5.806   2.986  11.963  0.00  0.00    +0.000 C 
ATOM     30  O   UNL     1       4.603   3.004  11.719  0.00  0.00    +0.000 OA
BRANCH  29  32
ATOM     31  C   UNL     1       6.069   0.850  11.072  0.00  0.00    +0.000 C 
ATOM     32  O   UNL     1       6.685   2.078  11.467  0.00  0.00    +0.000 OA
ENDBRANCH  29  32
ENDBRANCH  28  29
ENDBRANCH  27  28
ENDBRANCH  25  27
ENDBRANCH  24  26
ENDBRANCH  23  24
ENDBRANCH   1  23
TORSDOF 15
ENDMDL
MODEL 4
REMARK VINA RESULT:      -7.0      2.586      7.964
REMARK  Name = 
REMARK  17 active torsions:
REMARK  status: ('A' for Active; 'I' for Inactive)
REMARK    1  A    between atoms: C_1  and  O_2
REMARK    2  A    between atoms: O_2  and  C_3
REMARK    3  A    between atoms: C_3  and  C_5
REMARK    4  A    between atoms: C_5  and  C_6
REMARK    5  A    between atoms: C_6  and  C_7
REMARK    6  A    between atoms: C_8  and  C_9
REMARK    7  A    between atoms: C_9  and  C_10
REMARK    8  A    between atoms: C_10  and  C_11
REMARK    9  A    between atoms: C_15  and  O_16
REMARK   10  A    between atoms: C_17  and  C_18
REMARK   11  A    between atoms: C_19  and  C_20
REMARK   12  A    between atoms: C_20  and  C_21
REMARK   13  A    between atoms: C_21  and  C_22
REMARK   14  A    between atoms: C_21  and  O_23
REMARK   15  A    between atoms: C_21  and  C_24
REMARK   16  A    between atoms: C_24  and  C_25
REMARK   17  A    between atoms: C_25  and  C_26
REMARK                            x       y       z     vdW  Elec       q    Type
REMARK                         _______ _______ _______ _____ _____    ______ ____
ROOT
ATOM      1  C   UNL     1       3.585   3.981  18.684  0.00  0.00    +0.000 C 
ATOM      2  C   UNL     1       3.039   2.567  18.559  0.00  0.00    +0.000 C 
ATOM      3  O   UNL     1       3.561   1.676  17.901  0.00  0.00    +0.000 OA
ATOM      4  C   UNL     1       1.765   2.368  19.318  0.00  0.00    +0.000 C 
ATOM      5  C   UNL     1       1.271   3.797  19.390  0.00  0.00    +0.000 C 
ATOM      6  C   UNL     1       2.543   4.645  19.618  0.00  0.00    +0.000 C 
ENDROOT
BRANCH   5   7
ATOM      7  O   UNL     1       0.314   3.951  20.427  0.00  0.00    +0.000 OA
ATOM      8  H   UNL     1      -0.317   3.213  20.390  0.00  0.00    +0.000 HD
ENDBRANCH   5   7
BRANCH   6   9
ATOM      9  C   UNL     1       2.417   6.126  19.323  0.00  0.00    +0.000 C 
ATOM     10  C   UNL     1       2.014   7.044  20.216  0.00  0.00    +0.000 C 
BRANCH  10  11
ATOM     11  C   UNL     1       1.747   8.497  19.940  0.00  0.00    +0.000 C 
BRANCH  11  12
ATOM     12  C   UNL     1       0.728   9.123  20.935  0.00  0.00    +0.000 C 
ATOM     13  C   UNL     1      -0.254   8.069  21.469  0.00  0.00    +0.000 C 
BRANCH  12  14
ATOM     14  O   UNL     1       1.433   9.696  22.048  0.00  0.00    +0.000 OA
ATOM     15  H   UNL     1       2.309   9.281  22.097  0.00  0.00    +0.000 HD
ENDBRANCH  12  14
BRANCH  12  16
ATOM     16  C   UNL     1      -0.004  10.286  20.230  0.00  0.00    +0.000 C 
BRANCH  16  17
ATOM     17  C   UNL     1      -0.020  10.160  18.701  0.00  0.00    +0.000 C 
BRANCH  17  18
ATOM     18  C   UNL     1      -1.367  10.415  18.104  0.00  0.00    +0.000 C 
ATOM     19  C   UNL     1      -1.869   9.823  17.015  0.00  0.00    +0.000 C 
ATOM     20  C   UNL     1      -3.252  10.283  16.716  0.00  0.00    +0.000 C 
ATOM     21  C   UNL     1      -3.631  11.094  17.955  0.00  0.00    +0.000 C 
ATOM     22  C   UNL     1      -2.335  11.378  18.714  0.00  0.00    +0.000 C 
ENDBRANCH  17  18
ENDBRANCH  16  17
ENDBRANCH  12  16
ENDBRANCH  11  12
ENDBRANCH  10  11
ENDBRANCH   6   9
BRANCH   1  23
ATOM     23  C   UNL     1       4.995   4.045  19.277  0.00  0.00    +0.000 C 
BRANCH  23  24
ATOM     24  C   UNL     1       5.822   5.267  18.874  0.00  0.00    +0.000 C 
BRANCH  24  26
ATOM     25  C   UNL     1       7.271   4.821  16.866  0.00  0.00    +0.000 C 
ATOM     26  C   UNL     1       7.132   4.959  18.199  0.00  0.00    +0.000 C 
BRANCH  25  27
ATOM     27  C   UNL     1       6.113   4.979  15.922  0.00  0.00    +0.000 C 
BRANCH  27  28
ATOM     28  C   UNL     1       5.996   3.875  14.879  0.00  0.00    +0.000 C 
BRANCH  28  29
ATOM     29  C   UNL     1       6.716   4.293  13.618  0.00  0.00    +0.000 C 
ATOM     30  O   UNL     1       7.425   5.288  13.503  0.00  0.00    +0.000 OA
BRANCH  29  32
ATOM     31  C   UNL     1       5.122   3.480  12.125  0.00  0.00    +0.000 C 
ATOM     32  O   UNL     1       6.460   3.404  12.624  0.00  0.00    +0.000 OA
ENDBRANCH  29  32
ENDBRANCH  28  29
ENDBRANCH  27  28
ENDBRANCH  25  27
ENDBRANCH  24  26
ENDBRANCH  23  24
ENDBRANCH   1  23
TORSDOF 15
ENDMDL
MODEL 5
REMARK VINA RESULT:      -6.9      1.813      5.667
REMARK  Name = 
REMARK  17 active torsions:
REMARK  status: ('A' for Active; 'I' for Inactive)
REMARK    1  A    between atoms: C_1  and  O_2
REMARK    2  A    between atoms: O_2  and  C_3
REMARK    3  A    between atoms: C_3  and  C_5
REMARK    4  A    between atoms: C_5  and  C_6
REMARK    5  A    between atoms: C_6  and  C_7
REMARK    6  A    between atoms: C_8  and  C_9
REMARK    7  A    between atoms: C_9  and  C_10
REMARK    8  A    between atoms: C_10  and  C_11
REMARK    9  A    between atoms: C_15  and  O_16
REMARK   10  A    between atoms: C_17  and  C_18
REMARK   11  A    between atoms: C_19  and  C_20
REMARK   12  A    between atoms: C_20  and  C_21
REMARK   13  A    between atoms: C_21  and  C_22
REMARK   14  A    between atoms: C_21  and  O_23
REMARK   15  A    between atoms: C_21  and  C_24
REMARK   16  A    between atoms: C_24  and  C_25
REMARK   17  A    between atoms: C_25  and  C_26
REMARK                            x       y       z     vdW  Elec       q    Type
REMARK                         _______ _______ _______ _____ _____    ______ ____
ROOT
ATOM      1  C   UNL     1       2.935   4.281  19.863  0.00  0.00    +0.000 C 
ATOM      2  C   UNL     1       2.086   3.723  20.995  0.00  0.00    +0.000 C 
ATOM      3  O   UNL     1       2.359   3.825  22.184  0.00  0.00    +0.000 OA
ATOM      4  C   UNL     1       0.869   3.003  20.506  0.00  0.00    +0.000 C 
ATOM      5  C   UNL     1       1.318   2.638  19.107  0.00  0.00    +0.000 C 
ATOM      6  C   UNL     1       2.118   3.864  18.614  0.00  0.00    +0.000 C 
ENDROOT
BRANCH   5   7
ATOM      7  O   UNL     1       0.205   2.338  18.279  0.00  0.00    +0.000 OA
ATOM      8  H   UNL     1      -0.463   1.865  18.803  0.00  0.00    +0.000 HD
ENDBRANCH   5   7
BRANCH   6   9
ATOM      9  C   UNL     1       3.027   3.633  17.425  0.00  0.00    +0.000 C 
ATOM     10  C   UNL     1       4.369   3.669  17.478  0.00  0.00    +0.000 C 
BRANCH  10  11
ATOM     11  C   UNL     1       5.309   3.577  16.309  0.00  0.00    +0.000 C 
BRANCH  11  12
ATOM     12  C   UNL     1       6.121   4.885  16.085  0.00  0.00    +0.000 C 
ATOM     13  C   UNL     1       5.620   6.019  16.991  0.00  0.00    +0.000 C 
BRANCH  12  14
ATOM     14  O   UNL     1       7.507   4.645  16.376  0.00  0.00    +0.000 OA
ATOM     15  H   UNL     1       8.007   4.712  15.546  0.00  0.00    +0.000 HD
ENDBRANCH  12  14
BRANCH  12  16
ATOM     16  C   UNL     1       6.043   5.266  14.589  0.00  0.00    +0.000 C 
BRANCH  16  17
ATOM     17  C   UNL     1       6.847   4.330  13.678  0.00  0.00    +0.000 C 
BRANCH  17  18
ATOM     18  C   UNL     1       5.992   3.567  12.718  0.00  0.00    +0.000 C 
ATOM     19  C   UNL     1       4.763   3.908  12.315  0.00  0.00    +0.000 C 
ATOM     20  C   UNL     1       4.210   2.943  11.328  0.00  0.00    +0.000 C 
ATOM     21  C   UNL     1       5.408   2.056  10.990  0.00  0.00    +0.000 C 
ATOM     22  C   UNL     1       6.463   2.306  12.068  0.00  0.00    +0.000 C 
ENDBRANCH  17  18
ENDBRANCH  16  17
ENDBRANCH  12  16
ENDBRANCH  11  12
ENDBRANCH  10  11
ENDBRANCH   6   9
BRANCH   1  23
ATOM     23  C   UNL     1       3.128   5.799  19.930  0.00  0.00    +0.000 C 
BRANCH  23  24
ATOM     24  C   UNL     1       2.013   6.630  19.293  0.00  0.00    +0.000 C 
BRANCH  24  26
ATOM     25  C   UNL     1       2.100   8.779  17.988  0.00  0.00    +0.000 C 
ATOM     26  C   UNL     1       2.435   7.482  18.126  0.00  0.00    +0.000 C 
BRANCH  25  27
ATOM     27  C   UNL     1       1.274   9.504  19.012  0.00  0.00    +0.000 C 
BRANCH  27  28
ATOM     28  C   UNL     1      -0.056  10.030  18.490  0.00  0.00    +0.000 C 
BRANCH  28  29
ATOM     29  C   UNL     1      -0.116  11.528  18.679  0.00  0.00    +0.000 C 
ATOM     30  O   UNL     1       0.682  12.193  19.333  0.00  0.00    +0.000 OA
BRANCH  29  32
ATOM     31  C   UNL     1      -2.174  11.049  17.698  0.00  0.00    +0.000 C 
ATOM     32  O   UNL     1      -1.189  12.034  18.018  0.00  0.00    +0.000 OA
ENDBRANCH  29  32
ENDBRANCH  28  29
ENDBRANCH  27  28
ENDBRANCH  25  27
ENDBRANCH  24  26
ENDBRANCH  23  24
ENDBRANCH   1  23
TORSDOF 15
ENDMDL
MODEL 6
REMARK VINA RESULT:      -6.9      3.218      8.397
REMARK  Name = 
REMARK  17 active torsions:
REMARK  status: ('A' for Active; 'I' for Inactive)
REMARK    1  A    between atoms: C_1  and  O_2
REMARK    2  A    between atoms: O_2  and  C_3
REMARK    3  A    between atoms: C_3  and  C_5
REMARK    4  A    between atoms: C_5  and  C_6
REMARK    5  A    between atoms: C_6  and  C_7
REMARK    6  A    between atoms: C_8  and  C_9
REMARK    7  A    between atoms: C_9  and  C_10
REMARK    8  A    between atoms: C_10  and  C_11
REMARK    9  A    between atoms: C_15  and  O_16
REMARK   10  A    between atoms: C_17  and  C_18
REMARK   11  A    between atoms: C_19  and  C_20
REMARK   12  A    between atoms: C_20  and  C_21
REMARK   13  A    between atoms: C_21  and  C_22
REMARK   14  A    between atoms: C_21  and  O_23
REMARK   15  A    between atoms: C_21  and  C_24
REMARK   16  A    between atoms: C_24  and  C_25
REMARK   17  A    between atoms: C_25  and  C_26
REMARK                            x       y       z     vdW  Elec       q    Type
REMARK                         _______ _______ _______ _____ _____    ______ ____
ROOT
ATOM      1  C   UNL     1       6.321   5.255  17.495  0.00  0.00    +0.000 C 
ATOM      2  C   UNL     1       6.342   5.066  15.986  0.00  0.00    +0.000 C 
ATOM      3  O   UNL     1       6.762   5.894  15.188  0.00  0.00    +0.000 OA
ATOM      4  C   UNL     1       5.769   3.752  15.558  0.00  0.00    +0.000 C 
ATOM      5  C   UNL     1       4.891   3.442  16.752  0.00  0.00    +0.000 C 
ATOM      6  C   UNL     1       5.703   3.919  17.976  0.00  0.00    +0.000 C 
ENDROOT
BRANCH   5   7
ATOM      7  O   UNL     1       4.576   2.059  16.805  0.00  0.00    +0.000 OA
ATOM      8  H   UNL     1       3.858   1.920  17.445  0.00  0.00    +0.000 HD
ENDBRANCH   5   7
BRANCH   6   9
ATOM      9  C   UNL     1       4.921   4.115  19.259  0.00  0.00    +0.000 C 
ATOM     10  C   UNL     1       3.898   3.336  19.649  0.00  0.00    +0.000 C 
BRANCH  10  11
ATOM     11  C   UNL     1       3.009   3.565  20.839  0.00  0.00    +0.000 C 
BRANCH  11  12
ATOM     12  C   UNL     1       1.497   3.441  20.494  0.00  0.00    +0.000 C 
ATOM     13  C   UNL     1       1.276   2.591  19.234  0.00  0.00    +0.000 C 
BRANCH  12  14
ATOM     14  O   UNL     1       0.804   2.822  21.590  0.00  0.00    +0.000 OA
ATOM     15  H   UNL     1       0.287   2.078  21.241  0.00  0.00    +0.000 HD
ENDBRANCH  12  14
BRANCH  12  16
ATOM     16  C   UNL     1       0.905   4.860  20.343  0.00  0.00    +0.000 C 
BRANCH  16  17
ATOM     17  C   UNL     1       1.861   5.971  20.794  0.00  0.00    +0.000 C 
BRANCH  17  18
ATOM     18  C   UNL     1       2.076   7.021  19.751  0.00  0.00    +0.000 C 
ATOM     19  C   UNL     1       2.771   6.873  18.619  0.00  0.00    +0.000 C 
ATOM     20  C   UNL     1       2.758   8.108  17.789  0.00  0.00    +0.000 C 
ATOM     21  C   UNL     1       1.721   8.990  18.484  0.00  0.00    +0.000 C 
ATOM     22  C   UNL     1       1.484   8.389  19.870  0.00  0.00    +0.000 C 
ENDBRANCH  17  18
ENDBRANCH  16  17
ENDBRANCH  12  16
ENDBRANCH  11  12
ENDBRANCH  10  11
ENDBRANCH   6   9
BRANCH   1  23
ATOM     23  C   UNL     1       7.707   5.487  18.104  0.00  0.00    +0.000 C 
BRANCH  23  24
ATOM     24  C   UNL     1       7.950   6.889  18.666  0.00  0.00    +0.000 C 
BRANCH  24  26
ATOM     25  C   UNL     1       8.260   9.258  17.882  0.00  0.00    +0.000 C 
ATOM     26  C   UNL     1       7.790   8.013  17.678  0.00  0.00    +0.000 C 
BRANCH  25  27
ATOM     27  C   UNL     1       9.012   9.635  19.127  0.00  0.00    +0.000 C 
BRANCH  27  28
ATOM     28  C   UNL     1      10.000  10.779  18.943  0.00  0.00    +0.000 C 
BRANCH  28  29
ATOM     29  C   UNL     1       9.395  12.059  19.471  0.00  0.00    +0.000 C 
ATOM     30  O   UNL     1       8.909  12.205  20.589  0.00  0.00    +0.000 OA
BRANCH  29  32
ATOM     31  C   UNL     1       8.335  13.057  17.652  0.00  0.00    +0.000 C 
ATOM     32  O   UNL     1       9.468  13.029  18.524  0.00  0.00    +0.000 OA
ENDBRANCH  29  32
ENDBRANCH  28  29
ENDBRANCH  27  28
ENDBRANCH  25  27
ENDBRANCH  24  26
ENDBRANCH  23  24
ENDBRANCH   1  23
TORSDOF 15
ENDMDL
MODEL 7
REMARK VINA RESULT:      -6.9      1.915      5.762
REMARK  Name = 
REMARK  17 active torsions:
REMARK  status: ('A' for Active; 'I' for Inactive)
REMARK    1  A    between atoms: C_1  and  O_2
REMARK    2  A    between atoms: O_2  and  C_3
REMARK    3  A    between atoms: C_3  and  C_5
REMARK    4  A    between atoms: C_5  and  C_6
REMARK    5  A    between atoms: C_6  and  C_7
REMARK    6  A    between atoms: C_8  and  C_9
REMARK    7  A    between atoms: C_9  and  C_10
REMARK    8  A    between atoms: C_10  and  C_11
REMARK    9  A    between atoms: C_15  and  O_16
REMARK   10  A    between atoms: C_17  and  C_18
REMARK   11  A    between atoms: C_19  and  C_20
REMARK   12  A    between atoms: C_20  and  C_21
REMARK   13  A    between atoms: C_21  and  C_22
REMARK   14  A    between atoms: C_21  and  O_23
REMARK   15  A    between atoms: C_21  and  C_24
REMARK   16  A    between atoms: C_24  and  C_25
REMARK   17  A    between atoms: C_25  and  C_26
REMARK                            x       y       z     vdW  Elec       q    Type
REMARK                         _______ _______ _______ _____ _____    ______ ____
ROOT
ATOM      1  C   UNL     1       3.085   3.767  19.879  0.00  0.00    +0.000 C 
ATOM      2  C   UNL     1       2.260   3.122  20.982  0.00  0.00    +0.000 C 
ATOM      3  O   UNL     1       2.568   3.116  22.167  0.00  0.00    +0.000 OA
ATOM      4  C   UNL     1       1.018   2.465  20.469  0.00  0.00    +0.000 C 
ATOM      5  C   UNL     1       1.421   2.219  19.031  0.00  0.00    +0.000 C 
ATOM      6  C   UNL     1       2.227   3.473  18.624  0.00  0.00    +0.000 C 
ENDROOT
BRANCH   5   7
ATOM      7  O   UNL     1       0.281   2.008  18.213  0.00  0.00    +0.000 OA
ATOM      8  H   UNL     1      -0.094   1.133  18.408  0.00  0.00    +0.000 HD
ENDBRANCH   5   7
BRANCH   6   9
ATOM      9  C   UNL     1       3.098   3.335  17.392  0.00  0.00    +0.000 C 
ATOM     10  C   UNL     1       4.413   3.607  17.360  0.00  0.00    +0.000 C 
BRANCH  10  11
ATOM     11  C   UNL     1       5.291   3.613  16.140  0.00  0.00    +0.000 C 
BRANCH  11  12
ATOM     12  C   UNL     1       6.053   4.957  15.953  0.00  0.00    +0.000 C 
ATOM     13  C   UNL     1       5.461   6.066  16.837  0.00  0.00    +0.000 C 
BRANCH  12  14
ATOM     14  O   UNL     1       7.434   4.778  16.307  0.00  0.00    +0.000 OA
ATOM     15  H   UNL     1       7.979   5.165  15.603  0.00  0.00    +0.000 HD
ENDBRANCH  12  14
BRANCH  12  16
ATOM     16  C   UNL     1       6.026   5.338  14.456  0.00  0.00    +0.000 C 
BRANCH  16  17
ATOM     17  C   UNL     1       7.002   4.520  13.601  0.00  0.00    +0.000 C 
BRANCH  17  18
ATOM     18  C   UNL     1       6.317   3.659  12.588  0.00  0.00    +0.000 C 
ATOM     19  C   UNL     1       6.845   2.596  11.974  0.00  0.00    +0.000 C 
ATOM     20  C   UNL     1       5.878   1.947  11.049  0.00  0.00    +0.000 C 
ATOM     21  C   UNL     1       4.557   2.645  11.370  0.00  0.00    +0.000 C 
ATOM     22  C   UNL     1       4.902   3.903  12.169  0.00  0.00    +0.000 C 
ENDBRANCH  17  18
ENDBRANCH  16  17
ENDBRANCH  12  16
ENDBRANCH  11  12
ENDBRANCH  10  11
ENDBRANCH   6   9
BRANCH   1  23
ATOM     23  C   UNL     1       3.304   5.270  20.074  0.00  0.00    +0.000 C 
BRANCH  23  24
ATOM     24  C   UNL     1       2.030   6.105  20.218  0.00  0.00    +0.000 C 
BRANCH  24  26
ATOM     25  C   UNL     1       1.623   8.587  20.232  0.00  0.00    +0.000 C 
ATOM     26  C   UNL     1       2.097   7.485  19.620  0.00  0.00    +0.000 C 
BRANCH  25  27
ATOM     27  C   UNL     1       0.990   8.535  21.594  0.00  0.00    +0.000 C 
BRANCH  27  28
ATOM     28  C   UNL     1      -0.458   9.008  21.632  0.00  0.00    +0.000 C 
BRANCH  28  29
ATOM     29  C   UNL     1      -0.505  10.456  22.061  0.00  0.00    +0.000 C 
ATOM     30  O   UNL     1      -0.089  10.893  23.130  0.00  0.00    +0.000 OA
BRANCH  29  32
ATOM     31  C   UNL     1      -0.135  11.942  20.305  0.00  0.00    +0.000 C 
ATOM     32  O   UNL     1      -1.080  11.207  21.087  0.00  0.00    +0.000 OA
ENDBRANCH  29  32
ENDBRANCH  28  29
ENDBRANCH  27  28
ENDBRANCH  25  27
ENDBRANCH  24  26
ENDBRANCH  23  24
ENDBRANCH   1  23
TORSDOF 15
ENDMDL
MODEL 8
REMARK VINA RESULT:      -6.8      2.162      5.757
REMARK  Name = 
REMARK  17 active torsions:
REMARK  status: ('A' for Active; 'I' for Inactive)
REMARK    1  A    between atoms: C_1  and  O_2
REMARK    2  A    between atoms: O_2  and  C_3
REMARK    3  A    between atoms: C_3  and  C_5
REMARK    4  A    between atoms: C_5  and  C_6
REMARK    5  A    between atoms: C_6  and  C_7
REMARK    6  A    between atoms: C_8  and  C_9
REMARK    7  A    between atoms: C_9  and  C_10
REMARK    8  A    between atoms: C_10  and  C_11
REMARK    9  A    between atoms: C_15  and  O_16
REMARK   10  A    between atoms: C_17  and  C_18
REMARK   11  A    between atoms: C_19  and  C_20
REMARK   12  A    between atoms: C_20  and  C_21
REMARK   13  A    between atoms: C_21  and  C_22
REMARK   14  A    between atoms: C_21  and  O_23
REMARK   15  A    between atoms: C_21  and  C_24
REMARK   16  A    between atoms: C_24  and  C_25
REMARK   17  A    between atoms: C_25  and  C_26
REMARK                            x       y       z     vdW  Elec       q    Type
REMARK                         _______ _______ _______ _____ _____    ______ ____
ROOT
ATOM      1  C   UNL     1       2.328   4.158  20.310  0.00  0.00    +0.000 C 
ATOM      2  C   UNL     1       1.902   2.812  20.874  0.00  0.00    +0.000 C 
ATOM      3  O   UNL     1       1.801   2.558  22.068  0.00  0.00    +0.000 OA
ATOM      4  C   UNL     1       1.630   1.797  19.809  0.00  0.00    +0.000 C 
ATOM      5  C   UNL     1       2.457   2.369  18.678  0.00  0.00    +0.000 C 
ATOM      6  C   UNL     1       2.272   3.899  18.784  0.00  0.00    +0.000 C 
ENDROOT
BRANCH   5   7
ATOM      7  O   UNL     1       2.035   1.849  17.427  0.00  0.00    +0.000 OA
ATOM      8  H   UNL     1       2.817   1.609  16.901  0.00  0.00    +0.000 HD
ENDBRANCH   5   7
BRANCH   6   9
ATOM      9  C   UNL     1       3.293   4.746  18.053  0.00  0.00    +0.000 C 
ATOM     10  C   UNL     1       4.413   5.234  18.612  0.00  0.00    +0.000 C 
BRANCH  10  11
ATOM     11  C   UNL     1       5.386   6.183  17.972  0.00  0.00    +0.000 C 
BRANCH  11  12
ATOM     12  C   UNL     1       6.845   5.640  17.970  0.00  0.00    +0.000 C 
ATOM     13  C   UNL     1       7.858   6.752  18.281  0.00  0.00    +0.000 C 
BRANCH  12  14
ATOM     14  O   UNL     1       6.975   4.612  18.965  0.00  0.00    +0.000 OA
ATOM     15  H   UNL     1       7.607   4.917  19.635  0.00  0.00    +0.000 HD
ENDBRANCH  12  14
BRANCH  12  16
ATOM     16  C   UNL     1       7.123   4.973  16.605  0.00  0.00    +0.000 C 
BRANCH  16  17
ATOM     17  C   UNL     1       6.184   5.448  15.490  0.00  0.00    +0.000 C 
BRANCH  17  18
ATOM     18  C   UNL     1       6.389   4.723  14.199  0.00  0.00    +0.000 C 
ATOM     19  C   UNL     1       5.587   3.783  13.688  0.00  0.00    +0.000 C 
ATOM     20  C   UNL     1       6.069   3.293  12.369  0.00  0.00    +0.000 C 
ATOM     21  C   UNL     1       7.192   4.268  12.017  0.00  0.00    +0.000 C 
ATOM     22  C   UNL     1       7.550   5.015  13.302  0.00  0.00    +0.000 C 
ENDBRANCH  17  18
ENDBRANCH  16  17
ENDBRANCH  12  16
ENDBRANCH  11  12
ENDBRANCH  10  11
ENDBRANCH   6   9
BRANCH   1  23
ATOM     23  C   UNL     1       1.410   5.314  20.720  0.00  0.00    +0.000 C 
BRANCH  23  24
ATOM     24  C   UNL     1       1.316   6.464  19.716  0.00  0.00    +0.000 C 
BRANCH  24  26
ATOM     25  C   UNL     1       1.564   8.671  20.897  0.00  0.00    +0.000 C 
ATOM     26  C   UNL     1       2.068   7.711  20.098  0.00  0.00    +0.000 C 
BRANCH  25  27
ATOM     27  C   UNL     1       0.191   8.571  21.499  0.00  0.00    +0.000 C 
BRANCH  27  28
ATOM     28  C   UNL     1      -0.558   9.894  21.579  0.00  0.00    +0.000 C 
BRANCH  28  29
ATOM     29  C   UNL     1      -0.644  10.339  23.020  0.00  0.00    +0.000 C 
ATOM     30  O   UNL     1       0.038   9.900  23.941  0.00  0.00    +0.000 OA
BRANCH  29  32
ATOM     31  C   UNL     1      -1.812  12.049  21.951  0.00  0.00    +0.000 C 
ATOM     32  O   UNL     1      -1.594  11.302  23.150  0.00  0.00    +0.000 OA
ENDBRANCH  29  32
ENDBRANCH  28  29
ENDBRANCH  27  28
ENDBRANCH  25  27
ENDBRANCH  24  26
ENDBRANCH  23  24
ENDBRANCH   1  23
TORSDOF 15
ENDMDL
MODEL 9
REMARK VINA RESULT:      -6.8      2.455      8.035
REMARK  Name = 
REMARK  17 active torsions:
REMARK  status: ('A' for Active; 'I' for Inactive)
REMARK    1  A    between atoms: C_1  and  O_2
REMARK    2  A    between atoms: O_2  and  C_3
REMARK    3  A    between atoms: C_3  and  C_5
REMARK    4  A    between atoms: C_5  and  C_6
REMARK    5  A    between atoms: C_6  and  C_7
REMARK    6  A    between atoms: C_8  and  C_9
REMARK    7  A    between atoms: C_9  and  C_10
REMARK    8  A    between atoms: C_10  and  C_11
REMARK    9  A    between atoms: C_15  and  O_16
REMARK   10  A    between atoms: C_17  and  C_18
REMARK   11  A    between atoms: C_19  and  C_20
REMARK   12  A    between atoms: C_20  and  C_21
REMARK   13  A    between atoms: C_21  and  C_22
REMARK   14  A    between atoms: C_21  and  O_23
REMARK   15  A    between atoms: C_21  and  C_24
REMARK   16  A    between atoms: C_24  and  C_25
REMARK   17  A    between atoms: C_25  and  C_26
REMARK                            x       y       z     vdW  Elec       q    Type
REMARK                         _______ _______ _______ _____ _____    ______ ____
ROOT
ATOM      1  C   UNL     1       1.752   4.127  18.190  0.00  0.00    +0.000 C 
ATOM      2  C   UNL     1       1.201   3.266  19.317  0.00  0.00    +0.000 C 
ATOM      3  O   UNL     1       0.684   2.167  19.164  0.00  0.00    +0.000 OA
ATOM      4  C   UNL     1       1.335   3.913  20.660  0.00  0.00    +0.000 C 
ATOM      5  C   UNL     1       1.419   5.368  20.248  0.00  0.00    +0.000 C 
ATOM      6  C   UNL     1       2.270   5.368  18.959  0.00  0.00    +0.000 C 
ENDROOT
BRANCH   5   7
ATOM      7  O   UNL     1       1.986   6.156  21.282  0.00  0.00    +0.000 OA
ATOM      8  H   UNL     1       1.320   6.788  21.603  0.00  0.00    +0.000 HD
ENDBRANCH   5   7
BRANCH   6   9
ATOM      9  C   UNL     1       2.180   6.613  18.101  0.00  0.00    +0.000 C 
ATOM     10  C   UNL     1       2.476   7.851  18.530  0.00  0.00    +0.000 C 
BRANCH  10  11
ATOM     11  C   UNL     1       2.279   9.129  17.763  0.00  0.00    +0.000 C 
BRANCH  11  12
ATOM     12  C   UNL     1       1.284  10.102  18.460  0.00  0.00    +0.000 C 
ATOM     13  C   UNL     1       1.836  11.535  18.501  0.00  0.00    +0.000 C 
BRANCH  12  14
ATOM     14  O   UNL     1       0.040  10.112  17.741  0.00  0.00    +0.000 OA
ATOM     15  H   UNL     1      -0.268  11.030  17.681  0.00  0.00    +0.000 HD
ENDBRANCH  12  14
BRANCH  12  16
ATOM     16  C   UNL     1       0.972   9.564  19.874  0.00  0.00    +0.000 C 
BRANCH  16  17
ATOM     17  C   UNL     1      -0.506   9.690  20.263  0.00  0.00    +0.000 C 
BRANCH  17  18
ATOM     18  C   UNL     1      -0.793  10.897  21.097  0.00  0.00    +0.000 C 
ATOM     19  C   UNL     1      -1.254  12.070  20.650  0.00  0.00    +0.000 C 
ATOM     20  C   UNL     1      -1.463  13.046  21.752  0.00  0.00    +0.000 C 
ATOM     21  C   UNL     1      -1.284  12.201  23.013  0.00  0.00    +0.000 C 
ATOM     22  C   UNL     1      -0.611  10.897  22.581  0.00  0.00    +0.000 C 
ENDBRANCH  17  18
ENDBRANCH  16  17
ENDBRANCH  12  16
ENDBRANCH  11  12
ENDBRANCH  10  11
ENDBRANCH   6   9
BRANCH   1  23
ATOM     23  C   UNL     1       2.870   3.451  17.392  0.00  0.00    +0.000 C 
BRANCH  23  24
ATOM     24  C   UNL     1       4.069   2.975  18.214  0.00  0.00    +0.000 C 
BRANCH  24  26
ATOM     25  C   UNL     1       5.647   4.833  17.597  0.00  0.00    +0.000 C 
ATOM     26  C   UNL     1       5.093   4.033  18.527  0.00  0.00    +0.000 C 
BRANCH  25  27
ATOM     27  C   UNL     1       5.274   4.747  16.144  0.00  0.00    +0.000 C 
BRANCH  27  28
ATOM     28  C   UNL     1       6.110   3.762  15.337  0.00  0.00    +0.000 C 
BRANCH  28  29
ATOM     29  C   UNL     1       6.749   4.479  14.171  0.00  0.00    +0.000 C 
ATOM     30  O   UNL     1       7.522   5.428  14.258  0.00  0.00    +0.000 OA
BRANCH  29  32
ATOM     31  C   UNL     1       7.247   4.133  11.921  0.00  0.00    +0.000 C 
ATOM     32  O   UNL     1       6.339   3.917  13.004  0.00  0.00    +0.000 OA
ENDBRANCH  29  32
ENDBRANCH  28  29
ENDBRANCH  27  28
ENDBRANCH  25  27
ENDBRANCH  24  26
ENDBRANCH  23  24
ENDBRANCH   1  23
TORSDOF 15
ENDMDL
