MODEL 1
REMARK VINA RESULT:      -7.7      0.000      0.000
REMARK  Name = 
REMARK  4 active torsions:
REMARK  status: ('A' for Active; 'I' for Inactive)
REMARK    1  A    between atoms: C_2  and  C_3
REMARK    2  A    between atoms: C_2  and  C_21
REMARK    3  A    between atoms: C_4  and  O_5
REMARK    4  A    between atoms: C_15  and  C_16
REMARK                            x       y       z     vdW  Elec       q    Type
REMARK                         _______ _______ _______ _____ _____    ______ ____
ROOT
ATOM      1  C   UNL     1       4.328   6.159  18.303  0.00  0.00    +0.000 C 
ATOM      2  C   UNL     1       4.102   7.036  17.319  0.00  0.00    +0.000 C 
ATOM      3  C   UNL     1       2.984   7.914  17.762  0.00  0.00    +0.000 C 
ATOM      4  O   UNL     1       2.588   8.872  17.122  0.00  0.00    +0.000 OA
ATOM      5  N   UNL     1       2.619   7.461  19.016  0.00  0.00    +0.000 N 
ATOM      6  C   UNL     1       1.725   8.105  19.870  0.00  0.00    +0.000 A 
ATOM      7  N   UNL     1       0.796   8.918  19.357  0.00  0.00    +0.000 NA
ATOM      8  C   UNL     1      -0.089   9.467  20.207  0.00  0.00    +0.000 A 
ATOM      9  C   UNL     1      -0.059   9.270  21.564  0.00  0.00    +0.000 A 
ATOM     10  C   UNL     1       0.946   8.450  22.009  0.00  0.00    +0.000 A 
ATOM     11  N   UNL     1       1.828   7.843  21.192  0.00  0.00    +0.000 NA
ATOM     12  C   UNL     1       3.340   6.281  19.419  0.00  0.00    +0.000 C 
ENDROOT
BRANCH  12  13
ATOM     13  C   UNL     1       2.361   5.117  19.562  0.00  0.00    +0.000 A 
ATOM     14  C   UNL     1       1.631   4.496  18.562  0.00  0.00    +0.000 A 
ATOM     15  C   UNL     1       0.864   3.395  19.040  0.00  0.00    +0.000 A 
ATOM     16  C   UNL     1       0.997   3.224  20.397  0.00  0.00    +0.000 A 
ATOM     17  S   UNL     1       2.067   4.359  21.082  0.00  0.00    +0.000 S 
ENDBRANCH  12  13
BRANCH   1  19
ATOM     18  O   UNL     1       5.788   4.626  19.274  0.00  0.00    +0.000 OA
ATOM     19  C   UNL     1       5.349   5.093  18.222  0.00  0.00    +0.000 C 
BRANCH  19  20
ATOM     20  C   UNL     1       5.796   4.665  16.914  0.00  0.00    +0.000 A 
ATOM     21  C   UNL     1       5.264   3.764  16.011  0.00  0.00    +0.000 A 
ATOM     22  C   UNL     1       6.119   3.770  14.881  0.00  0.00    +0.000 A 
ATOM     23  C   UNL     1       7.102   4.691  15.149  0.00  0.00    +0.000 A 
ATOM     24  O   UNL     1       6.917   5.235  16.376  0.00  0.00    +0.000 OA
ENDBRANCH  19  20
ENDBRANCH   1  19
BRANCH   2  25
ATOM     25  O   UNL     1       4.749   7.157  16.119  0.00  0.00    +0.000 OA
ATOM     26  H   UNL     1       5.693   6.943  16.263  0.00  0.00    +0.000 HD
ENDBRANCH   2  25
TORSDOF 4
ENDMDL
MODEL 2
REMARK VINA RESULT:      -7.6      2.459      4.364
REMARK  Name = 
REMARK  4 active torsions:
REMARK  status: ('A' for Active; 'I' for Inactive)
REMARK    1  A    between atoms: C_2  and  C_3
REMARK    2  A    between atoms: C_2  and  C_21
REMARK    3  A    between atoms: C_4  and  O_5
REMARK    4  A    between atoms: C_15  and  C_16
REMARK                            x       y       z     vdW  Elec       q    Type
REMARK                         _______ _______ _______ _____ _____    ______ ____
ROOT
ATOM      1  C   UNL     1       5.438   5.054  17.292  0.00  0.00    +0.000 C 
ATOM      2  C   UNL     1       6.135   4.415  18.238  0.00  0.00    +0.000 C 
ATOM      3  C   UNL     1       5.149   3.768  19.146  0.00  0.00    +0.000 C 
ATOM      4  O   UNL     1       5.464   3.039  20.070  0.00  0.00    +0.000 OA
ATOM      5  N   UNL     1       3.902   4.098  18.651  0.00  0.00    +0.000 N 
ATOM      6  C   UNL     1       2.695   3.561  19.098  0.00  0.00    +0.000 A 
ATOM      7  N   UNL     1       2.613   3.077  20.342  0.00  0.00    +0.000 NA
ATOM      8  C   UNL     1       1.415   2.630  20.758  0.00  0.00    +0.000 A 
ATOM      9  C   UNL     1       0.298   2.605  19.962  0.00  0.00    +0.000 A 
ATOM     10  C   UNL     1       0.479   3.089  18.692  0.00  0.00    +0.000 A 
ATOM     11  N   UNL     1       1.648   3.587  18.246  0.00  0.00    +0.000 NA
ATOM     12  C   UNL     1       3.963   5.000  17.530  0.00  0.00    +0.000 C 
ENDROOT
BRANCH  12  13
ATOM     13  C   UNL     1       3.309   6.326  17.913  0.00  0.00    +0.000 A 
ATOM     14  C   UNL     1       3.074   7.422  17.099  0.00  0.00    +0.000 A 
ATOM     15  C   UNL     1       2.381   8.470  17.769  0.00  0.00    +0.000 A 
ATOM     16  C   UNL     1       2.135   8.166  19.087  0.00  0.00    +0.000 A 
ATOM     17  S   UNL     1       2.704   6.614  19.501  0.00  0.00    +0.000 S 
ENDBRANCH  12  13
BRANCH   1  19
ATOM     18  O   UNL     1       6.299   7.040  16.431  0.00  0.00    +0.000 OA
ATOM     19  C   UNL     1       6.069   5.849  16.217  0.00  0.00    +0.000 C 
BRANCH  19  20
ATOM     20  C   UNL     1       6.367   5.195  14.960  0.00  0.00    +0.000 A 
ATOM     21  C   UNL     1       5.677   4.242  14.234  0.00  0.00    +0.000 A 
ATOM     22  C   UNL     1       6.437   3.996  13.064  0.00  0.00    +0.000 A 
ATOM     23  C   UNL     1       7.526   4.830  13.131  0.00  0.00    +0.000 A 
ATOM     24  O   UNL     1       7.494   5.556  14.275  0.00  0.00    +0.000 OA
ENDBRANCH  19  20
ENDBRANCH   1  19
BRANCH   2  25
ATOM     25  O   UNL     1       7.492   4.329  18.385  0.00  0.00    +0.000 OA
ATOM     26  H   UNL     1       7.821   5.204  18.675  0.00  0.00    +0.000 HD
ENDBRANCH   2  25
TORSDOF 4
ENDMDL
MODEL 3
REMARK VINA RESULT:      -7.5      1.321      1.954
REMARK  Name = 
REMARK  4 active torsions:
REMARK  status: ('A' for Active; 'I' for Inactive)
REMARK    1  A    between atoms: C_2  and  C_3
REMARK    2  A    between atoms: C_2  and  C_21
REMARK    3  A    between atoms: C_4  and  O_5
REMARK    4  A    between atoms: C_15  and  C_16
REMARK                            x       y       z     vdW  Elec       q    Type
REMARK                         _______ _______ _______ _____ _____    ______ ____
ROOT
ATOM      1  C   UNL     1       4.281   5.965  18.408  0.00  0.00    +0.000 C 
ATOM      2  C   UNL     1       4.100   6.798  17.377  0.00  0.00    +0.000 C 
ATOM      3  C   UNL     1       3.030   7.755  17.771  0.00  0.00    +0.000 C 
ATOM      4  O   UNL     1       2.683   8.696  17.079  0.00  0.00    +0.000 OA
ATOM      5  N   UNL     1       2.644   7.390  19.047  0.00  0.00    +0.000 N 
ATOM      6  C   UNL     1       1.785   8.125  19.864  0.00  0.00    +0.000 A 
ATOM      7  N   UNL     1       0.898   8.956  19.305  0.00  0.00    +0.000 NA
ATOM      8  C   UNL     1       0.044   9.595  20.123  0.00  0.00    +0.000 A 
ATOM      9  C   UNL     1       0.066   9.471  21.489  0.00  0.00    +0.000 A 
ATOM     10  C   UNL     1       1.028   8.625  21.979  0.00  0.00    +0.000 A 
ATOM     11  N   UNL     1       1.876   7.930  21.197  0.00  0.00    +0.000 NA
ATOM     12  C   UNL     1       3.303   6.199  19.515  0.00  0.00    +0.000 C 
ENDROOT
BRANCH  12  13
ATOM     13  C   UNL     1       2.265   5.096  19.719  0.00  0.00    +0.000 A 
ATOM     14  C   UNL     1       1.386   4.576  18.784  0.00  0.00    +0.000 A 
ATOM     15  C   UNL     1       0.601   3.505  19.300  0.00  0.00    +0.000 A 
ATOM     16  C   UNL     1       0.872   3.257  20.624  0.00  0.00    +0.000 A 
ATOM     17  S   UNL     1       2.090   4.283  21.229  0.00  0.00    +0.000 S 
ENDBRANCH  12  13
BRANCH   1  19
ATOM     18  O   UNL     1       6.433   5.102  18.177  0.00  0.00    +0.000 OA
ATOM     19  C   UNL     1       5.246   4.845  18.387  0.00  0.00    +0.000 C 
BRANCH  19  20
ATOM     20  C   UNL     1       4.749   3.502  18.594  0.00  0.00    +0.000 A 
ATOM     21  C   UNL     1       4.059   2.640  17.762  0.00  0.00    +0.000 A 
ATOM     22  C   UNL     1       3.860   1.443  18.494  0.00  0.00    +0.000 A 
ATOM     23  C   UNL     1       4.463   1.635  19.713  0.00  0.00    +0.000 A 
ATOM     24  O   UNL     1       5.000   2.877  19.784  0.00  0.00    +0.000 OA
ENDBRANCH  19  20
ENDBRANCH   1  19
BRANCH   2  25
ATOM     25  O   UNL     1       4.751   6.820  16.174  0.00  0.00    +0.000 OA
ATOM     26  H   UNL     1       4.106   6.582  15.478  0.00  0.00    +0.000 HD
ENDBRANCH   2  25
TORSDOF 4
ENDMDL
MODEL 4
REMARK VINA RESULT:      -7.4      2.769      4.808
REMARK  Name = 
REMARK  4 active torsions:
REMARK  status: ('A' for Active; 'I' for Inactive)
REMARK    1  A    between atoms: C_2  and  C_3
REMARK    2  A    between atoms: C_2  and  C_21
REMARK    3  A    between atoms: C_4  and  O_5
REMARK    4  A    between atoms: C_15  and  C_16
REMARK                            x       y       z     vdW  Elec       q    Type
REMARK                         _______ _______ _______ _____ _____    ______ ____
ROOT
ATOM      1  C   UNL     1       5.729   4.713  15.622  0.00  0.00    +0.000 C 
ATOM      2  C   UNL     1       5.251   3.590  16.169  0.00  0.00    +0.000 C 
ATOM      3  C   UNL     1       4.357   3.993  17.288  0.00  0.00    +0.000 C 
ATOM      4  O   UNL     1       3.700   3.202  17.942  0.00  0.00    +0.000 OA
ATOM      5  N   UNL     1       4.386   5.375  17.320  0.00  0.00    +0.000 N 
ATOM      6  C   UNL     1       3.557   6.175  18.106  0.00  0.00    +0.000 A 
ATOM      7  N   UNL     1       3.032   5.673  19.228  0.00  0.00    +0.000 NA
ATOM      8  C   UNL     1       2.293   6.497  19.991  0.00  0.00    +0.000 A 
ATOM      9  C   UNL     1       2.019   7.798  19.656  0.00  0.00    +0.000 A 
ATOM     10  C   UNL     1       2.570   8.221  18.474  0.00  0.00    +0.000 A 
ATOM     11  N   UNL     1       3.352   7.447  17.698  0.00  0.00    +0.000 NA
ATOM     12  C   UNL     1       5.308   5.939  16.369  0.00  0.00    +0.000 C 
ENDROOT
BRANCH  12  13
ATOM     13  C   UNL     1       6.422   6.668  17.117  0.00  0.00    +0.000 A 
ATOM     14  C   UNL     1       6.824   7.985  16.967  0.00  0.00    +0.000 A 
ATOM     15  C   UNL     1       7.854   8.357  17.878  0.00  0.00    +0.000 A 
ATOM     16  C   UNL     1       8.239   7.307  18.677  0.00  0.00    +0.000 A 
ATOM     17  S   UNL     1       7.340   5.896  18.355  0.00  0.00    +0.000 S 
ENDBRANCH  12  13
BRANCH   1  19
ATOM     18  O   UNL     1       7.740   5.346  14.632  0.00  0.00    +0.000 OA
ATOM     19  C   UNL     1       6.684   4.725  14.495  0.00  0.00    +0.000 C 
BRANCH  19  20
ATOM     20  C   UNL     1       6.327   4.025  13.280  0.00  0.00    +0.000 A 
ATOM     21  C   UNL     1       7.101   3.454  12.286  0.00  0.00    +0.000 A 
ATOM     22  C   UNL     1       6.203   2.881  11.352  0.00  0.00    +0.000 A 
ATOM     23  C   UNL     1       4.941   3.109  11.843  0.00  0.00    +0.000 A 
ATOM     24  O   UNL     1       5.006   3.802  13.006  0.00  0.00    +0.000 OA
ENDBRANCH  19  20
ENDBRANCH   1  19
BRANCH   2  25
ATOM     25  O   UNL     1       5.495   2.294  15.805  0.00  0.00    +0.000 OA
ATOM     26  H   UNL     1       6.318   2.005  16.249  0.00  0.00    +0.000 HD
ENDBRANCH   2  25
TORSDOF 4
ENDMDL
MODEL 5
REMARK VINA RESULT:      -6.8      1.592      2.193
REMARK  Name = 
REMARK  4 active torsions:
REMARK  status: ('A' for Active; 'I' for Inactive)
REMARK    1  A    between atoms: C_2  and  C_3
REMARK    2  A    between atoms: C_2  and  C_21
REMARK    3  A    between atoms: C_4  and  O_5
REMARK    4  A    between atoms: C_15  and  C_16
REMARK                            x       y       z     vdW  Elec       q    Type
REMARK                         _______ _______ _______ _____ _____    ______ ____
ROOT
ATOM      1  C   UNL     1       4.429   5.782  18.561  0.00  0.00    +0.000 C 
ATOM      2  C   UNL     1       4.404   6.600  17.503  0.00  0.00    +0.000 C 
ATOM      3  C   UNL     1       3.325   7.596  17.745  0.00  0.00    +0.000 C 
ATOM      4  O   UNL     1       3.097   8.533  17.000  0.00  0.00    +0.000 OA
ATOM      5  N   UNL     1       2.772   7.268  18.968  0.00  0.00    +0.000 N 
ATOM      6  C   UNL     1       1.842   8.044  19.660  0.00  0.00    +0.000 A 
ATOM      7  N   UNL     1       1.059   8.891  18.982  0.00  0.00    +0.000 NA
ATOM      8  C   UNL     1       0.131   9.571  19.676  0.00  0.00    +0.000 A 
ATOM      9  C   UNL     1      -0.021   9.473  21.036  0.00  0.00    +0.000 A 
ATOM     10  C   UNL     1       0.844   8.608  21.656  0.00  0.00    +0.000 A 
ATOM     11  N   UNL     1       1.760   7.873  20.997  0.00  0.00    +0.000 NA
ATOM     12  C   UNL     1       3.328   6.067  19.533  0.00  0.00    +0.000 C 
ENDROOT
BRANCH  12  13
ATOM     13  C   UNL     1       2.239   5.000  19.623  0.00  0.00    +0.000 A 
ATOM     14  C   UNL     1       1.736   4.396  20.764  0.00  0.00    +0.000 A 
ATOM     15  C   UNL     1       0.673   3.490  20.488  0.00  0.00    +0.000 A 
ATOM     16  C   UNL     1       0.413   3.395  19.141  0.00  0.00    +0.000 A 
ATOM     17  S   UNL     1       1.419   4.419  18.223  0.00  0.00    +0.000 S 
ENDBRANCH  12  13
BRANCH   1  19
ATOM     18  O   UNL     1       6.564   4.857  18.675  0.00  0.00    +0.000 OA
ATOM     19  C   UNL     1       5.352   4.634  18.678  0.00  0.00    +0.000 C 
BRANCH  19  20
ATOM     20  C   UNL     1       4.790   3.303  18.770  0.00  0.00    +0.000 A 
ATOM     21  C   UNL     1       4.658   2.434  19.837  0.00  0.00    +0.000 A 
ATOM     22  C   UNL     1       4.003   1.280  19.340  0.00  0.00    +0.000 A 
ATOM     23  C   UNL     1       3.749   1.524  18.012  0.00  0.00    +0.000 A 
ATOM     24  O   UNL     1       4.224   2.743  17.658  0.00  0.00    +0.000 OA
ENDBRANCH  19  20
ENDBRANCH   1  19
BRANCH   2  25
ATOM     25  O   UNL     1       5.200   6.579  16.390  0.00  0.00    +0.000 OA
ATOM     26  H   UNL     1       5.182   7.471  15.989  0.00  0.00    +0.000 HD
ENDBRANCH   2  25
TORSDOF 4
ENDMDL
MODEL 6
REMARK VINA RESULT:      -6.7      1.350      1.929
REMARK  Name = 
REMARK  4 active torsions:
REMARK  status: ('A' for Active; 'I' for Inactive)
REMARK    1  A    between atoms: C_2  and  C_3
REMARK    2  A    between atoms: C_2  and  C_21
REMARK    3  A    between atoms: C_4  and  O_5
REMARK    4  A    between atoms: C_15  and  C_16
REMARK                            x       y       z     vdW  Elec       q    Type
REMARK                         _______ _______ _______ _____ _____    ______ ____
ROOT
ATOM      1  C   UNL     1       4.025   6.428  18.203  0.00  0.00    +0.000 C 
ATOM      2  C   UNL     1       3.676   7.289  17.240  0.00  0.00    +0.000 C 
ATOM      3  C   UNL     1       2.571   8.127  17.781  0.00  0.00    +0.000 C 
ATOM      4  O   UNL     1       2.081   9.064  17.177  0.00  0.00    +0.000 OA
ATOM      5  N   UNL     1       2.340   7.669  19.065  0.00  0.00    +0.000 N 
ATOM      6  C   UNL     1       1.503   8.284  19.995  0.00  0.00    +0.000 A 
ATOM      7  N   UNL     1       0.500   9.058  19.566  0.00  0.00    +0.000 NA
ATOM      8  C   UNL     1      -0.324   9.578  20.491  0.00  0.00    +0.000 A 
ATOM      9  C   UNL     1      -0.162   9.392  21.841  0.00  0.00    +0.000 A 
ATOM     10  C   UNL     1       0.910   8.614  22.195  0.00  0.00    +0.000 A 
ATOM     11  N   UNL     1       1.736   8.036  21.302  0.00  0.00    +0.000 NA
ATOM     12  C   UNL     1       3.139   6.521  19.404  0.00  0.00    +0.000 C 
ENDROOT
BRANCH  12  13
ATOM     13  C   UNL     1       2.224   5.321  19.640  0.00  0.00    +0.000 A 
ATOM     14  C   UNL     1       1.431   4.664  18.713  0.00  0.00    +0.000 A 
ATOM     15  C   UNL     1       0.754   3.538  19.263  0.00  0.00    +0.000 A 
ATOM     16  C   UNL     1       1.016   3.383  20.604  0.00  0.00    +0.000 A 
ATOM     17  S   UNL     1       2.099   4.564  21.184  0.00  0.00    +0.000 S 
ENDBRANCH  12  13
BRANCH   1  19
ATOM     18  O   UNL     1       4.771   4.343  17.480  0.00  0.00    +0.000 OA
ATOM     19  C   UNL     1       5.075   5.402  18.032  0.00  0.00    +0.000 C 
BRANCH  19  20
ATOM     20  C   UNL     1       6.402   5.682  18.538  0.00  0.00    +0.000 A 
ATOM     21  C   UNL     1       7.404   6.514  18.076  0.00  0.00    +0.000 A 
ATOM     22  C   UNL     1       8.477   6.405  18.995  0.00  0.00    +0.000 A 
ATOM     23  C   UNL     1       8.056   5.540  19.975  0.00  0.00    +0.000 A 
ATOM     24  O   UNL     1       6.805   5.096  19.706  0.00  0.00    +0.000 OA
ENDBRANCH  19  20
ENDBRANCH   1  19
BRANCH   2  25
ATOM     25  O   UNL     1       4.206   7.426  15.986  0.00  0.00    +0.000 OA
ATOM     26  H   UNL     1       3.829   8.236  15.586  0.00  0.00    +0.000 HD
ENDBRANCH   2  25
TORSDOF 4
ENDMDL
MODEL 7
REMARK VINA RESULT:      -6.4      6.596      8.682
REMARK  Name = 
REMARK  4 active torsions:
REMARK  status: ('A' for Active; 'I' for Inactive)
REMARK    1  A    between atoms: C_2  and  C_3
REMARK    2  A    between atoms: C_2  and  C_21
REMARK    3  A    between atoms: C_4  and  O_5
REMARK    4  A    between atoms: C_15  and  C_16
REMARK                            x       y       z     vdW  Elec       q    Type
REMARK                         _______ _______ _______ _____ _____    ______ ____
ROOT
ATOM      1  C   UNL     1      -0.635  10.989  19.939  0.00  0.00    +0.000 C 
ATOM      2  C   UNL     1      -0.414  10.280  21.052  0.00  0.00    +0.000 C 
ATOM      3  C   UNL     1      -0.570  11.211  22.202  0.00  0.00    +0.000 C 
ATOM      4  O   UNL     1      -0.510  10.856  23.366  0.00  0.00    +0.000 OA
ATOM      5  N   UNL     1      -0.873  12.444  21.656  0.00  0.00    +0.000 N 
ATOM      6  C   UNL     1      -1.268  13.567  22.383  0.00  0.00    +0.000 A 
ATOM      7  N   UNL     1      -0.909  13.678  23.666  0.00  0.00    +0.000 NA
ATOM      8  C   UNL     1      -1.253  14.805  24.313  0.00  0.00    +0.000 A 
ATOM      9  C   UNL     1      -1.983  15.815  23.740  0.00  0.00    +0.000 A 
ATOM     10  C   UNL     1      -2.338  15.604  22.432  0.00  0.00    +0.000 A 
ATOM     11  N   UNL     1      -1.979  14.512  21.731  0.00  0.00    +0.000 NA
ATOM     12  C   UNL     1      -0.841  12.444  20.216  0.00  0.00    +0.000 C 
ENDROOT
BRANCH  12  13
ATOM     13  C   UNL     1       0.277  13.369  19.737  0.00  0.00    +0.000 A 
ATOM     14  C   UNL     1       0.171  14.456  18.886  0.00  0.00    +0.000 A 
ATOM     15  C   UNL     1       1.407  15.139  18.704  0.00  0.00    +0.000 A 
ATOM     16  C   UNL     1       2.435  14.537  19.391  0.00  0.00    +0.000 A 
ATOM     17  S   UNL     1       1.903  13.182  20.276  0.00  0.00    +0.000 S 
ENDBRANCH  12  13
BRANCH   1  19
ATOM     18  O   UNL     1       0.524   9.894  18.241  0.00  0.00    +0.000 OA
ATOM     19  C   UNL     1      -0.539  10.417  18.579  0.00  0.00    +0.000 C 
BRANCH  19  20
ATOM     20  C   UNL     1      -1.689  10.515  17.707  0.00  0.00    +0.000 A 
ATOM     21  C   UNL     1      -2.741  11.412  17.671  0.00  0.00    +0.000 A 
ATOM     22  C   UNL     1      -3.560  11.033  16.579  0.00  0.00    +0.000 A 
ATOM     23  C   UNL     1      -2.946   9.951  15.997  0.00  0.00    +0.000 A 
ATOM     24  O   UNL     1      -1.817   9.629  16.673  0.00  0.00    +0.000 OA
ENDBRANCH  19  20
ENDBRANCH   1  19
BRANCH   2  25
ATOM     25  O   UNL     1      -0.110   8.952  21.169  0.00  0.00    +0.000 OA
ATOM     26  H   UNL     1       0.510   8.849  21.920  0.00  0.00    +0.000 HD
ENDBRANCH   2  25
TORSDOF 4
ENDMDL
MODEL 8
REMARK VINA RESULT:      -6.4      7.725     10.370
REMARK  Name = 
REMARK  4 active torsions:
REMARK  status: ('A' for Active; 'I' for Inactive)
REMARK    1  A    between atoms: C_2  and  C_3
REMARK    2  A    between atoms: C_2  and  C_21
REMARK    3  A    between atoms: C_4  and  O_5
REMARK    4  A    between atoms: C_15  and  C_16
REMARK                            x       y       z     vdW  Elec       q    Type
REMARK                         _______ _______ _______ _____ _____    ______ ____
ROOT
ATOM      1  C   UNL     1      -2.554  13.229  22.720  0.00  0.00    +0.000 C 
ATOM      2  C   UNL     1      -2.158  14.125  23.631  0.00  0.00    +0.000 C 
ATOM      3  C   UNL     1      -0.753  14.492  23.302  0.00  0.00    +0.000 C 
ATOM      4  O   UNL     1      -0.126  15.350  23.899  0.00  0.00    +0.000 OA
ATOM      5  N   UNL     1      -0.416  13.748  22.188  0.00  0.00    +0.000 N 
ATOM      6  C   UNL     1       0.752  13.907  21.442  0.00  0.00    +0.000 A 
ATOM      7  N   UNL     1       1.836  14.431  22.024  0.00  0.00    +0.000 NA
ATOM      8  C   UNL     1       2.960  14.506  21.291  0.00  0.00    +0.000 A 
ATOM      9  C   UNL     1       3.036  14.117  19.978  0.00  0.00    +0.000 A 
ATOM     10  C   UNL     1       1.871  13.622  19.451  0.00  0.00    +0.000 A 
ATOM     11  N   UNL     1       0.733  13.488  20.158  0.00  0.00    +0.000 NA
ATOM     12  C   UNL     1      -1.453  12.831  21.789  0.00  0.00    +0.000 C 
ENDROOT
BRANCH  12  13
ATOM     13  C   UNL     1      -0.946  11.399  21.945  0.00  0.00    +0.000 A 
ATOM     14  C   UNL     1      -0.774  10.683  23.118  0.00  0.00    +0.000 A 
ATOM     15  C   UNL     1      -0.347   9.344  22.891  0.00  0.00    +0.000 A 
ATOM     16  C   UNL     1      -0.166   9.079  21.554  0.00  0.00    +0.000 A 
ATOM     17  S   UNL     1      -0.546  10.425  20.580  0.00  0.00    +0.000 S 
ENDBRANCH  12  13
BRANCH   1  19
ATOM     18  O   UNL     1      -4.270  12.055  23.769  0.00  0.00    +0.000 OA
ATOM     19  C   UNL     1      -3.890  12.598  22.730  0.00  0.00    +0.000 C 
BRANCH  19  20
ATOM     20  C   UNL     1      -4.677  12.630  21.517  0.00  0.00    +0.000 A 
ATOM     21  C   UNL     1      -4.436  13.198  20.280  0.00  0.00    +0.000 A 
ATOM     22  C   UNL     1      -5.551  12.884  19.465  0.00  0.00    +0.000 A 
ATOM     23  C   UNL     1      -6.390  12.121  20.240  0.00  0.00    +0.000 A 
ATOM     24  O   UNL     1      -5.872  11.965  21.482  0.00  0.00    +0.000 OA
ENDBRANCH  19  20
ENDBRANCH   1  19
BRANCH   2  25
ATOM     25  O   UNL     1      -2.867  14.647  24.678  0.00  0.00    +0.000 OA
ATOM     26  H   UNL     1      -3.621  15.152  24.310  0.00  0.00    +0.000 HD
ENDBRANCH   2  25
TORSDOF 4
ENDMDL
MODEL 9
REMARK VINA RESULT:      -6.3      7.722     10.348
REMARK  Name = 
REMARK  4 active torsions:
REMARK  status: ('A' for Active; 'I' for Inactive)
REMARK    1  A    between atoms: C_2  and  C_3
REMARK    2  A    between atoms: C_2  and  C_21
REMARK    3  A    between atoms: C_4  and  O_5
REMARK    4  A    between atoms: C_15  and  C_16
REMARK                            x       y       z     vdW  Elec       q    Type
REMARK                         _______ _______ _______ _____ _____    ______ ____
ROOT
ATOM      1  C   UNL     1      -2.110  12.414  21.544  0.00  0.00    +0.000 C 
ATOM      2  C   UNL     1      -3.371  12.856  21.477  0.00  0.00    +0.000 C 
ATOM      3  C   UNL     1      -3.872  12.544  20.111  0.00  0.00    +0.000 C 
ATOM      4  O   UNL     1      -5.019  12.748  19.753  0.00  0.00    +0.000 OA
ATOM      5  N   UNL     1      -2.824  11.928  19.453  0.00  0.00    +0.000 N 
ATOM      6  C   UNL     1      -2.913  11.316  18.202  0.00  0.00    +0.000 A 
ATOM      7  N   UNL     1      -3.864  11.706  17.347  0.00  0.00    +0.000 NA
ATOM      8  C   UNL     1      -3.875  11.139  16.128  0.00  0.00    +0.000 A 
ATOM      9  C   UNL     1      -2.996  10.161  15.740  0.00  0.00    +0.000 A 
ATOM     10  C   UNL     1      -2.075   9.798  16.689  0.00  0.00    +0.000 A 
ATOM     11  N   UNL     1      -1.998  10.368  17.907  0.00  0.00    +0.000 NA
ATOM     12  C   UNL     1      -1.617  11.884  20.236  0.00  0.00    +0.000 C 
ENDROOT
BRANCH  12  13
ATOM     13  C   UNL     1      -0.540  12.722  19.550  0.00  0.00    +0.000 A 
ATOM     14  C   UNL     1      -0.581  14.074  19.251  0.00  0.00    +0.000 A 
ATOM     15  C   UNL     1       0.629  14.548  18.668  0.00  0.00    +0.000 A 
ATOM     16  C   UNL     1       1.551  13.542  18.503  0.00  0.00    +0.000 A 
ATOM     17  S   UNL     1       0.975  12.046  19.080  0.00  0.00    +0.000 S 
ENDBRANCH  12  13
BRANCH   1  19
ATOM     18  O   UNL     1      -0.748  11.562  23.231  0.00  0.00    +0.000 OA
ATOM     19  C   UNL     1      -1.258  12.571  22.742  0.00  0.00    +0.000 C 
BRANCH  19  20
ATOM     20  C   UNL     1      -1.079  13.898  23.292  0.00  0.00    +0.000 A 
ATOM     21  C   UNL     1      -0.293  14.961  22.888  0.00  0.00    +0.000 A 
ATOM     22  C   UNL     1      -0.547  16.019  23.796  0.00  0.00    +0.000 A 
ATOM     23  C   UNL     1      -1.489  15.551  24.678  0.00  0.00    +0.000 A 
ATOM     24  O   UNL     1      -1.814  14.269  24.383  0.00  0.00    +0.000 OA
ENDBRANCH  19  20
ENDBRANCH   1  19
BRANCH   2  25
ATOM     25  O   UNL     1      -4.111  13.473  22.448  0.00  0.00    +0.000 OA
ATOM     26  H   UNL     1      -3.579  13.487  23.270  0.00  0.00    +0.000 HD
ENDBRANCH   2  25
TORSDOF 4
ENDMDL
