MODEL 1
REMARK VINA RESULT:      -8.8      0.000      0.000
REMARK  Name = 
REMARK  7 active torsions:
REMARK  status: ('A' for Active; 'I' for Inactive)
REMARK    1  A    between atoms: C_8  and  O_9
REMARK    2  A    between atoms: O_9  and  C_10
REMARK    3  A    between atoms: C_10  and  C_11
REMARK    4  A    between atoms: C_11  and  O_12
REMARK    5  A    between atoms: O_12  and  C_13
REMARK    6  A    between atoms: C_18  and  S_19
REMARK    7  A    between atoms: S_19  and  C_22
REMARK                            x       y       z     vdW  Elec       q    Type
REMARK                         _______ _______ _______ _____ _____    ______ ____
ROOT
ATOM      1  O   UNL     1       7.729   7.174  17.288  0.00  0.00    +0.000 OA
ENDROOT
BRANCH   1   2
ATOM      2  C   UNL     1       7.354   6.204  18.148  0.00  0.00    +0.000 A 
ATOM      3  N   UNL     1       7.954   6.094  19.330  0.00  0.00    +0.000 NA
ATOM      4  O   UNL     1       7.301   5.059  19.988  0.00  0.00    +0.000 OA
ATOM      5  N   UNL     1       6.296   4.554  19.093  0.00  0.00    +0.000 N 
ATOM      6  O   UNL     1       5.581   3.630  19.547  0.00  0.00    +0.000 OA
ATOM      7  C   UNL     1       6.340   5.263  17.987  0.00  0.00    +0.000 A 
BRANCH   7   8
ATOM      8  S   UNL     1       5.361   4.939  16.674  0.00  0.00    +0.000 S 
ATOM      9  O   UNL     1       5.131   6.225  16.043  0.00  0.00    +0.000 OA
ATOM     10  O   UNL     1       6.046   3.873  15.978  0.00  0.00    +0.000 OA
BRANCH   8  11
ATOM     11  C   UNL     1       3.806   4.335  17.268  0.00  0.00    +0.000 A 
ATOM     12  C   UNL     1       3.515   2.969  17.185  0.00  0.00    +0.000 A 
ATOM     13  C   UNL     1       2.294   2.493  17.668  0.00  0.00    +0.000 A 
ATOM     14  C   UNL     1       1.384   3.371  18.260  0.00  0.00    +0.000 A 
ATOM     15  C   UNL     1       1.685   4.730  18.356  0.00  0.00    +0.000 A 
ATOM     16  C   UNL     1       2.897   5.216  17.863  0.00  0.00    +0.000 A 
ENDBRANCH   8  11
ENDBRANCH   7   8
ENDBRANCH   1   2
BRANCH   1  17
ATOM     17  C   UNL     1       7.177   8.469  17.567  0.00  0.00    +0.000 C 
BRANCH  17  18
ATOM     18  C   UNL     1       8.330   9.469  17.602  0.00  0.00    +0.000 C 
BRANCH  18  19
ATOM     19  O   UNL     1       8.875   9.584  18.917  0.00  0.00    +0.000 OA
BRANCH  19  27
ATOM     20  O   UNL     1      12.322  15.607  17.235  0.00  0.00    +0.000 OA
ATOM     21  C   UNL     1      11.767  14.896  18.065  0.00  0.00    +0.000 A 
ATOM     22  C   UNL     1      11.712  15.293  19.483  0.00  0.00    +0.000 A 
ATOM     23  C   UNL     1      11.180  14.510  20.426  0.00  0.00    +0.000 A 
ATOM     24  C   UNL     1      10.617  13.221  20.056  0.00  0.00    +0.000 A 
ATOM     25  C   UNL     1      10.086  12.333  20.991  0.00  0.00    +0.000 A 
ATOM     26  C   UNL     1       9.526  11.119  20.566  0.00  0.00    +0.000 A 
ATOM     27  C   UNL     1       9.479  10.782  19.208  0.00  0.00    +0.000 A 
ATOM     28  C   UNL     1      10.027  11.663  18.275  0.00  0.00    +0.000 A 
ATOM     29  C   UNL     1      10.593  12.862  18.712  0.00  0.00    +0.000 A 
ATOM     30  O   UNL     1      11.154  13.699  17.726  0.00  0.00    +0.000 OA
ENDBRANCH  19  27
ENDBRANCH  18  19
ENDBRANCH  17  18
ENDBRANCH   1  17
TORSDOF 7
ENDMDL
MODEL 2
REMARK VINA RESULT:      -8.8      1.520      2.138
REMARK  Name = 
REMARK  7 active torsions:
REMARK  status: ('A' for Active; 'I' for Inactive)
REMARK    1  A    between atoms: C_8  and  O_9
REMARK    2  A    between atoms: O_9  and  C_10
REMARK    3  A    between atoms: C_10  and  C_11
REMARK    4  A    between atoms: C_11  and  O_12
REMARK    5  A    between atoms: O_12  and  C_13
REMARK    6  A    between atoms: C_18  and  S_19
REMARK    7  A    between atoms: S_19  and  C_22
REMARK                            x       y       z     vdW  Elec       q    Type
REMARK                         _______ _______ _______ _____ _____    ______ ____
ROOT
ATOM      1  O   UNL     1       6.630   7.340  16.700  0.00  0.00    +0.000 OA
ENDROOT
BRANCH   1   2
ATOM      2  C   UNL     1       6.213   6.084  16.432  0.00  0.00    +0.000 A 
ATOM      3  N   UNL     1       6.668   5.446  15.358  0.00  0.00    +0.000 NA
ATOM      4  O   UNL     1       6.106   4.176  15.409  0.00  0.00    +0.000 OA
ATOM      5  N   UNL     1       5.267   4.130  16.575  0.00  0.00    +0.000 N 
ATOM      6  O   UNL     1       4.706   3.031  16.795  0.00  0.00    +0.000 OA
ATOM      7  C   UNL     1       5.348   5.292  17.184  0.00  0.00    +0.000 A 
BRANCH   7   8
ATOM      8  S   UNL     1       4.464   5.651  18.553  0.00  0.00    +0.000 S 
ATOM      9  O   UNL     1       5.390   5.493  19.659  0.00  0.00    +0.000 OA
ATOM     10  O   UNL     1       3.860   6.931  18.257  0.00  0.00    +0.000 OA
BRANCH   8  11
ATOM     11  C   UNL     1       3.186   4.438  18.733  0.00  0.00    +0.000 A 
ATOM     12  C   UNL     1       2.048   4.504  17.921  0.00  0.00    +0.000 A 
ATOM     13  C   UNL     1       1.050   3.537  18.054  0.00  0.00    +0.000 A 
ATOM     14  C   UNL     1       1.202   2.492  18.967  0.00  0.00    +0.000 A 
ATOM     15  C   UNL     1       2.346   2.420  19.762  0.00  0.00    +0.000 A 
ATOM     16  C   UNL     1       3.343   3.390  19.647  0.00  0.00    +0.000 A 
ENDBRANCH   8  11
ENDBRANCH   7   8
ENDBRANCH   1   2
BRANCH   1  17
ATOM     17  C   UNL     1       7.662   7.431  17.693  0.00  0.00    +0.000 C 
BRANCH  17  18
ATOM     18  C   UNL     1       8.033   8.903  17.845  0.00  0.00    +0.000 C 
BRANCH  18  19
ATOM     19  O   UNL     1       8.906   9.105  18.958  0.00  0.00    +0.000 OA
BRANCH  19  27
ATOM     20  O   UNL     1      11.174  15.484  16.688  0.00  0.00    +0.000 OA
ATOM     21  C   UNL     1      10.839  14.738  17.600  0.00  0.00    +0.000 A 
ATOM     22  C   UNL     1      10.899  15.188  19.003  0.00  0.00    +0.000 A 
ATOM     23  C   UNL     1      10.610  14.379  20.027  0.00  0.00    +0.000 A 
ATOM     24  C   UNL     1      10.207  13.006  19.766  0.00  0.00    +0.000 A 
ATOM     25  C   UNL     1       9.934  12.094  20.785  0.00  0.00    +0.000 A 
ATOM     26  C   UNL     1       9.515  10.792  20.468  0.00  0.00    +0.000 A 
ATOM     27  C   UNL     1       9.353  10.391  19.136  0.00  0.00    +0.000 A 
ATOM     28  C   UNL     1       9.644  11.299  18.117  0.00  0.00    +0.000 A 
ATOM     29  C   UNL     1      10.073  12.586  18.446  0.00  0.00    +0.000 A 
ATOM     30  O   UNL     1      10.376  13.450  17.374  0.00  0.00    +0.000 OA
ENDBRANCH  19  27
ENDBRANCH  18  19
ENDBRANCH  17  18
ENDBRANCH   1  17
TORSDOF 7
ENDMDL
MODEL 3
REMARK VINA RESULT:      -8.7      1.429      1.735
REMARK  Name = 
REMARK  7 active torsions:
REMARK  status: ('A' for Active; 'I' for Inactive)
REMARK    1  A    between atoms: C_8  and  O_9
REMARK    2  A    between atoms: O_9  and  C_10
REMARK    3  A    between atoms: C_10  and  C_11
REMARK    4  A    between atoms: C_11  and  O_12
REMARK    5  A    between atoms: O_12  and  C_13
REMARK    6  A    between atoms: C_18  and  S_19
REMARK    7  A    between atoms: S_19  and  C_22
REMARK                            x       y       z     vdW  Elec       q    Type
REMARK                         _______ _______ _______ _____ _____    ______ ____
ROOT
ATOM      1  O   UNL     1       7.836   7.560  17.192  0.00  0.00    +0.000 OA
ENDROOT
BRANCH   1   2
ATOM      2  C   UNL     1       7.453   6.571  18.028  0.00  0.00    +0.000 A 
ATOM      3  N   UNL     1       8.049   6.429  19.208  0.00  0.00    +0.000 NA
ATOM      4  O   UNL     1       7.389   5.382  19.839  0.00  0.00    +0.000 OA
ATOM      5  N   UNL     1       6.384   4.904  18.929  0.00  0.00    +0.000 N 
ATOM      6  O   UNL     1       5.663   3.974  19.359  0.00  0.00    +0.000 OA
ATOM      7  C   UNL     1       6.435   5.640  17.841  0.00  0.00    +0.000 A 
BRANCH   7   8
ATOM      8  S   UNL     1       5.457   5.353  16.518  0.00  0.00    +0.000 S 
ATOM      9  O   UNL     1       5.197   6.660  15.946  0.00  0.00    +0.000 OA
ATOM     10  O   UNL     1       6.162   4.334  15.773  0.00  0.00    +0.000 OA
BRANCH   8  11
ATOM     11  C   UNL     1       3.918   4.689  17.089  0.00  0.00    +0.000 A 
ATOM     12  C   UNL     1       3.665   3.318  16.966  0.00  0.00    +0.000 A 
ATOM     13  C   UNL     1       2.457   2.796  17.431  0.00  0.00    +0.000 A 
ATOM     14  C   UNL     1       1.522   3.630  18.046  0.00  0.00    +0.000 A 
ATOM     15  C   UNL     1       1.785   4.994  18.182  0.00  0.00    +0.000 A 
ATOM     16  C   UNL     1       2.984   5.528  17.707  0.00  0.00    +0.000 A 
ENDBRANCH   8  11
ENDBRANCH   7   8
ENDBRANCH   1   2
BRANCH   1  17
ATOM     17  C   UNL     1       7.546   8.886  17.660  0.00  0.00    +0.000 C 
BRANCH  17  18
ATOM     18  C   UNL     1       8.836   9.470  18.230  0.00  0.00    +0.000 C 
BRANCH  18  19
ATOM     19  O   UNL     1       8.586  10.688  18.933  0.00  0.00    +0.000 OA
BRANCH  19  27
ATOM     20  O   UNL     1       9.392  17.687  17.769  0.00  0.00    +0.000 OA
ATOM     21  C   UNL     1       9.831  16.544  17.721  0.00  0.00    +0.000 A 
ATOM     22  C   UNL     1      11.153  16.268  17.132  0.00  0.00    +0.000 A 
ATOM     23  C   UNL     1      11.633  15.028  16.998  0.00  0.00    +0.000 A 
ATOM     24  C   UNL     1      10.841  13.898  17.458  0.00  0.00    +0.000 A 
ATOM     25  C   UNL     1      11.257  12.575  17.311  0.00  0.00    +0.000 A 
ATOM     26  C   UNL     1      10.462  11.530  17.807  0.00  0.00    +0.000 A 
ATOM     27  C   UNL     1       9.254  11.792  18.463  0.00  0.00    +0.000 A 
ATOM     28  C   UNL     1       8.829  13.115  18.594  0.00  0.00    +0.000 A 
ATOM     29  C   UNL     1       9.623  14.145  18.084  0.00  0.00    +0.000 A 
ATOM     30  O   UNL     1       9.130  15.458  18.223  0.00  0.00    +0.000 OA
ENDBRANCH  19  27
ENDBRANCH  18  19
ENDBRANCH  17  18
ENDBRANCH   1  17
TORSDOF 7
ENDMDL
MODEL 4
REMARK VINA RESULT:      -8.7      0.997      1.392
REMARK  Name = 
REMARK  7 active torsions:
REMARK  status: ('A' for Active; 'I' for Inactive)
REMARK    1  A    between atoms: C_8  and  O_9
REMARK    2  A    between atoms: O_9  and  C_10
REMARK    3  A    between atoms: C_10  and  C_11
REMARK    4  A    between atoms: C_11  and  O_12
REMARK    5  A    between atoms: O_12  and  C_13
REMARK    6  A    between atoms: C_18  and  S_19
REMARK    7  A    between atoms: S_19  and  C_22
REMARK                            x       y       z     vdW  Elec       q    Type
REMARK                         _______ _______ _______ _____ _____    ______ ____
ROOT
ATOM      1  O   UNL     1       7.062   7.689  17.282  0.00  0.00    +0.000 OA
ENDROOT
BRANCH   1   2
ATOM      2  C   UNL     1       6.914   6.591  18.053  0.00  0.00    +0.000 A 
ATOM      3  N   UNL     1       7.902   6.201  18.852  0.00  0.00    +0.000 NA
ATOM      4  O   UNL     1       7.413   5.101  19.545  0.00  0.00    +0.000 OA
ATOM      5  N   UNL     1       6.078   4.860  19.071  0.00  0.00    +0.000 N 
ATOM      6  O   UNL     1       5.470   3.914  19.624  0.00  0.00    +0.000 OA
ATOM      7  C   UNL     1       5.792   5.775  18.172  0.00  0.00    +0.000 A 
BRANCH   7   8
ATOM      8  S   UNL     1       4.344   5.794  17.341  0.00  0.00    +0.000 S 
ATOM      9  O   UNL     1       4.063   7.196  17.096  0.00  0.00    +0.000 OA
ATOM     10  O   UNL     1       4.552   4.869  16.250  0.00  0.00    +0.000 OA
BRANCH   8  11
ATOM     11  C   UNL     1       3.077   5.160  18.403  0.00  0.00    +0.000 A 
ATOM     12  C   UNL     1       2.768   5.830  19.591  0.00  0.00    +0.000 A 
ATOM     13  C   UNL     1       1.758   5.337  20.419  0.00  0.00    +0.000 A 
ATOM     14  C   UNL     1       1.039   4.200  20.046  0.00  0.00    +0.000 A 
ATOM     15  C   UNL     1       1.339   3.543  18.852  0.00  0.00    +0.000 A 
ATOM     16  C   UNL     1       2.357   4.022  18.025  0.00  0.00    +0.000 A 
ENDBRANCH   8  11
ENDBRANCH   7   8
ENDBRANCH   1   2
BRANCH   1  17
ATOM     17  C   UNL     1       8.325   8.357  17.425  0.00  0.00    +0.000 C 
BRANCH  17  18
ATOM     18  C   UNL     1       8.077   9.662  18.177  0.00  0.00    +0.000 C 
BRANCH  18  19
ATOM     19  O   UNL     1       9.019   9.835  19.237  0.00  0.00    +0.000 OA
BRANCH  19  27
ATOM     20  O   UNL     1      11.475  16.045  16.707  0.00  0.00    +0.000 OA
ATOM     21  C   UNL     1      11.162  15.332  17.653  0.00  0.00    +0.000 A 
ATOM     22  C   UNL     1      11.341  15.797  19.040  0.00  0.00    +0.000 A 
ATOM     23  C   UNL     1      11.078  15.021  20.095  0.00  0.00    +0.000 A 
ATOM     24  C   UNL     1      10.583  13.669  19.887  0.00  0.00    +0.000 A 
ATOM     25  C   UNL     1      10.330  12.788  20.937  0.00  0.00    +0.000 A 
ATOM     26  C   UNL     1       9.820  11.507  20.672  0.00  0.00    +0.000 A 
ATOM     27  C   UNL     1       9.547  11.097  19.362  0.00  0.00    +0.000 A 
ATOM     28  C   UNL     1       9.819  11.972  18.310  0.00  0.00    +0.000 A 
ATOM     29  C   UNL     1      10.338  13.238  18.586  0.00  0.00    +0.000 A 
ATOM     30  O   UNL     1      10.615  14.069  17.482  0.00  0.00    +0.000 OA
ENDBRANCH  19  27
ENDBRANCH  18  19
ENDBRANCH  17  18
ENDBRANCH   1  17
TORSDOF 7
ENDMDL
MODEL 5
REMARK VINA RESULT:      -8.6      6.470      8.037
REMARK  Name = 
REMARK  7 active torsions:
REMARK  status: ('A' for Active; 'I' for Inactive)
REMARK    1  A    between atoms: C_8  and  O_9
REMARK    2  A    between atoms: O_9  and  C_10
REMARK    3  A    between atoms: C_10  and  C_11
REMARK    4  A    between atoms: C_11  and  O_12
REMARK    5  A    between atoms: O_12  and  C_13
REMARK    6  A    between atoms: C_18  and  S_19
REMARK    7  A    between atoms: S_19  and  C_22
REMARK                            x       y       z     vdW  Elec       q    Type
REMARK                         _______ _______ _______ _____ _____    ______ ____
ROOT
ATOM      1  O   UNL     1       1.613   3.866  18.008  0.00  0.00    +0.000 OA
ENDROOT
BRANCH   1   2
ATOM      2  C   UNL     1       1.745   3.558  19.315  0.00  0.00    +0.000 A 
ATOM      3  N   UNL     1       0.797   3.906  20.180  0.00  0.00    +0.000 NA
ATOM      4  O   UNL     1       1.199   3.392  21.406  0.00  0.00    +0.000 OA
ATOM      5  N   UNL     1       2.464   2.742  21.199  0.00  0.00    +0.000 N 
ATOM      6  O   UNL     1       2.957   2.184  22.208  0.00  0.00    +0.000 OA
ATOM      7  C   UNL     1       2.775   2.849  19.927  0.00  0.00    +0.000 A 
BRANCH   7   8
ATOM      8  S   UNL     1       4.211   2.268  19.303  0.00  0.00    +0.000 S 
ATOM      9  O   UNL     1       5.039   1.976  20.458  0.00  0.00    +0.000 OA
ATOM     10  O   UNL     1       3.801   1.225  18.390  0.00  0.00    +0.000 OA
BRANCH   8  11
ATOM     11  C   UNL     1       4.991   3.566  18.385  0.00  0.00    +0.000 A 
ATOM     12  C   UNL     1       4.919   3.568  16.988  0.00  0.00    +0.000 A 
ATOM     13  C   UNL     1       5.522   4.601  16.267  0.00  0.00    +0.000 A 
ATOM     14  C   UNL     1       6.164   5.642  16.939  0.00  0.00    +0.000 A 
ATOM     15  C   UNL     1       6.220   5.646  18.333  0.00  0.00    +0.000 A 
ATOM     16  C   UNL     1       5.632   4.610  19.061  0.00  0.00    +0.000 A 
ENDBRANCH   8  11
ENDBRANCH   7   8
ENDBRANCH   1   2
BRANCH   1  17
ATOM     17  C   UNL     1       1.260   5.232  17.746  0.00  0.00    +0.000 C 
BRANCH  17  18
ATOM     18  C   UNL     1       2.533   6.069  17.848  0.00  0.00    +0.000 C 
BRANCH  18  19
ATOM     19  O   UNL     1       2.711   6.580  19.171  0.00  0.00    +0.000 OA
BRANCH  19  27
ATOM     20  O   UNL     1      -0.964  11.015  23.393  0.00  0.00    +0.000 OA
ATOM     21  C   UNL     1      -0.402  10.781  22.329  0.00  0.00    +0.000 A 
ATOM     22  C   UNL     1      -0.410  11.772  21.239  0.00  0.00    +0.000 A 
ATOM     23  C   UNL     1       0.130  11.524  20.041  0.00  0.00    +0.000 A 
ATOM     24  C   UNL     1       0.764  10.239  19.792  0.00  0.00    +0.000 A 
ATOM     25  C   UNL     1       1.307   9.893  18.555  0.00  0.00    +0.000 A 
ATOM     26  C   UNL     1       1.937   8.651  18.388  0.00  0.00    +0.000 A 
ATOM     27  C   UNL     1       2.042   7.746  19.452  0.00  0.00    +0.000 A 
ATOM     28  C   UNL     1       1.482   8.085  20.683  0.00  0.00    +0.000 A 
ATOM     29  C   UNL     1       0.846   9.319  20.833  0.00  0.00    +0.000 A 
ATOM     30  O   UNL     1       0.277   9.595  22.093  0.00  0.00    +0.000 OA
ENDBRANCH  19  27
ENDBRANCH  18  19
ENDBRANCH  17  18
ENDBRANCH   1  17
TORSDOF 7
ENDMDL
MODEL 6
REMARK VINA RESULT:      -8.6      1.213      1.364
REMARK  Name = 
REMARK  7 active torsions:
REMARK  status: ('A' for Active; 'I' for Inactive)
REMARK    1  A    between atoms: C_8  and  O_9
REMARK    2  A    between atoms: O_9  and  C_10
REMARK    3  A    between atoms: C_10  and  C_11
REMARK    4  A    between atoms: C_11  and  O_12
REMARK    5  A    between atoms: O_12  and  C_13
REMARK    6  A    between atoms: C_18  and  S_19
REMARK    7  A    between atoms: S_19  and  C_22
REMARK                            x       y       z     vdW  Elec       q    Type
REMARK                         _______ _______ _______ _____ _____    ______ ____
ROOT
ATOM      1  O   UNL     1       6.677   7.549  17.476  0.00  0.00    +0.000 OA
ENDROOT
BRANCH   1   2
ATOM      2  C   UNL     1       6.611   6.377  18.142  0.00  0.00    +0.000 A 
ATOM      3  N   UNL     1       7.638   5.975  18.886  0.00  0.00    +0.000 NA
ATOM      4  O   UNL     1       7.230   4.786  19.479  0.00  0.00    +0.000 OA
ATOM      5  N   UNL     1       5.902   4.510  19.005  0.00  0.00    +0.000 N 
ATOM      6  O   UNL     1       5.363   3.481  19.476  0.00  0.00    +0.000 OA
ATOM      7  C   UNL     1       5.543   5.485  18.201  0.00  0.00    +0.000 A 
BRANCH   7   8
ATOM      8  S   UNL     1       4.079   5.494  17.399  0.00  0.00    +0.000 S 
ATOM      9  O   UNL     1       3.810   6.889  17.109  0.00  0.00    +0.000 OA
ATOM     10  O   UNL     1       4.253   4.527  16.338  0.00  0.00    +0.000 OA
BRANCH   8  11
ATOM     11  C   UNL     1       2.825   4.915  18.508  0.00  0.00    +0.000 A 
ATOM     12  C   UNL     1       2.123   3.741  18.209  0.00  0.00    +0.000 A 
ATOM     13  C   UNL     1       1.147   3.279  19.093  0.00  0.00    +0.000 A 
ATOM     14  C   UNL     1       0.896   3.964  20.283  0.00  0.00    +0.000 A 
ATOM     15  C   UNL     1       1.610   5.124  20.585  0.00  0.00    +0.000 A 
ATOM     16  C   UNL     1       2.578   5.602  19.701  0.00  0.00    +0.000 A 
ENDBRANCH   8  11
ENDBRANCH   7   8
ENDBRANCH   1   2
BRANCH   1  17
ATOM     17  C   UNL     1       8.009   8.030  17.238  0.00  0.00    +0.000 C 
BRANCH  17  18
ATOM     18  C   UNL     1       8.347   9.028  18.342  0.00  0.00    +0.000 C 
BRANCH  18  19
ATOM     19  O   UNL     1       8.105  10.371  17.918  0.00  0.00    +0.000 OA
BRANCH  19  27
ATOM     20  O   UNL     1      11.774  16.428  17.005  0.00  0.00    +0.000 OA
ATOM     21  C   UNL     1      11.542  15.413  17.651  0.00  0.00    +0.000 A 
ATOM     22  C   UNL     1      12.333  15.085  18.851  0.00  0.00    +0.000 A 
ATOM     23  C   UNL     1      12.156  13.952  19.537  0.00  0.00    +0.000 A 
ATOM     24  C   UNL     1      11.141  13.003  19.107  0.00  0.00    +0.000 A 
ATOM     25  C   UNL     1      10.931  11.782  19.747  0.00  0.00    +0.000 A 
ATOM     26  C   UNL     1       9.912  10.924  19.306  0.00  0.00    +0.000 A 
ATOM     27  C   UNL     1       9.086  11.278  18.232  0.00  0.00    +0.000 A 
ATOM     28  C   UNL     1       9.309  12.491  17.580  0.00  0.00    +0.000 A 
ATOM     29  C   UNL     1      10.335  13.330  18.021  0.00  0.00    +0.000 A 
ATOM     30  O   UNL     1      10.529  14.530  17.308  0.00  0.00    +0.000 OA
ENDBRANCH  19  27
ENDBRANCH  18  19
ENDBRANCH  17  18
ENDBRANCH   1  17
TORSDOF 7
ENDMDL
MODEL 7
REMARK VINA RESULT:      -8.5      1.549      2.080
REMARK  Name = 
REMARK  7 active torsions:
REMARK  status: ('A' for Active; 'I' for Inactive)
REMARK    1  A    between atoms: C_8  and  O_9
REMARK    2  A    between atoms: O_9  and  C_10
REMARK    3  A    between atoms: C_10  and  C_11
REMARK    4  A    between atoms: C_11  and  O_12
REMARK    5  A    between atoms: O_12  and  C_13
REMARK    6  A    between atoms: C_18  and  S_19
REMARK    7  A    between atoms: S_19  and  C_22
REMARK                            x       y       z     vdW  Elec       q    Type
REMARK                         _______ _______ _______ _____ _____    ______ ____
ROOT
ATOM      1  O   UNL     1       7.367   7.628  17.320  0.00  0.00    +0.000 OA
ENDROOT
BRANCH   1   2
ATOM      2  C   UNL     1       7.093   6.529  18.054  0.00  0.00    +0.000 A 
ATOM      3  N   UNL     1       7.976   6.086  18.944  0.00  0.00    +0.000 NA
ATOM      4  O   UNL     1       7.372   4.999  19.564  0.00  0.00    +0.000 OA
ATOM      5  N   UNL     1       6.084   4.823  18.951  0.00  0.00    +0.000 N 
ATOM      6  O   UNL     1       5.382   3.898  19.423  0.00  0.00    +0.000 OA
ATOM      7  C   UNL     1       5.931   5.761  18.043  0.00  0.00    +0.000 A 
BRANCH   7   8
ATOM      8  S   UNL     1       4.579   5.854  17.068  0.00  0.00    +0.000 S 
ATOM      9  O   UNL     1       4.047   7.186  17.280  0.00  0.00    +0.000 OA
ATOM     10  O   UNL     1       5.053   5.433  15.769  0.00  0.00    +0.000 OA
BRANCH   8  11
ATOM     11  C   UNL     1       3.382   4.687  17.653  0.00  0.00    +0.000 A 
ATOM     12  C   UNL     1       2.449   5.077  18.620  0.00  0.00    +0.000 A 
ATOM     13  C   UNL     1       1.496   4.160  19.067  0.00  0.00    +0.000 A 
ATOM     14  C   UNL     1       1.455   2.873  18.529  0.00  0.00    +0.000 A 
ATOM     15  C   UNL     1       2.377   2.493  17.553  0.00  0.00    +0.000 A 
ATOM     16  C   UNL     1       3.342   3.399  17.109  0.00  0.00    +0.000 A 
ENDBRANCH   8  11
ENDBRANCH   7   8
ENDBRANCH   1   2
BRANCH   1  17
ATOM     17  C   UNL     1       8.490   8.394  17.782  0.00  0.00    +0.000 C 
BRANCH  17  18
ATOM     18  C   UNL     1       8.031   9.841  17.944  0.00  0.00    +0.000 C 
BRANCH  18  19
ATOM     19  O   UNL     1       8.859  10.546  18.870  0.00  0.00    +0.000 OA
BRANCH  19  27
ATOM     20  O   UNL     1       8.986  17.619  17.902  0.00  0.00    +0.000 OA
ATOM     21  C   UNL     1       9.522  16.522  17.796  0.00  0.00    +0.000 A 
ATOM     22  C   UNL     1      10.833  16.383  17.138  0.00  0.00    +0.000 A 
ATOM     23  C   UNL     1      11.414  15.195  16.942  0.00  0.00    +0.000 A 
ATOM     24  C   UNL     1      10.747  13.986  17.400  0.00  0.00    +0.000 A 
ATOM     25  C   UNL     1      11.271  12.711  17.190  0.00  0.00    +0.000 A 
ATOM     26  C   UNL     1      10.597  11.585  17.688  0.00  0.00    +0.000 A 
ATOM     27  C   UNL     1       9.403  11.718  18.407  0.00  0.00    +0.000 A 
ATOM     28  C   UNL     1       8.871  12.993  18.601  0.00  0.00    +0.000 A 
ATOM     29  C   UNL     1       9.544  14.104  18.089  0.00  0.00    +0.000 A 
ATOM     30  O   UNL     1       8.945  15.363  18.294  0.00  0.00    +0.000 OA
ENDBRANCH  19  27
ENDBRANCH  18  19
ENDBRANCH  17  18
ENDBRANCH   1  17
TORSDOF 7
ENDMDL
MODEL 8
REMARK VINA RESULT:      -8.4      6.150      7.913
REMARK  Name = 
REMARK  7 active torsions:
REMARK  status: ('A' for Active; 'I' for Inactive)
REMARK    1  A    between atoms: C_8  and  O_9
REMARK    2  A    between atoms: O_9  and  C_10
REMARK    3  A    between atoms: C_10  and  C_11
REMARK    4  A    between atoms: C_11  and  O_12
REMARK    5  A    between atoms: O_12  and  C_13
REMARK    6  A    between atoms: C_18  and  S_19
REMARK    7  A    between atoms: S_19  and  C_22
REMARK                            x       y       z     vdW  Elec       q    Type
REMARK                         _______ _______ _______ _____ _____    ______ ____
ROOT
ATOM      1  O   UNL     1       3.414   4.514  16.943  0.00  0.00    +0.000 OA
ENDROOT
BRANCH   1   2
ATOM      2  C   UNL     1       4.585   4.364  17.597  0.00  0.00    +0.000 A 
ATOM      3  N   UNL     1       4.649   3.595  18.680  0.00  0.00    +0.000 NA
ATOM      4  O   UNL     1       5.984   3.600  19.066  0.00  0.00    +0.000 OA
ATOM      5  N   UNL     1       6.689   4.450  18.147  0.00  0.00    +0.000 N 
ATOM      6  O   UNL     1       7.926   4.537  18.330  0.00  0.00    +0.000 OA
ATOM      7  C   UNL     1       5.827   4.899  17.262  0.00  0.00    +0.000 A 
BRANCH   7   8
ATOM      8  S   UNL     1       6.255   5.972  16.057  0.00  0.00    +0.000 S 
ATOM      9  O   UNL     1       5.114   6.854  15.907  0.00  0.00    +0.000 OA
ATOM     10  O   UNL     1       7.543   6.476  16.476  0.00  0.00    +0.000 OA
BRANCH   8  11
ATOM     11  C   UNL     1       6.452   5.071  14.545  0.00  0.00    +0.000 A 
ATOM     12  C   UNL     1       5.486   4.131  14.167  0.00  0.00    +0.000 A 
ATOM     13  C   UNL     1       5.636   3.434  12.967  0.00  0.00    +0.000 A 
ATOM     14  C   UNL     1       6.725   3.697  12.134  0.00  0.00    +0.000 A 
ATOM     15  C   UNL     1       7.677   4.647  12.506  0.00  0.00    +0.000 A 
ATOM     16  C   UNL     1       7.543   5.339  13.711  0.00  0.00    +0.000 A 
ENDBRANCH   8  11
ENDBRANCH   7   8
ENDBRANCH   1   2
BRANCH   1  17
ATOM     17  C   UNL     1       2.297   4.845  17.781  0.00  0.00    +0.000 C 
BRANCH  17  18
ATOM     18  C   UNL     1       2.729   5.978  18.708  0.00  0.00    +0.000 C 
BRANCH  18  19
ATOM     19  O   UNL     1       2.673   7.241  18.041  0.00  0.00    +0.000 OA
BRANCH  19  27
ATOM     20  O   UNL     1      -0.395  10.396  23.665  0.00  0.00    +0.000 OA
ATOM     21  C   UNL     1      -0.139  10.375  22.467  0.00  0.00    +0.000 A 
ATOM     22  C   UNL     1      -0.668  11.413  21.564  0.00  0.00    +0.000 A 
ATOM     23  C   UNL     1      -0.469  11.382  20.242  0.00  0.00    +0.000 A 
ATOM     24  C   UNL     1       0.306  10.299  19.658  0.00  0.00    +0.000 A 
ATOM     25  C   UNL     1       0.517  10.177  18.285  0.00  0.00    +0.000 A 
ATOM     26  C   UNL     1       1.304   9.128  17.786  0.00  0.00    +0.000 A 
ATOM     27  C   UNL     1       1.899   8.198  18.649  0.00  0.00    +0.000 A 
ATOM     28  C   UNL     1       1.672   8.310  20.021  0.00  0.00    +0.000 A 
ATOM     29  C   UNL     1       0.876   9.351  20.503  0.00  0.00    +0.000 A 
ATOM     30  O   UNL     1       0.663   9.397  21.896  0.00  0.00    +0.000 OA
ENDBRANCH  19  27
ENDBRANCH  18  19
ENDBRANCH  17  18
ENDBRANCH   1  17
TORSDOF 7
ENDMDL
MODEL 9
REMARK VINA RESULT:      -8.4      6.079      8.010
REMARK  Name = 
REMARK  7 active torsions:
REMARK  status: ('A' for Active; 'I' for Inactive)
REMARK    1  A    between atoms: C_8  and  O_9
REMARK    2  A    between atoms: O_9  and  C_10
REMARK    3  A    between atoms: C_10  and  C_11
REMARK    4  A    between atoms: C_11  and  O_12
REMARK    5  A    between atoms: O_12  and  C_13
REMARK    6  A    between atoms: C_18  and  S_19
REMARK    7  A    between atoms: S_19  and  C_22
REMARK                            x       y       z     vdW  Elec       q    Type
REMARK                         _______ _______ _______ _____ _____    ______ ____
ROOT
ATOM      1  O   UNL     1       3.288   6.699  17.615  0.00  0.00    +0.000 OA
ENDROOT
BRANCH   1   2
ATOM      2  C   UNL     1       4.448   6.347  17.022  0.00  0.00    +0.000 A 
ATOM      3  N   UNL     1       5.005   7.151  16.120  0.00  0.00    +0.000 NA
ATOM      4  O   UNL     1       6.200   6.540  15.759  0.00  0.00    +0.000 OA
ATOM      5  N   UNL     1       6.286   5.309  16.495  0.00  0.00    +0.000 N 
ATOM      6  O   UNL     1       7.332   4.642  16.314  0.00  0.00    +0.000 OA
ATOM      7  C   UNL     1       5.220   5.212  17.257  0.00  0.00    +0.000 A 
BRANCH   7   8
ATOM      8  S   UNL     1       4.925   3.882  18.223  0.00  0.00    +0.000 S 
ATOM      9  O   UNL     1       4.829   2.760  17.309  0.00  0.00    +0.000 OA
ATOM     10  O   UNL     1       5.959   3.943  19.231  0.00  0.00    +0.000 OA
BRANCH   8  11
ATOM     11  C   UNL     1       3.348   4.091  19.001  0.00  0.00    +0.000 A 
ATOM     12  C   UNL     1       2.224   3.442  18.476  0.00  0.00    +0.000 A 
ATOM     13  C   UNL     1       0.985   3.595  19.102  0.00  0.00    +0.000 A 
ATOM     14  C   UNL     1       0.875   4.365  20.261  0.00  0.00    +0.000 A 
ATOM     15  C   UNL     1       2.001   4.997  20.790  0.00  0.00    +0.000 A 
ATOM     16  C   UNL     1       3.241   4.860  20.164  0.00  0.00    +0.000 A 
ENDBRANCH   8  11
ENDBRANCH   7   8
ENDBRANCH   1   2
BRANCH   1  17
ATOM     17  C   UNL     1       3.038   8.112  17.654  0.00  0.00    +0.000 C 
BRANCH  17  18
ATOM     18  C   UNL     1       1.723   8.331  18.398  0.00  0.00    +0.000 C 
BRANCH  18  19
ATOM     19  O   UNL     1       1.904   8.222  19.811  0.00  0.00    +0.000 OA
BRANCH  19  27
ATOM     20  O   UNL     1      -2.857  13.445  20.836  0.00  0.00    +0.000 OA
ATOM     21  C   UNL     1      -2.196  12.508  21.269  0.00  0.00    +0.000 A 
ATOM     22  C   UNL     1      -2.248  12.147  22.697  0.00  0.00    +0.000 A 
ATOM     23  C   UNL     1      -1.488  11.179  23.219  0.00  0.00    +0.000 A 
ATOM     24  C   UNL     1      -0.581  10.435  22.358  0.00  0.00    +0.000 A 
ATOM     25  C   UNL     1       0.273   9.444  22.840  0.00  0.00    +0.000 A 
ATOM     26  C   UNL     1       1.099   8.737  21.952  0.00  0.00    +0.000 A 
ATOM     27  C   UNL     1       1.075   9.003  20.578  0.00  0.00    +0.000 A 
ATOM     28  C   UNL     1       0.234  10.008  20.099  0.00  0.00    +0.000 A 
ATOM     29  C   UNL     1      -0.574  10.712  20.995  0.00  0.00    +0.000 A 
ATOM     30  O   UNL     1      -1.384  11.733  20.456  0.00  0.00    +0.000 OA
ENDBRANCH  19  27
ENDBRANCH  18  19
ENDBRANCH  17  18
ENDBRANCH   1  17
TORSDOF 7
ENDMDL
