MODEL 1
REMARK VINA RESULT:      -8.0      0.000      0.000
REMARK  Name = 
REMARK  5 active torsions:
REMARK  status: ('A' for Active; 'I' for Inactive)
REMARK    1  A    between atoms: C_1  and  C_2
REMARK    2  A    between atoms: C_5  and  C_6
REMARK    3  A    between atoms: C_7  and  S_8
REMARK    4  A    between atoms: S_8  and  N_11
REMARK    5  A    between atoms: N_11  and  N_12
REMARK                            x       y       z     vdW  Elec       q    Type
REMARK                         _______ _______ _______ _____ _____    ______ ____
ROOT
ATOM      1  N   UNL     1       2.863   8.497  17.444  0.00  0.00    +0.000 NA
ATOM      2  C   UNL     1       3.552   7.403  17.581  0.00  0.00    +0.000 C 
ATOM      3  C   UNL     1       4.937   7.446  16.950  0.00  0.00    +0.000 C 
ATOM      4  C   UNL     1       5.097   6.311  15.971  0.00  0.00    +0.000 C 
ATOM      5  S   UNL     1       5.110   4.777  16.844  0.00  0.00    +0.000 S 
ATOM      6  O   UNL     1       4.779   3.724  15.907  0.00  0.00    +0.000 OA
ATOM      7  O   UNL     1       6.311   4.723  17.656  0.00  0.00    +0.000 OA
ATOM      8  C   UNL     1       3.761   4.903  17.976  0.00  0.00    +0.000 A 
ATOM      9  C   UNL     1       3.339   3.706  18.580  0.00  0.00    +0.000 A 
ATOM     10  C   UNL     1       2.309   3.733  19.515  0.00  0.00    +0.000 A 
ATOM     11  C   UNL     1       1.747   4.951  19.862  0.00  0.00    +0.000 A 
ATOM     12  F   UNL     1       0.774   4.990  20.780  0.00  0.00    +0.000 F 
ATOM     13  C   UNL     1       2.175   6.141  19.274  0.00  0.00    +0.000 A 
ATOM     14  C   UNL     1       3.156   6.132  18.274  0.00  0.00    +0.000 A 
ENDROOT
BRANCH   1  15
ATOM     15  N   UNL     1       1.490   8.579  17.881  0.00  0.00    +0.000 N 
ATOM     16  H   UNL     1       0.779   8.607  17.142  0.00  0.00    +0.000 HD
BRANCH  15  17
ATOM     17  S   UNL     1       1.082   9.797  19.032  0.00  0.00    +0.000 S 
ATOM     18  O   UNL     1       1.985  10.892  18.734  0.00  0.00    +0.000 OA
ATOM     19  O   UNL     1       0.992   9.235  20.362  0.00  0.00    +0.000 OA
BRANCH  17  26
ATOM     20  C   UNL     1      -2.848   9.613  15.544  0.00  0.00    +0.000 C 
ATOM     21  C   UNL     1      -2.327  10.159  16.841  0.00  0.00    +0.000 A 
ATOM     22  C   UNL     1      -3.076  11.080  17.575  0.00  0.00    +0.000 A 
ATOM     23  C   UNL     1      -2.580  11.604  18.771  0.00  0.00    +0.000 A 
ATOM     24  C   UNL     1      -1.319  11.229  19.266  0.00  0.00    +0.000 A 
ATOM     25  C   UNL     1      -0.846  11.860  20.544  0.00  0.00    +0.000 C 
ATOM     26  C   UNL     1      -0.566  10.293  18.532  0.00  0.00    +0.000 A 
ATOM     27  C   UNL     1      -1.071   9.766  17.327  0.00  0.00    +0.000 A 
ENDBRANCH  17  26
ENDBRANCH  15  17
ENDBRANCH   1  15
TORSDOF 3
ENDMDL
MODEL 2
REMARK VINA RESULT:      -7.9      3.066      3.888
REMARK  Name = 
REMARK  5 active torsions:
REMARK  status: ('A' for Active; 'I' for Inactive)
REMARK    1  A    between atoms: C_1  and  C_2
REMARK    2  A    between atoms: C_5  and  C_6
REMARK    3  A    between atoms: C_7  and  S_8
REMARK    4  A    between atoms: S_8  and  N_11
REMARK    5  A    between atoms: N_11  and  N_12
REMARK                            x       y       z     vdW  Elec       q    Type
REMARK                         _______ _______ _______ _____ _____    ______ ____
ROOT
ATOM      1  N   UNL     1       1.187   6.331  21.193  0.00  0.00    +0.000 NA
ATOM      2  C   UNL     1       1.741   5.434  20.433  0.00  0.00    +0.000 C 
ATOM      3  C   UNL     1       1.382   3.997  20.787  0.00  0.00    +0.000 C 
ATOM      4  C   UNL     1       2.635   3.197  21.042  0.00  0.00    +0.000 C 
ATOM      5  S   UNL     1       3.536   3.018  19.534  0.00  0.00    +0.000 S 
ATOM      6  O   UNL     1       4.908   2.697  19.867  0.00  0.00    +0.000 OA
ATOM      7  O   UNL     1       2.758   2.189  18.632  0.00  0.00    +0.000 OA
ATOM      8  C   UNL     1       3.541   4.635  18.828  0.00  0.00    +0.000 A 
ATOM      9  C   UNL     1       4.454   4.858  17.783  0.00  0.00    +0.000 A 
ATOM     10  C   UNL     1       4.487   6.096  17.150  0.00  0.00    +0.000 A 
ATOM     11  C   UNL     1       3.585   7.074  17.538  0.00  0.00    +0.000 A 
ATOM     12  F   UNL     1       3.590   8.259  16.916  0.00  0.00    +0.000 F 
ATOM     13  C   UNL     1       2.669   6.850  18.565  0.00  0.00    +0.000 A 
ATOM     14  C   UNL     1       2.668   5.640  19.271  0.00  0.00    +0.000 A 
ENDROOT
BRANCH   1  15
ATOM     15  N   UNL     1       1.515   7.730  21.064  0.00  0.00    +0.000 N 
ATOM     16  H   UNL     1       2.502   7.978  21.195  0.00  0.00    +0.000 HD
BRANCH  15  17
ATOM     17  S   UNL     1       0.576   8.864  21.961  0.00  0.00    +0.000 S 
ATOM     18  O   UNL     1       1.414   9.213  23.093  0.00  0.00    +0.000 OA
ATOM     19  O   UNL     1      -0.774   8.380  22.145  0.00  0.00    +0.000 OA
BRANCH  17  26
ATOM     20  C   UNL     1       2.288  11.384  17.675  0.00  0.00    +0.000 C 
ATOM     21  C   UNL     1       1.382  11.386  18.872  0.00  0.00    +0.000 A 
ATOM     22  C   UNL     1       0.584  12.496  19.155  0.00  0.00    +0.000 A 
ATOM     23  C   UNL     1      -0.241  12.506  20.282  0.00  0.00    +0.000 A 
ATOM     24  C   UNL     1      -0.291  11.411  21.162  0.00  0.00    +0.000 A 
ATOM     25  C   UNL     1      -1.182  11.511  22.366  0.00  0.00    +0.000 C 
ATOM     26  C   UNL     1       0.507  10.287  20.872  0.00  0.00    +0.000 A 
ATOM     27  C   UNL     1       1.337  10.281  19.734  0.00  0.00    +0.000 A 
ENDBRANCH  17  26
ENDBRANCH  15  17
ENDBRANCH   1  15
TORSDOF 3
ENDMDL
MODEL 3
REMARK VINA RESULT:      -7.7      2.412      3.500
REMARK  Name = 
REMARK  5 active torsions:
REMARK  status: ('A' for Active; 'I' for Inactive)
REMARK    1  A    between atoms: C_1  and  C_2
REMARK    2  A    between atoms: C_5  and  C_6
REMARK    3  A    between atoms: C_7  and  S_8
REMARK    4  A    between atoms: S_8  and  N_11
REMARK    5  A    between atoms: N_11  and  N_12
REMARK                            x       y       z     vdW  Elec       q    Type
REMARK                         _______ _______ _______ _____ _____    ______ ____
ROOT
ATOM      1  N   UNL     1       1.064   6.469  21.117  0.00  0.00    +0.000 NA
ATOM      2  C   UNL     1       1.645   5.558  20.394  0.00  0.00    +0.000 C 
ATOM      3  C   UNL     1       1.296   4.127  20.780  0.00  0.00    +0.000 C 
ATOM      4  C   UNL     1       2.553   3.351  21.083  0.00  0.00    +0.000 C 
ATOM      5  S   UNL     1       3.488   3.141  19.601  0.00  0.00    +0.000 S 
ATOM      6  O   UNL     1       4.856   2.847  19.971  0.00  0.00    +0.000 OA
ATOM      7  O   UNL     1       2.739   2.278  18.706  0.00  0.00    +0.000 OA
ATOM      8  C   UNL     1       3.489   4.739  18.851  0.00  0.00    +0.000 A 
ATOM      9  C   UNL     1       4.421   4.944  17.819  0.00  0.00    +0.000 A 
ATOM     10  C   UNL     1       4.453   6.165  17.153  0.00  0.00    +0.000 A 
ATOM     11  C   UNL     1       3.532   7.142  17.494  0.00  0.00    +0.000 A 
ATOM     12  F   UNL     1       3.536   8.309  16.840  0.00  0.00    +0.000 F 
ATOM     13  C   UNL     1       2.597   6.934  18.507  0.00  0.00    +0.000 A 
ATOM     14  C   UNL     1       2.595   5.744  19.247  0.00  0.00    +0.000 A 
ENDROOT
BRANCH   1  15
ATOM     15  N   UNL     1       1.378   7.868  20.956  0.00  0.00    +0.000 N 
ATOM     16  H   UNL     1       2.375   8.109  20.934  0.00  0.00    +0.000 HD
BRANCH  15  17
ATOM     17  S   UNL     1       0.601   8.994  22.005  0.00  0.00    +0.000 S 
ATOM     18  O   UNL     1       1.683   9.801  22.536  0.00  0.00    +0.000 OA
ATOM     19  O   UNL     1      -0.335   8.320  22.877  0.00  0.00    +0.000 OA
BRANCH  17  26
ATOM     20  C   UNL     1      -1.230   9.904  17.160  0.00  0.00    +0.000 C 
ATOM     21  C   UNL     1      -1.130  10.363  18.586  0.00  0.00    +0.000 A 
ATOM     22  C   UNL     1      -1.684  11.582  18.980  0.00  0.00    +0.000 A 
ATOM     23  C   UNL     1      -1.570  12.018  20.302  0.00  0.00    +0.000 A 
ATOM     24  C   UNL     1      -0.894  11.252  21.268  0.00  0.00    +0.000 A 
ATOM     25  C   UNL     1      -0.790  11.804  22.661  0.00  0.00    +0.000 C 
ATOM     26  C   UNL     1      -0.342  10.018  20.874  0.00  0.00    +0.000 A 
ATOM     27  C   UNL     1      -0.461   9.582  19.540  0.00  0.00    +0.000 A 
ENDBRANCH  17  26
ENDBRANCH  15  17
ENDBRANCH   1  15
TORSDOF 3
ENDMDL
MODEL 4
REMARK VINA RESULT:      -7.7      3.088      4.336
REMARK  Name = 
REMARK  5 active torsions:
REMARK  status: ('A' for Active; 'I' for Inactive)
REMARK    1  A    between atoms: C_1  and  C_2
REMARK    2  A    between atoms: C_5  and  C_6
REMARK    3  A    between atoms: C_7  and  S_8
REMARK    4  A    between atoms: S_8  and  N_11
REMARK    5  A    between atoms: N_11  and  N_12
REMARK                            x       y       z     vdW  Elec       q    Type
REMARK                         _______ _______ _______ _____ _____    ______ ____
ROOT
ATOM      1  N   UNL     1       1.378   6.250  20.965  0.00  0.00    +0.000 NA
ATOM      2  C   UNL     1       1.904   5.239  20.340  0.00  0.00    +0.000 C 
ATOM      3  C   UNL     1       1.399   3.879  20.803  0.00  0.00    +0.000 C 
ATOM      4  C   UNL     1       2.558   3.014  21.230  0.00  0.00    +0.000 C 
ATOM      5  S   UNL     1       3.542   2.609  19.821  0.00  0.00    +0.000 S 
ATOM      6  O   UNL     1       4.855   2.217  20.289  0.00  0.00    +0.000 OA
ATOM      7  O   UNL     1       2.759   1.756  18.946  0.00  0.00    +0.000 OA
ATOM      8  C   UNL     1       3.735   4.140  18.964  0.00  0.00    +0.000 A 
ATOM      9  C   UNL     1       4.733   4.182  17.976  0.00  0.00    +0.000 A 
ATOM     10  C   UNL     1       4.916   5.341  17.231  0.00  0.00    +0.000 A 
ATOM     11  C   UNL     1       4.078   6.422  17.451  0.00  0.00    +0.000 A 
ATOM     12  F   UNL     1       4.228   7.533  16.720  0.00  0.00    +0.000 F 
ATOM     13  C   UNL     1       3.077   6.378  18.421  0.00  0.00    +0.000 A 
ATOM     14  C   UNL     1       2.923   5.251  19.239  0.00  0.00    +0.000 A 
ENDROOT
BRANCH   1  15
ATOM     15  N   UNL     1       1.834   7.599  20.727  0.00  0.00    +0.000 N 
ATOM     16  H   UNL     1       2.811   7.797  20.969  0.00  0.00    +0.000 HD
BRANCH  15  17
ATOM     17  S   UNL     1       0.878   8.893  21.346  0.00  0.00    +0.000 S 
ATOM     18  O   UNL     1       1.460   9.184  22.643  0.00  0.00    +0.000 OA
ATOM     19  O   UNL     1      -0.531   8.605  21.200  0.00  0.00    +0.000 OA
BRANCH  17  26
ATOM     20  C   UNL     1       1.878  14.007  20.639  0.00  0.00    +0.000 C 
ATOM     21  C   UNL     1       1.711  12.649  20.021  0.00  0.00    +0.000 A 
ATOM     22  C   UNL     1       1.786  12.486  18.638  0.00  0.00    +0.000 A 
ATOM     23  C   UNL     1       1.608  11.225  18.062  0.00  0.00    +0.000 A 
ATOM     24  C   UNL     1       1.344  10.092  18.852  0.00  0.00    +0.000 A 
ATOM     25  C   UNL     1       1.136   8.778  18.155  0.00  0.00    +0.000 C 
ATOM     26  C   UNL     1       1.277  10.254  20.249  0.00  0.00    +0.000 A 
ATOM     27  C   UNL     1       1.460  11.528  20.825  0.00  0.00    +0.000 A 
ENDBRANCH  17  26
ENDBRANCH  15  17
ENDBRANCH   1  15
TORSDOF 3
ENDMDL
MODEL 5
REMARK VINA RESULT:      -7.6      3.184      7.497
REMARK  Name = 
REMARK  5 active torsions:
REMARK  status: ('A' for Active; 'I' for Inactive)
REMARK    1  A    between atoms: C_1  and  C_2
REMARK    2  A    between atoms: C_5  and  C_6
REMARK    3  A    between atoms: C_7  and  S_8
REMARK    4  A    between atoms: S_8  and  N_11
REMARK    5  A    between atoms: N_11  and  N_12
REMARK                            x       y       z     vdW  Elec       q    Type
REMARK                         _______ _______ _______ _____ _____    ______ ____
ROOT
ATOM      1  N   UNL     1       2.210   7.655  19.121  0.00  0.00    +0.000 NA
ATOM      2  C   UNL     1       1.603   8.805  19.150  0.00  0.00    +0.000 C 
ATOM      3  C   UNL     1       1.649   9.576  17.839  0.00  0.00    +0.000 C 
ATOM      4  C   UNL     1       2.243  10.944  18.062  0.00  0.00    +0.000 C 
ATOM      5  S   UNL     1       1.143  11.910  19.048  0.00  0.00    +0.000 S 
ATOM      6  O   UNL     1       1.904  12.989  19.642  0.00  0.00    +0.000 OA
ATOM      7  O   UNL     1      -0.061  12.162  18.278  0.00  0.00    +0.000 OA
ATOM      8  C   UNL     1       0.665  10.832  20.361  0.00  0.00    +0.000 A 
ATOM      9  C   UNL     1       0.042  11.432  21.468  0.00  0.00    +0.000 A 
ATOM     10  C   UNL     1      -0.399  10.641  22.523  0.00  0.00    +0.000 A 
ATOM     11  C   UNL     1      -0.253   9.265  22.439  0.00  0.00    +0.000 A 
ATOM     12  F   UNL     1      -0.699   8.493  23.437  0.00  0.00    +0.000 F 
ATOM     13  C   UNL     1       0.351   8.667  21.335  0.00  0.00    +0.000 A 
ATOM     14  C   UNL     1       0.875   9.446  20.296  0.00  0.00    +0.000 A 
ENDROOT
BRANCH   1  15
ATOM     15  N   UNL     1       2.359   6.855  20.313  0.00  0.00    +0.000 N 
ATOM     16  H   UNL     1       3.153   7.088  20.920  0.00  0.00    +0.000 HD
BRANCH  15  17
ATOM     17  S   UNL     1       2.330   5.140  20.141  0.00  0.00    +0.000 S 
ATOM     18  O   UNL     1       1.122   4.872  19.383  0.00  0.00    +0.000 OA
ATOM     19  O   UNL     1       2.582   4.494  21.410  0.00  0.00    +0.000 OA
BRANCH  17  26
ATOM     20  C   UNL     1       7.417   5.817  18.995  0.00  0.00    +0.000 C 
ATOM     21  C   UNL     1       6.100   5.206  18.613  0.00  0.00    +0.000 A 
ATOM     22  C   UNL     1       5.971   4.486  17.425  0.00  0.00    +0.000 A 
ATOM     23  C   UNL     1       4.740   3.937  17.059  0.00  0.00    +0.000 A 
ATOM     24  C   UNL     1       3.600   4.096  17.867  0.00  0.00    +0.000 A 
ATOM     25  C   UNL     1       2.307   3.500  17.389  0.00  0.00    +0.000 C 
ATOM     26  C   UNL     1       3.731   4.815  19.070  0.00  0.00    +0.000 A 
ATOM     27  C   UNL     1       4.976   5.366  19.435  0.00  0.00    +0.000 A 
ENDBRANCH  17  26
ENDBRANCH  15  17
ENDBRANCH   1  15
TORSDOF 3
ENDMDL
MODEL 6
REMARK VINA RESULT:      -7.6      2.482      3.987
REMARK  Name = 
REMARK  5 active torsions:
REMARK  status: ('A' for Active; 'I' for Inactive)
REMARK    1  A    between atoms: C_1  and  C_2
REMARK    2  A    between atoms: C_5  and  C_6
REMARK    3  A    between atoms: C_7  and  S_8
REMARK    4  A    between atoms: S_8  and  N_11
REMARK    5  A    between atoms: N_11  and  N_12
REMARK                            x       y       z     vdW  Elec       q    Type
REMARK                         _______ _______ _______ _____ _____    ______ ____
ROOT
ATOM      1  N   UNL     1       1.756   6.738  18.863  0.00  0.00    +0.000 NA
ATOM      2  C   UNL     1       2.484   5.695  18.592  0.00  0.00    +0.000 C 
ATOM      3  C   UNL     1       1.733   4.371  18.643  0.00  0.00    +0.000 C 
ATOM      4  C   UNL     1       2.412   3.427  19.603  0.00  0.00    +0.000 C 
ATOM      5  S   UNL     1       3.987   2.961  18.956  0.00  0.00    +0.000 S 
ATOM      6  O   UNL     1       4.798   2.478  20.054  0.00  0.00    +0.000 OA
ATOM      7  O   UNL     1       3.774   2.167  17.760  0.00  0.00    +0.000 OA
ATOM      8  C   UNL     1       4.706   4.478  18.412  0.00  0.00    +0.000 A 
ATOM      9  C   UNL     1       6.085   4.455  18.141  0.00  0.00    +0.000 A 
ATOM     10  C   UNL     1       6.714   5.602  17.668  0.00  0.00    +0.000 A 
ATOM     11  C   UNL     1       5.954   6.737  17.433  0.00  0.00    +0.000 A 
ATOM     12  F   UNL     1       6.545   7.838  16.953  0.00  0.00    +0.000 F 
ATOM     13  C   UNL     1       4.584   6.758  17.687  0.00  0.00    +0.000 A 
ATOM     14  C   UNL     1       3.941   5.641  18.238  0.00  0.00    +0.000 A 
ENDROOT
BRANCH   1  15
ATOM     15  N   UNL     1       2.341   8.052  18.971  0.00  0.00    +0.000 N 
ATOM     16  H   UNL     1       2.625   8.347  19.913  0.00  0.00    +0.000 HD
BRANCH  15  17
ATOM     17  S   UNL     1       1.494   9.372  18.254  0.00  0.00    +0.000 S 
ATOM     18  O   UNL     1       0.518   8.746  17.384  0.00  0.00    +0.000 OA
ATOM     19  O   UNL     1       2.421  10.365  17.757  0.00  0.00    +0.000 OA
BRANCH  17  26
ATOM     20  C   UNL     1       0.300   9.348  23.375  0.00  0.00    +0.000 C 
ATOM     21  C   UNL     1       0.104   9.983  22.029  0.00  0.00    +0.000 A 
ATOM     22  C   UNL     1      -0.796  11.036  21.867  0.00  0.00    +0.000 A 
ATOM     23  C   UNL     1      -0.995  11.611  20.609  0.00  0.00    +0.000 A 
ATOM     24  C   UNL     1      -0.304  11.147  19.476  0.00  0.00    +0.000 A 
ATOM     25  C   UNL     1      -0.595  11.799  18.155  0.00  0.00    +0.000 C 
ATOM     26  C   UNL     1       0.611  10.090  19.640  0.00  0.00    +0.000 A 
ATOM     27  C   UNL     1       0.810   9.514  20.911  0.00  0.00    +0.000 A 
ENDBRANCH  17  26
ENDBRANCH  15  17
ENDBRANCH   1  15
TORSDOF 3
ENDMDL
MODEL 7
REMARK VINA RESULT:      -7.5      3.131      7.243
REMARK  Name = 
REMARK  5 active torsions:
REMARK  status: ('A' for Active; 'I' for Inactive)
REMARK    1  A    between atoms: C_1  and  C_2
REMARK    2  A    between atoms: C_5  and  C_6
REMARK    3  A    between atoms: C_7  and  S_8
REMARK    4  A    between atoms: S_8  and  N_11
REMARK    5  A    between atoms: N_11  and  N_12
REMARK                            x       y       z     vdW  Elec       q    Type
REMARK                         _______ _______ _______ _____ _____    ______ ____
ROOT
ATOM      1  N   UNL     1       2.071   7.557  19.313  0.00  0.00    +0.000 NA
ATOM      2  C   UNL     1       1.485   8.717  19.291  0.00  0.00    +0.000 C 
ATOM      3  C   UNL     1       1.508   9.410  17.935  0.00  0.00    +0.000 C 
ATOM      4  C   UNL     1       2.131  10.777  18.063  0.00  0.00    +0.000 C 
ATOM      5  S   UNL     1       1.075  11.819  19.019  0.00  0.00    +0.000 S 
ATOM      6  O   UNL     1       1.870  12.916  19.530  0.00  0.00    +0.000 OA
ATOM      7  O   UNL     1      -0.144  12.049  18.266  0.00  0.00    +0.000 OA
ATOM      8  C   UNL     1       0.614  10.828  20.404  0.00  0.00    +0.000 A 
ATOM      9  C   UNL     1       0.032  11.503  21.490  0.00  0.00    +0.000 A 
ATOM     10  C   UNL     1      -0.395  10.783  22.601  0.00  0.00    +0.000 A 
ATOM     11  C   UNL     1      -0.275   9.402  22.594  0.00  0.00    +0.000 A 
ATOM     12  F   UNL     1      -0.708   8.698  23.646  0.00  0.00    +0.000 F 
ATOM     13  C   UNL     1       0.290   8.729  21.511  0.00  0.00    +0.000 A 
ATOM     14  C   UNL     1       0.799   9.437  20.415  0.00  0.00    +0.000 A 
ENDROOT
BRANCH   1  15
ATOM     15  N   UNL     1       2.237   6.824  20.546  0.00  0.00    +0.000 N 
ATOM     16  H   UNL     1       3.104   7.002  21.065  0.00  0.00    +0.000 HD
BRANCH  15  17
ATOM     17  S   UNL     1       2.002   5.117  20.506  0.00  0.00    +0.000 S 
ATOM     18  O   UNL     1       0.595   4.952  20.196  0.00  0.00    +0.000 OA
ATOM     19  O   UNL     1       2.597   4.491  21.666  0.00  0.00    +0.000 OA
BRANCH  17  26
ATOM     20  C   UNL     1       5.138   6.355  16.471  0.00  0.00    +0.000 C 
ATOM     21  C   UNL     1       4.383   5.290  17.211  0.00  0.00    +0.000 A 
ATOM     22  C   UNL     1       4.357   3.978  16.734  0.00  0.00    +0.000 A 
ATOM     23  C   UNL     1       3.634   2.993  17.411  0.00  0.00    +0.000 A 
ATOM     24  C   UNL     1       2.911   3.290  18.579  0.00  0.00    +0.000 A 
ATOM     25  C   UNL     1       2.136   2.181  19.231  0.00  0.00    +0.000 C 
ATOM     26  C   UNL     1       2.943   4.610  19.066  0.00  0.00    +0.000 A 
ATOM     27  C   UNL     1       3.675   5.601  18.381  0.00  0.00    +0.000 A 
ENDBRANCH  17  26
ENDBRANCH  15  17
ENDBRANCH   1  15
TORSDOF 3
ENDMDL
MODEL 8
REMARK VINA RESULT:      -7.4      1.642      2.722
REMARK  Name = 
REMARK  5 active torsions:
REMARK  status: ('A' for Active; 'I' for Inactive)
REMARK    1  A    between atoms: C_1  and  C_2
REMARK    2  A    between atoms: C_5  and  C_6
REMARK    3  A    between atoms: C_7  and  S_8
REMARK    4  A    between atoms: S_8  and  N_11
REMARK    5  A    between atoms: N_11  and  N_12
REMARK                            x       y       z     vdW  Elec       q    Type
REMARK                         _______ _______ _______ _____ _____    ______ ____
ROOT
ATOM      1  N   UNL     1       3.320   8.112  18.169  0.00  0.00    +0.000 NA
ATOM      2  C   UNL     1       3.849   6.955  17.901  0.00  0.00    +0.000 C 
ATOM      3  C   UNL     1       5.276   7.020  17.375  0.00  0.00    +0.000 C 
ATOM      4  C   UNL     1       5.370   6.319  16.043  0.00  0.00    +0.000 C 
ATOM      5  S   UNL     1       5.113   4.588  16.269  0.00  0.00    +0.000 S 
ATOM      6  O   UNL     1       4.730   4.021  14.993  0.00  0.00    +0.000 OA
ATOM      7  O   UNL     1       6.225   4.056  17.035  0.00  0.00    +0.000 OA
ATOM      8  C   UNL     1       3.702   4.485  17.324  0.00  0.00    +0.000 A 
ATOM      9  C   UNL     1       3.080   3.229  17.417  0.00  0.00    +0.000 A 
ATOM     10  C   UNL     1       1.988   3.061  18.261  0.00  0.00    +0.000 A 
ATOM     11  C   UNL     1       1.559   4.133  19.028  0.00  0.00    +0.000 A 
ATOM     12  F   UNL     1       0.526   3.975  19.863  0.00  0.00    +0.000 F 
ATOM     13  C   UNL     1       2.184   5.377  18.948  0.00  0.00    +0.000 A 
ATOM     14  C   UNL     1       3.236   5.593  18.048  0.00  0.00    +0.000 A 
ENDROOT
BRANCH   1  15
ATOM     15  N   UNL     1       1.937   8.231  18.565  0.00  0.00    +0.000 N 
ATOM     16  H   UNL     1       1.340   7.418  18.377  0.00  0.00    +0.000 HD
BRANCH  15  17
ATOM     17  S   UNL     1       1.071   9.632  18.054  0.00  0.00    +0.000 S 
ATOM     18  O   UNL     1      -0.019   9.111  17.252  0.00  0.00    +0.000 OA
ATOM     19  O   UNL     1       1.976  10.633  17.537  0.00  0.00    +0.000 OA
BRANCH  17  26
ATOM     20  C   UNL     1       0.470   9.235  23.263  0.00  0.00    +0.000 C 
ATOM     21  C   UNL     1       0.140   9.977  22.000  0.00  0.00    +0.000 A 
ATOM     22  C   UNL     1      -0.742  11.058  22.022  0.00  0.00    +0.000 A 
ATOM     23  C   UNL     1      -1.065  11.733  20.843  0.00  0.00    +0.000 A 
ATOM     24  C   UNL     1      -0.522  11.344  19.606  0.00  0.00    +0.000 A 
ATOM     25  C   UNL     1      -0.943  12.102  18.380  0.00  0.00    +0.000 C 
ATOM     26  C   UNL     1       0.374  10.258  19.583  0.00  0.00    +0.000 A 
ATOM     27  C   UNL     1       0.699   9.582  20.776  0.00  0.00    +0.000 A 
ENDBRANCH  17  26
ENDBRANCH  15  17
ENDBRANCH   1  15
TORSDOF 3
ENDMDL
MODEL 9
REMARK VINA RESULT:      -7.4      4.405      7.951
REMARK  Name = 
REMARK  5 active torsions:
REMARK  status: ('A' for Active; 'I' for Inactive)
REMARK    1  A    between atoms: C_1  and  C_2
REMARK    2  A    between atoms: C_5  and  C_6
REMARK    3  A    between atoms: C_7  and  S_8
REMARK    4  A    between atoms: S_8  and  N_11
REMARK    5  A    between atoms: N_11  and  N_12
REMARK                            x       y       z     vdW  Elec       q    Type
REMARK                         _______ _______ _______ _____ _____    ______ ____
ROOT
ATOM      1  N   UNL     1       4.869   3.442  17.317  0.00  0.00    +0.000 NA
ATOM      2  C   UNL     1       4.220   3.628  18.429  0.00  0.00    +0.000 C 
ATOM      3  C   UNL     1       4.257   2.446  19.387  0.00  0.00    +0.000 C 
ATOM      4  C   UNL     1       2.854   2.017  19.736  0.00  0.00    +0.000 C 
ATOM      5  S   UNL     1       2.074   3.277  20.695  0.00  0.00    +0.000 S 
ATOM      6  O   UNL     1       0.642   3.087  20.606  0.00  0.00    +0.000 OA
ATOM      7  O   UNL     1       2.752   3.363  21.975  0.00  0.00    +0.000 OA
ATOM      8  C   UNL     1       2.449   4.776  19.842  0.00  0.00    +0.000 A 
ATOM      9  C   UNL     1       1.696   5.906  20.203  0.00  0.00    +0.000 A 
ATOM     10  C   UNL     1       1.963   7.132  19.604  0.00  0.00    +0.000 A 
ATOM     11  C   UNL     1       3.001   7.222  18.690  0.00  0.00    +0.000 A 
ATOM     12  F   UNL     1       3.283   8.404  18.128  0.00  0.00    +0.000 F 
ATOM     13  C   UNL     1       3.759   6.105  18.342  0.00  0.00    +0.000 A 
ATOM     14  C   UNL     1       3.460   4.844  18.871  0.00  0.00    +0.000 A 
ENDROOT
BRANCH   1  15
ATOM     15  N   UNL     1       4.835   4.418  16.256  0.00  0.00    +0.000 N 
ATOM     16  H   UNL     1       4.328   4.147  15.406  0.00  0.00    +0.000 HD
BRANCH  15  17
ATOM     17  S   UNL     1       6.329   5.122  15.760  0.00  0.00    +0.000 S 
ATOM     18  O   UNL     1       7.341   4.358  16.464  0.00  0.00    +0.000 OA
ATOM     19  O   UNL     1       6.272   6.564  15.855  0.00  0.00    +0.000 OA
BRANCH  17  26
ATOM     20  C   UNL     1       4.265   2.722  11.562  0.00  0.00    +0.000 C 
ATOM     21  C   UNL     1       5.395   3.527  12.136  0.00  0.00    +0.000 A 
ATOM     22  C   UNL     1       6.507   3.845  11.356  0.00  0.00    +0.000 A 
ATOM     23  C   UNL     1       7.568   4.575  11.898  0.00  0.00    +0.000 A 
ATOM     24  C   UNL     1       7.551   5.002  13.237  0.00  0.00    +0.000 A 
ATOM     25  C   UNL     1       8.743   5.757  13.752  0.00  0.00    +0.000 C 
ATOM     26  C   UNL     1       6.426   4.689  14.023  0.00  0.00    +0.000 A 
ATOM     27  C   UNL     1       5.357   3.955  13.471  0.00  0.00    +0.000 A 
ENDBRANCH  17  26
ENDBRANCH  15  17
ENDBRANCH   1  15
TORSDOF 3
ENDMDL
