MODEL 1
REMARK VINA RESULT:      -7.8      0.000      0.000
REMARK  Name = 
REMARK  4 active torsions:
REMARK  status: ('A' for Active; 'I' for Inactive)
REMARK    1  A    between atoms: C_1  and  O_2
REMARK    2  A    between atoms: O_2  and  C_3
REMARK    3  A    between atoms: C_3  and  C_5
REMARK    4  A    between atoms: C_10  and  C_11
REMARK                            x       y       z     vdW  Elec       q    Type
REMARK                         _______ _______ _______ _____ _____    ______ ____
ROOT
ATOM      1  C   UNL     1       3.324   4.516  17.503  0.00  0.00    +0.000 C 
ATOM      2  C   UNL     1       4.284   3.327  17.284  0.00  0.00    +0.000 C 
ATOM      3  N   UNL     1       5.612   3.789  16.852  0.00  0.00    +0.000 NA
ATOM      4  C   UNL     1       6.217   4.662  17.868  0.00  0.00    +0.000 C 
ATOM      5  C   UNL     1       5.356   5.911  18.091  0.00  0.00    +0.000 C 
ATOM      6  C   UNL     1       3.932   5.509  18.528  0.00  0.00    +0.000 C 
ATOM      7  H   UNL     1       5.529   4.305  15.945  0.00  0.00    +0.000 HD
ENDROOT
BRANCH   6   8
ATOM      8  C   UNL     1       3.063   6.749  18.695  0.00  0.00    +0.000 A 
ATOM      9  C   UNL     1       2.933   7.671  17.643  0.00  0.00    +0.000 A 
ATOM     10  C   UNL     1       2.133   8.810  17.787  0.00  0.00    +0.000 A 
ATOM     11  C   UNL     1       1.443   9.043  18.985  0.00  0.00    +0.000 A 
ATOM     12  C   UNL     1       0.633  10.179  19.139  0.00  0.00    +0.000 A 
ATOM     13  C   UNL     1      -0.052  10.396  20.340  0.00  0.00    +0.000 A 
ATOM     14  C   UNL     1       0.069   9.487  21.392  0.00  0.00    +0.000 A 
ATOM     15  C   UNL     1       0.874   8.353  21.253  0.00  0.00    +0.000 A 
ATOM     16  C   UNL     1       1.566   8.123  20.051  0.00  0.00    +0.000 A 
ATOM     17  C   UNL     1       2.375   6.989  19.900  0.00  0.00    +0.000 A 
ENDBRANCH   6   8
BRANCH   1  18
ATOM     18  C   UNL     1       1.987   3.999  17.981  0.00  0.00    +0.000 C 
ATOM     19  O   UNL     1       0.991   4.157  17.288  0.00  0.00    +0.000 OA
BRANCH  18  21
ATOM     20  C   UNL     1       0.900   3.548  20.094  0.00  0.00    +0.000 C 
ATOM     21  O   UNL     1       1.909   3.354  19.174  0.00  0.00    +0.000 OA
ENDBRANCH  18  21
ENDBRANCH   1  18
TORSDOF 3
ENDMDL
MODEL 2
REMARK VINA RESULT:      -7.3      3.395      5.221
REMARK  Name = 
REMARK  4 active torsions:
REMARK  status: ('A' for Active; 'I' for Inactive)
REMARK    1  A    between atoms: C_1  and  O_2
REMARK    2  A    between atoms: O_2  and  C_3
REMARK    3  A    between atoms: C_3  and  C_5
REMARK    4  A    between atoms: C_10  and  C_11
REMARK                            x       y       z     vdW  Elec       q    Type
REMARK                         _______ _______ _______ _____ _____    ______ ____
ROOT
ATOM      1  C   UNL     1       6.715   5.095  16.517  0.00  0.00    +0.000 C 
ATOM      2  C   UNL     1       7.512   5.130  15.195  0.00  0.00    +0.000 C 
ATOM      3  N   UNL     1       7.020   4.116  14.250  0.00  0.00    +0.000 NA
ATOM      4  C   UNL     1       5.608   4.353  13.919  0.00  0.00    +0.000 C 
ATOM      5  C   UNL     1       4.733   4.261  15.176  0.00  0.00    +0.000 C 
ATOM      6  C   UNL     1       5.203   5.284  16.230  0.00  0.00    +0.000 C 
ATOM      7  H   UNL     1       7.131   3.161  14.666  0.00  0.00    +0.000 HD
ENDROOT
BRANCH   6   8
ATOM      8  C   UNL     1       4.368   5.153  17.498  0.00  0.00    +0.000 A 
ATOM      9  C   UNL     1       3.592   6.233  17.951  0.00  0.00    +0.000 A 
ATOM     10  C   UNL     1       2.819   6.119  19.111  0.00  0.00    +0.000 A 
ATOM     11  C   UNL     1       2.803   4.920  19.837  0.00  0.00    +0.000 A 
ATOM     12  C   UNL     1       2.027   4.792  20.999  0.00  0.00    +0.000 A 
ATOM     13  C   UNL     1       2.020   3.587  21.710  0.00  0.00    +0.000 A 
ATOM     14  C   UNL     1       2.787   2.506  21.270  0.00  0.00    +0.000 A 
ATOM     15  C   UNL     1       3.566   2.621  20.116  0.00  0.00    +0.000 A 
ATOM     16  C   UNL     1       3.580   3.825  19.392  0.00  0.00    +0.000 A 
ATOM     17  C   UNL     1       4.357   3.951  18.233  0.00  0.00    +0.000 A 
ENDBRANCH   6   8
BRANCH   1  18
ATOM     18  C   UNL     1       7.228   6.175  17.440  0.00  0.00    +0.000 C 
ATOM     19  O   UNL     1       7.637   5.878  18.554  0.00  0.00    +0.000 OA
BRANCH  18  21
ATOM     20  C   UNL     1       7.877   8.493  17.678  0.00  0.00    +0.000 C 
ATOM     21  O   UNL     1       7.238   7.466  17.016  0.00  0.00    +0.000 OA
ENDBRANCH  18  21
ENDBRANCH   1  18
TORSDOF 3
ENDMDL
MODEL 3
REMARK VINA RESULT:      -7.3      3.415      5.006
REMARK  Name = 
REMARK  4 active torsions:
REMARK  status: ('A' for Active; 'I' for Inactive)
REMARK    1  A    between atoms: C_1  and  O_2
REMARK    2  A    between atoms: O_2  and  C_3
REMARK    3  A    between atoms: C_3  and  C_5
REMARK    4  A    between atoms: C_10  and  C_11
REMARK                            x       y       z     vdW  Elec       q    Type
REMARK                         _______ _______ _______ _____ _____    ______ ____
ROOT
ATOM      1  C   UNL     1       6.670   5.082  16.319  0.00  0.00    +0.000 C 
ATOM      2  C   UNL     1       7.436   5.061  14.979  0.00  0.00    +0.000 C 
ATOM      3  N   UNL     1       6.964   3.970  14.113  0.00  0.00    +0.000 NA
ATOM      4  C   UNL     1       5.536   4.131  13.802  0.00  0.00    +0.000 C 
ATOM      5  C   UNL     1       4.694   4.087  15.083  0.00  0.00    +0.000 C 
ATOM      6  C   UNL     1       5.145   5.194  16.058  0.00  0.00    +0.000 C 
ATOM      7  H   UNL     1       7.121   3.049  14.586  0.00  0.00    +0.000 HD
ENDROOT
BRANCH   6   8
ATOM      8  C   UNL     1       4.344   5.113  17.352  0.00  0.00    +0.000 A 
ATOM      9  C   UNL     1       3.644   6.236  17.823  0.00  0.00    +0.000 A 
ATOM     10  C   UNL     1       2.902   6.169  19.007  0.00  0.00    +0.000 A 
ATOM     11  C   UNL     1       2.843   4.975  19.739  0.00  0.00    +0.000 A 
ATOM     12  C   UNL     1       2.097   4.894  20.926  0.00  0.00    +0.000 A 
ATOM     13  C   UNL     1       2.046   3.694  21.643  0.00  0.00    +0.000 A 
ATOM     14  C   UNL     1       2.738   2.570  21.184  0.00  0.00    +0.000 A 
ATOM     15  C   UNL     1       3.486   2.638  20.006  0.00  0.00    +0.000 A 
ATOM     16  C   UNL     1       3.544   3.838  19.276  0.00  0.00    +0.000 A 
ATOM     17  C   UNL     1       4.290   3.916  18.093  0.00  0.00    +0.000 A 
ENDBRANCH   6   8
BRANCH   1  18
ATOM     18  C   UNL     1       7.160   6.238  17.159  0.00  0.00    +0.000 C 
ATOM     19  O   UNL     1       6.923   7.386  16.811  0.00  0.00    +0.000 OA
BRANCH  18  21
ATOM     20  C   UNL     1       7.268   5.608  19.492  0.00  0.00    +0.000 C 
ATOM     21  O   UNL     1       7.851   5.986  18.301  0.00  0.00    +0.000 OA
ENDBRANCH  18  21
ENDBRANCH   1  18
TORSDOF 3
ENDMDL
MODEL 4
REMARK VINA RESULT:      -7.3      0.708      1.720
REMARK  Name = 
REMARK  4 active torsions:
REMARK  status: ('A' for Active; 'I' for Inactive)
REMARK    1  A    between atoms: C_1  and  O_2
REMARK    2  A    between atoms: O_2  and  C_3
REMARK    3  A    between atoms: C_3  and  C_5
REMARK    4  A    between atoms: C_10  and  C_11
REMARK                            x       y       z     vdW  Elec       q    Type
REMARK                         _______ _______ _______ _____ _____    ______ ____
ROOT
ATOM      1  C   UNL     1       3.363   4.367  17.473  0.00  0.00    +0.000 C 
ATOM      2  C   UNL     1       4.358   3.286  16.999  0.00  0.00    +0.000 C 
ATOM      3  N   UNL     1       5.682   3.865  16.727  0.00  0.00    +0.000 NA
ATOM      4  C   UNL     1       6.244   4.477  17.939  0.00  0.00    +0.000 C 
ATOM      5  C   UNL     1       5.346   5.618  18.435  0.00  0.00    +0.000 C 
ATOM      6  C   UNL     1       3.925   5.094  18.723  0.00  0.00    +0.000 C 
ATOM      7  H   UNL     1       5.606   4.584  15.969  0.00  0.00    +0.000 HD
ENDROOT
BRANCH   6   8
ATOM      8  C   UNL     1       3.021   6.239  19.162  0.00  0.00    +0.000 A 
ATOM      9  C   UNL     1       2.366   6.189  20.405  0.00  0.00    +0.000 A 
ATOM     10  C   UNL     1       1.539   7.239  20.818  0.00  0.00    +0.000 A 
ATOM     11  C   UNL     1       1.356   8.361  19.998  0.00  0.00    +0.000 A 
ATOM     12  C   UNL     1       0.533   9.423  20.405  0.00  0.00    +0.000 A 
ATOM     13  C   UNL     1       0.363  10.537  19.576  0.00  0.00    +0.000 A 
ATOM     14  C   UNL     1       1.009  10.599  18.339  0.00  0.00    +0.000 A 
ATOM     15  C   UNL     1       1.829   9.547  17.921  0.00  0.00    +0.000 A 
ATOM     16  C   UNL     1       2.009   8.423  18.745  0.00  0.00    +0.000 A 
ATOM     17  C   UNL     1       2.830   7.364  18.337  0.00  0.00    +0.000 A 
ENDBRANCH   6   8
BRANCH   1  18
ATOM     18  C   UNL     1       2.030   3.724  17.776  0.00  0.00    +0.000 C 
ATOM     19  O   UNL     1       1.019   4.132  17.222  0.00  0.00    +0.000 OA
BRANCH  18  21
ATOM     20  C   UNL     1       1.171   2.671  19.776  0.00  0.00    +0.000 C 
ATOM     21  O   UNL     1       1.973   2.690  18.655  0.00  0.00    +0.000 OA
ENDBRANCH  18  21
ENDBRANCH   1  18
TORSDOF 3
ENDMDL
MODEL 5
REMARK VINA RESULT:      -7.2      2.565      6.100
REMARK  Name = 
REMARK  4 active torsions:
REMARK  status: ('A' for Active; 'I' for Inactive)
REMARK    1  A    between atoms: C_1  and  O_2
REMARK    2  A    between atoms: O_2  and  C_3
REMARK    3  A    between atoms: C_3  and  C_5
REMARK    4  A    between atoms: C_10  and  C_11
REMARK                            x       y       z     vdW  Elec       q    Type
REMARK                         _______ _______ _______ _____ _____    ______ ____
ROOT
ATOM      1  C   UNL     1       2.054   4.966  19.439  0.00  0.00    +0.000 C 
ATOM      2  C   UNL     1       0.981   4.623  20.495  0.00  0.00    +0.000 C 
ATOM      3  N   UNL     1       0.832   3.168  20.647  0.00  0.00    +0.000 NA
ATOM      4  C   UNL     1       2.093   2.556  21.087  0.00  0.00    +0.000 C 
ATOM      5  C   UNL     1       3.199   2.790  20.050  0.00  0.00    +0.000 C 
ATOM      6  C   UNL     1       3.403   4.301  19.817  0.00  0.00    +0.000 C 
ATOM      7  H   UNL     1       0.532   2.746  19.737  0.00  0.00    +0.000 HD
ENDROOT
BRANCH   6   8
ATOM      8  C   UNL     1       4.464   4.529  18.746  0.00  0.00    +0.000 A 
ATOM      9  C   UNL     1       5.697   5.112  19.083  0.00  0.00    +0.000 A 
ATOM     10  C   UNL     1       6.678   5.319  18.107  0.00  0.00    +0.000 A 
ATOM     11  C   UNL     1       6.444   4.943  16.777  0.00  0.00    +0.000 A 
ATOM     12  C   UNL     1       7.423   5.141  15.790  0.00  0.00    +0.000 A 
ATOM     13  C   UNL     1       7.176   4.757  14.468  0.00  0.00    +0.000 A 
ATOM     14  C   UNL     1       5.953   4.177  14.121  0.00  0.00    +0.000 A 
ATOM     15  C   UNL     1       4.970   3.975  15.093  0.00  0.00    +0.000 A 
ATOM     16  C   UNL     1       5.207   4.356  16.425  0.00  0.00    +0.000 A 
ATOM     17  C   UNL     1       4.228   4.158  17.408  0.00  0.00    +0.000 A 
ENDBRANCH   6   8
BRANCH   1  18
ATOM     18  C   UNL     1       2.201   6.467  19.343  0.00  0.00    +0.000 C 
ATOM     19  O   UNL     1       2.179   7.146  20.359  0.00  0.00    +0.000 OA
BRANCH  18  21
ATOM     20  C   UNL     1       2.200   8.389  17.875  0.00  0.00    +0.000 C 
ATOM     21  O   UNL     1       2.367   7.043  18.124  0.00  0.00    +0.000 OA
ENDBRANCH  18  21
ENDBRANCH   1  18
TORSDOF 3
ENDMDL
MODEL 6
REMARK VINA RESULT:      -7.1      3.834      5.166
REMARK  Name = 
REMARK  4 active torsions:
REMARK  status: ('A' for Active; 'I' for Inactive)
REMARK    1  A    between atoms: C_1  and  O_2
REMARK    2  A    between atoms: O_2  and  C_3
REMARK    3  A    between atoms: C_3  and  C_5
REMARK    4  A    between atoms: C_10  and  C_11
REMARK                            x       y       z     vdW  Elec       q    Type
REMARK                         _______ _______ _______ _____ _____    ______ ____
ROOT
ATOM      1  C   UNL     1       6.389   6.543  17.319  0.00  0.00    +0.000 C 
ATOM      2  C   UNL     1       7.769   7.237  17.330  0.00  0.00    +0.000 C 
ATOM      3  N   UNL     1       8.245   7.452  18.705  0.00  0.00    +0.000 NA
ATOM      4  C   UNL     1       8.390   6.173  19.414  0.00  0.00    +0.000 C 
ATOM      5  C   UNL     1       7.040   5.451  19.512  0.00  0.00    +0.000 C 
ATOM      6  C   UNL     1       6.460   5.207  18.103  0.00  0.00    +0.000 C 
ATOM      7  H   UNL     1       7.573   8.068  19.220  0.00  0.00    +0.000 HD
ENDROOT
BRANCH   6   8
ATOM      8  C   UNL     1       5.093   4.540  18.206  0.00  0.00    +0.000 A 
ATOM      9  C   UNL     1       4.692   3.597  17.245  0.00  0.00    +0.000 A 
ATOM     10  C   UNL     1       3.441   2.976  17.334  0.00  0.00    +0.000 A 
ATOM     11  C   UNL     1       2.572   3.285  18.390  0.00  0.00    +0.000 A 
ATOM     12  C   UNL     1       1.317   2.664  18.493  0.00  0.00    +0.000 A 
ATOM     13  C   UNL     1       0.462   2.980  19.555  0.00  0.00    +0.000 A 
ATOM     14  C   UNL     1       0.851   3.916  20.516  0.00  0.00    +0.000 A 
ATOM     15  C   UNL     1       2.096   4.543  20.424  0.00  0.00    +0.000 A 
ATOM     16  C   UNL     1       2.964   4.232  19.363  0.00  0.00    +0.000 A 
ATOM     17  C   UNL     1       4.216   4.854  19.261  0.00  0.00    +0.000 A 
ENDBRANCH   6   8
BRANCH   1  18
ATOM     18  C   UNL     1       5.957   6.309  15.891  0.00  0.00    +0.000 C 
ATOM     19  O   UNL     1       4.921   6.812  15.479  0.00  0.00    +0.000 OA
BRANCH  18  21
ATOM     20  C   UNL     1       6.248   4.546  14.261  0.00  0.00    +0.000 C 
ATOM     21  O   UNL     1       6.733   5.547  15.076  0.00  0.00    +0.000 OA
ENDBRANCH  18  21
ENDBRANCH   1  18
TORSDOF 3
ENDMDL
MODEL 7
REMARK VINA RESULT:      -7.0      1.327      2.143
REMARK  Name = 
REMARK  4 active torsions:
REMARK  status: ('A' for Active; 'I' for Inactive)
REMARK    1  A    between atoms: C_1  and  O_2
REMARK    2  A    between atoms: O_2  and  C_3
REMARK    3  A    between atoms: C_3  and  C_5
REMARK    4  A    between atoms: C_10  and  C_11
REMARK                            x       y       z     vdW  Elec       q    Type
REMARK                         _______ _______ _______ _____ _____    ______ ____
ROOT
ATOM      1  C   UNL     1       4.264   4.428  16.641  0.00  0.00    +0.000 C 
ATOM      2  C   UNL     1       5.380   3.653  15.909  0.00  0.00    +0.000 C 
ATOM      3  N   UNL     1       6.381   4.569  15.343  0.00  0.00    +0.000 NA
ATOM      4  C   UNL     1       7.019   5.364  16.401  0.00  0.00    +0.000 C 
ATOM      5  C   UNL     1       5.982   6.225  17.133  0.00  0.00    +0.000 C 
ATOM      6  C   UNL     1       4.879   5.334  17.740  0.00  0.00    +0.000 C 
ATOM      7  H   UNL     1       5.925   5.206  14.648  0.00  0.00    +0.000 HD
ENDROOT
BRANCH   6   8
ATOM      8  C   UNL     1       3.821   6.196  18.418  0.00  0.00    +0.000 A 
ATOM      9  C   UNL     1       3.299   5.824  19.669  0.00  0.00    +0.000 A 
ATOM     10  C   UNL     1       2.332   6.612  20.301  0.00  0.00    +0.000 A 
ATOM     11  C   UNL     1       1.872   7.790  19.695  0.00  0.00    +0.000 A 
ATOM     12  C   UNL     1       0.906   8.592  20.322  0.00  0.00    +0.000 A 
ATOM     13  C   UNL     1       0.460   9.766  19.706  0.00  0.00    +0.000 A 
ATOM     14  C   UNL     1       0.971  10.146  18.463  0.00  0.00    +0.000 A 
ATOM     15  C   UNL     1       1.932   9.356  17.827  0.00  0.00    +0.000 A 
ATOM     16  C   UNL     1       2.389   8.175  18.437  0.00  0.00    +0.000 A 
ATOM     17  C   UNL     1       3.353   7.376  17.808  0.00  0.00    +0.000 A 
ENDBRANCH   6   8
BRANCH   1  18
ATOM     18  C   UNL     1       3.281   3.449  17.238  0.00  0.00    +0.000 C 
ATOM     19  O   UNL     1       2.087   3.563  16.996  0.00  0.00    +0.000 OA
BRANCH  18  21
ATOM     20  C   UNL     1       3.244   2.165  19.287  0.00  0.00    +0.000 C 
ATOM     21  O   UNL     1       3.738   2.445  18.030  0.00  0.00    +0.000 OA
ENDBRANCH  18  21
ENDBRANCH   1  18
TORSDOF 3
ENDMDL
MODEL 8
REMARK VINA RESULT:      -7.0      0.948      1.160
REMARK  Name = 
REMARK  4 active torsions:
REMARK  status: ('A' for Active; 'I' for Inactive)
REMARK    1  A    between atoms: C_1  and  O_2
REMARK    2  A    between atoms: O_2  and  C_3
REMARK    3  A    between atoms: C_3  and  C_5
REMARK    4  A    between atoms: C_10  and  C_11
REMARK                            x       y       z     vdW  Elec       q    Type
REMARK                         _______ _______ _______ _____ _____    ______ ____
ROOT
ATOM      1  C   UNL     1       3.332   4.768  17.569  0.00  0.00    +0.000 C 
ATOM      2  C   UNL     1       4.370   3.767  17.018  0.00  0.00    +0.000 C 
ATOM      3  N   UNL     1       5.097   4.331  15.872  0.00  0.00    +0.000 NA
ATOM      4  C   UNL     1       5.824   5.548  16.262  0.00  0.00    +0.000 C 
ATOM      5  C   UNL     1       4.850   6.626  16.753  0.00  0.00    +0.000 C 
ATOM      6  C   UNL     1       4.028   6.101  17.948  0.00  0.00    +0.000 C 
ATOM      7  H   UNL     1       4.425   4.552  15.100  0.00  0.00    +0.000 HD
ENDROOT
BRANCH   6   8
ATOM      8  C   UNL     1       3.023   7.154  18.399  0.00  0.00    +0.000 A 
ATOM      9  C   UNL     1       2.582   8.142  17.503  0.00  0.00    +0.000 A 
ATOM     10  C   UNL     1       1.655   9.109  17.907  0.00  0.00    +0.000 A 
ATOM     11  C   UNL     1       1.150   9.102  19.215  0.00  0.00    +0.000 A 
ATOM     12  C   UNL     1       0.215  10.064  19.631  0.00  0.00    +0.000 A 
ATOM     13  C   UNL     1      -0.282  10.041  20.938  0.00  0.00    +0.000 A 
ATOM     14  C   UNL     1       0.150   9.064  21.838  0.00  0.00    +0.000 A 
ATOM     15  C   UNL     1       1.081   8.102  21.438  0.00  0.00    +0.000 A 
ATOM     16  C   UNL     1       1.587   8.114  20.127  0.00  0.00    +0.000 A 
ATOM     17  C   UNL     1       2.520   7.153  19.715  0.00  0.00    +0.000 A 
ENDBRANCH   6   8
BRANCH   1  18
ATOM     18  C   UNL     1       2.636   4.163  18.765  0.00  0.00    +0.000 C 
ATOM     19  O   UNL     1       3.275   3.916  19.779  0.00  0.00    +0.000 OA
BRANCH  18  21
ATOM     20  C   UNL     1       0.740   2.671  18.925  0.00  0.00    +0.000 C 
ATOM     21  O   UNL     1       1.303   3.910  18.704  0.00  0.00    +0.000 OA
ENDBRANCH  18  21
ENDBRANCH   1  18
TORSDOF 3
ENDMDL
MODEL 9
REMARK VINA RESULT:      -7.0      2.620      4.060
REMARK  Name = 
REMARK  4 active torsions:
REMARK  status: ('A' for Active; 'I' for Inactive)
REMARK    1  A    between atoms: C_1  and  O_2
REMARK    2  A    between atoms: O_2  and  C_3
REMARK    3  A    between atoms: C_3  and  C_5
REMARK    4  A    between atoms: C_10  and  C_11
REMARK                            x       y       z     vdW  Elec       q    Type
REMARK                         _______ _______ _______ _____ _____    ______ ____
ROOT
ATOM      1  C   UNL     1       6.432   5.194  17.244  0.00  0.00    +0.000 C 
ATOM      2  C   UNL     1       7.340   4.529  16.188  0.00  0.00    +0.000 C 
ATOM      3  N   UNL     1       6.640   3.436  15.496  0.00  0.00    +0.000 NA
ATOM      4  C   UNL     1       5.448   3.939  14.798  0.00  0.00    +0.000 C 
ATOM      5  C   UNL     1       4.456   4.552  15.794  0.00  0.00    +0.000 C 
ATOM      6  C   UNL     1       5.125   5.698  16.579  0.00  0.00    +0.000 C 
ATOM      7  H   UNL     1       6.362   2.700  16.188  0.00  0.00    +0.000 HD
ENDROOT
BRANCH   6   8
ATOM      8  C   UNL     1       4.154   6.269  17.606  0.00  0.00    +0.000 A 
ATOM      9  C   UNL     1       3.903   5.579  18.804  0.00  0.00    +0.000 A 
ATOM     10  C   UNL     1       3.018   6.099  19.754  0.00  0.00    +0.000 A 
ATOM     11  C   UNL     1       2.371   7.321  19.525  0.00  0.00    +0.000 A 
ATOM     12  C   UNL     1       1.484   7.856  20.474  0.00  0.00    +0.000 A 
ATOM     13  C   UNL     1       0.849   9.078  20.231  0.00  0.00    +0.000 A 
ATOM     14  C   UNL     1       1.090   9.773  19.043  0.00  0.00    +0.000 A 
ATOM     15  C   UNL     1       1.969   9.251  18.090  0.00  0.00    +0.000 A 
ATOM     16  C   UNL     1       2.614   8.025  18.323  0.00  0.00    +0.000 A 
ATOM     17  C   UNL     1       3.498   7.493  17.374  0.00  0.00    +0.000 A 
ENDBRANCH   6   8
BRANCH   1  18
ATOM     18  C   UNL     1       7.177   6.332  17.902  0.00  0.00    +0.000 C 
ATOM     19  O   UNL     1       7.506   6.244  19.077  0.00  0.00    +0.000 OA
BRANCH  18  21
ATOM     20  C   UNL     1       7.866   8.643  17.723  0.00  0.00    +0.000 C 
ATOM     21  O   UNL     1       7.482   7.438  17.174  0.00  0.00    +0.000 OA
ENDBRANCH  18  21
ENDBRANCH   1  18
TORSDOF 3
ENDMDL
