MODEL 1
REMARK VINA RESULT:      -7.8      0.000      0.000
REMARK  Name = 
REMARK  8 active torsions:
REMARK  status: ('A' for Active; 'I' for Inactive)
REMARK    1  A    between atoms: C_1  and  C_2
REMARK    2  A    between atoms: C_4  and  C_5
REMARK    3  A    between atoms: N_6  and  C_7
REMARK    4  A    between atoms: C_10  and  C_11
REMARK    5  A    between atoms: C_11  and  C_13
REMARK    6  A    between atoms: C_13  and  C_14
REMARK    7  A    between atoms: C_13  and  C_16
REMARK    8  A    between atoms: N_24  and  C_25
REMARK                            x       y       z     vdW  Elec       q    Type
REMARK                         _______ _______ _______ _____ _____    ______ ____
ROOT
ATOM      1  C   UNL     1       0.301  10.329  19.691  0.00  0.00    +0.000 C 
ATOM      2  O   UNL     1      -0.825  10.361  19.202  0.00  0.00    +0.000 OA
ENDROOT
BRANCH   1   6
ATOM      3  C   UNL     1       2.843   7.085  18.479  0.00  0.00    +0.000 A 
ATOM      4  C   UNL     1       2.339   7.131  19.781  0.00  0.00    +0.000 A 
ATOM      5  C   UNL     1       1.525   8.187  20.190  0.00  0.00    +0.000 A 
ATOM      6  C   UNL     1       1.212   9.216  19.302  0.00  0.00    +0.000 A 
ATOM      7  C   UNL     1       1.765   9.205  18.012  0.00  0.00    +0.000 A 
ATOM      8  C   UNL     1       2.587   8.147  17.603  0.00  0.00    +0.000 A 
BRANCH   3  14
ATOM      9  C   UNL     1       6.879   4.674  17.395  0.00  0.00    +0.000 C 
ATOM     10  C   UNL     1       5.429   4.908  17.593  0.00  0.00    +0.000 A 
ATOM     11  C   UNL     1       4.393   3.959  17.552  0.00  0.00    +0.000 A 
ATOM     12  C   UNL     1       3.233   4.669  17.783  0.00  0.00    +0.000 A 
ATOM     13  C   UNL     1       1.829   4.199  17.671  0.00  0.00    +0.000 C 
ATOM     14  N   UNL     1       3.629   5.976  18.040  0.00  0.00    +0.000 N 
ATOM     15  N   UNL     1       4.960   6.140  17.813  0.00  0.00    +0.000 NA
ENDBRANCH   3  14
ENDBRANCH   1   6
BRANCH   1  16
ATOM     16  C   UNL     1       0.785  11.327  20.730  0.00  0.00    +0.000 C 
BRANCH  16  17
ATOM     17  C   UNL     1      -0.408  11.953  21.430  0.00  0.00    +0.000 A 
ATOM     18  N   UNL     1      -0.995  13.070  21.033  0.00  0.00    +0.000 NA
ATOM     19  C   UNL     1      -2.103  13.231  21.833  0.00  0.00    +0.000 A 
ATOM     20  C   UNL     1      -3.118  14.201  21.780  0.00  0.00    +0.000 A 
ATOM     21  C   UNL     1      -4.165  14.141  22.710  0.00  0.00    +0.000 A 
ATOM     22  C   UNL     1      -4.183  13.159  23.699  0.00  0.00    +0.000 A 
ATOM     23  C   UNL     1      -3.180  12.189  23.769  0.00  0.00    +0.000 A 
ATOM     24  C   UNL     1      -2.165  12.236  22.802  0.00  0.00    +0.000 A 
ATOM     25  N   UNL     1      -1.097  11.412  22.513  0.00  0.00    +0.000 N 
ATOM     26  C   UNL     1      -0.846  10.148  23.170  0.00  0.00    +0.000 C 
ENDBRANCH  16  17
BRANCH  16  27
ATOM     27  C   UNL     1       1.568  12.473  20.111  0.00  0.00    +0.000 C 
ATOM     28  N   UNL     1       2.218  13.423  19.598  0.00  0.00    +0.000 NA
ENDBRANCH  16  27
ENDBRANCH   1  16
TORSDOF 5
ENDMDL
MODEL 2
REMARK VINA RESULT:      -7.7      3.082      9.864
REMARK  Name = 
REMARK  8 active torsions:
REMARK  status: ('A' for Active; 'I' for Inactive)
REMARK    1  A    between atoms: C_1  and  C_2
REMARK    2  A    between atoms: C_4  and  C_5
REMARK    3  A    between atoms: N_6  and  C_7
REMARK    4  A    between atoms: C_10  and  C_11
REMARK    5  A    between atoms: C_11  and  C_13
REMARK    6  A    between atoms: C_13  and  C_14
REMARK    7  A    between atoms: C_13  and  C_16
REMARK    8  A    between atoms: N_24  and  C_25
REMARK                            x       y       z     vdW  Elec       q    Type
REMARK                         _______ _______ _______ _____ _____    ______ ____
ROOT
ATOM      1  C   UNL     1       2.824   4.756  19.156  0.00  0.00    +0.000 C 
ATOM      2  O   UNL     1       1.982   3.907  18.876  0.00  0.00    +0.000 OA
ENDROOT
BRANCH   1   6
ATOM      3  C   UNL     1       1.449   8.814  19.472  0.00  0.00    +0.000 A 
ATOM      4  C   UNL     1       2.077   8.377  18.303  0.00  0.00    +0.000 A 
ATOM      5  C   UNL     1       2.541   7.065  18.195  0.00  0.00    +0.000 A 
ATOM      6  C   UNL     1       2.389   6.178  19.260  0.00  0.00    +0.000 A 
ATOM      7  C   UNL     1       1.813   6.630  20.458  0.00  0.00    +0.000 A 
ATOM      8  C   UNL     1       1.353   7.948  20.568  0.00  0.00    +0.000 A 
BRANCH   3  14
ATOM      9  C   UNL     1       1.222  13.392  20.977  0.00  0.00    +0.000 C 
ATOM     10  C   UNL     1       0.852  12.175  20.215  0.00  0.00    +0.000 A 
ATOM     11  C   UNL     1      -0.093  12.065  19.181  0.00  0.00    +0.000 A 
ATOM     12  C   UNL     1      -0.081  10.737  18.811  0.00  0.00    +0.000 A 
ATOM     13  C   UNL     1      -1.007  10.029  17.892  0.00  0.00    +0.000 C 
ATOM     14  N   UNL     1       0.923  10.138  19.565  0.00  0.00    +0.000 N 
ATOM     15  N   UNL     1       1.411  10.996  20.500  0.00  0.00    +0.000 NA
ENDBRANCH   3  14
ENDBRANCH   1   6
BRANCH   1  16
ATOM     16  C   UNL     1       4.300   4.439  19.327  0.00  0.00    +0.000 C 
BRANCH  16  17
ATOM     17  C   UNL     1       4.972   4.391  17.967  0.00  0.00    +0.000 A 
ATOM     18  N   UNL     1       4.415   3.873  16.885  0.00  0.00    +0.000 NA
ATOM     19  C   UNL     1       5.272   4.138  15.843  0.00  0.00    +0.000 A 
ATOM     20  C   UNL     1       5.124   3.886  14.468  0.00  0.00    +0.000 A 
ATOM     21  C   UNL     1       6.147   4.272  13.592  0.00  0.00    +0.000 A 
ATOM     22  C   UNL     1       7.315   4.861  14.075  0.00  0.00    +0.000 A 
ATOM     23  C   UNL     1       7.481   5.115  15.439  0.00  0.00    +0.000 A 
ATOM     24  C   UNL     1       6.427   4.766  16.297  0.00  0.00    +0.000 A 
ATOM     25  N   UNL     1       6.207   4.948  17.646  0.00  0.00    +0.000 N 
ATOM     26  C   UNL     1       7.083   5.703  18.516  0.00  0.00    +0.000 C 
ENDBRANCH  16  17
BRANCH  16  27
ATOM     27  C   UNL     1       4.529   3.080  19.968  0.00  0.00    +0.000 C 
ATOM     28  N   UNL     1       4.720   1.952  20.499  0.00  0.00    +0.000 NA
ENDBRANCH  16  27
ENDBRANCH   1  16
TORSDOF 5
ENDMDL
MODEL 3
REMARK VINA RESULT:      -7.6      2.541     10.182
REMARK  Name = 
REMARK  8 active torsions:
REMARK  status: ('A' for Active; 'I' for Inactive)
REMARK    1  A    between atoms: C_1  and  C_2
REMARK    2  A    between atoms: C_4  and  C_5
REMARK    3  A    between atoms: N_6  and  C_7
REMARK    4  A    between atoms: C_10  and  C_11
REMARK    5  A    between atoms: C_11  and  C_13
REMARK    6  A    between atoms: C_13  and  C_14
REMARK    7  A    between atoms: C_13  and  C_16
REMARK    8  A    between atoms: N_24  and  C_25
REMARK                            x       y       z     vdW  Elec       q    Type
REMARK                         _______ _______ _______ _____ _____    ______ ____
ROOT
ATOM      1  C   UNL     1       3.034   5.294  18.227  0.00  0.00    +0.000 C 
ATOM      2  O   UNL     1       2.280   4.571  17.580  0.00  0.00    +0.000 OA
ENDROOT
BRANCH   1   6
ATOM      3  C   UNL     1       1.382   8.941  19.784  0.00  0.00    +0.000 A 
ATOM      4  C   UNL     1       1.767   8.863  18.443  0.00  0.00    +0.000 A 
ATOM      5  C   UNL     1       2.317   7.688  17.930  0.00  0.00    +0.000 A 
ATOM      6  C   UNL     1       2.498   6.579  18.757  0.00  0.00    +0.000 A 
ATOM      7  C   UNL     1       2.170   6.673  20.118  0.00  0.00    +0.000 A 
ATOM      8  C   UNL     1       1.622   7.855  20.634  0.00  0.00    +0.000 A 
BRANCH   3  14
ATOM      9  C   UNL     1      -1.329  11.574  22.783  0.00  0.00    +0.000 C 
ATOM     10  C   UNL     1      -0.414  11.284  21.653  0.00  0.00    +0.000 A 
ATOM     11  C   UNL     1       0.262  12.207  20.838  0.00  0.00    +0.000 A 
ATOM     12  C   UNL     1       0.971  11.448  19.931  0.00  0.00    +0.000 A 
ATOM     13  C   UNL     1       1.715  11.905  18.730  0.00  0.00    +0.000 C 
ATOM     14  N   UNL     1       0.766  10.123  20.298  0.00  0.00    +0.000 N 
ATOM     15  N   UNL     1      -0.170  10.024  21.279  0.00  0.00    +0.000 NA
ENDBRANCH   3  14
ENDBRANCH   1   6
BRANCH   1  16
ATOM     16  C   UNL     1       4.502   4.977  18.449  0.00  0.00    +0.000 C 
BRANCH  16  17
ATOM     17  C   UNL     1       5.189   4.777  17.110  0.00  0.00    +0.000 A 
ATOM     18  N   UNL     1       4.753   3.952  16.172  0.00  0.00    +0.000 NA
ATOM     19  C   UNL     1       5.558   4.153  15.075  0.00  0.00    +0.000 A 
ATOM     20  C   UNL     1       5.477   3.601  13.785  0.00  0.00    +0.000 A 
ATOM     21  C   UNL     1       6.421   3.983  12.821  0.00  0.00    +0.000 A 
ATOM     22  C   UNL     1       7.450   4.866  13.143  0.00  0.00    +0.000 A 
ATOM     23  C   UNL     1       7.548   5.422  14.422  0.00  0.00    +0.000 A 
ATOM     24  C   UNL     1       6.568   5.065  15.360  0.00  0.00    +0.000 A 
ATOM     25  N   UNL     1       6.301   5.477  16.649  0.00  0.00    +0.000 N 
ATOM     26  C   UNL     1       7.008   6.544  17.323  0.00  0.00    +0.000 C 
ENDBRANCH  16  17
BRANCH  16  27
ATOM     27  C   UNL     1       4.705   3.690  19.231  0.00  0.00    +0.000 C 
ATOM     28  N   UNL     1       4.874   2.622  19.880  0.00  0.00    +0.000 NA
ENDBRANCH  16  27
ENDBRANCH   1  16
TORSDOF 5
ENDMDL
MODEL 4
REMARK VINA RESULT:      -7.5      2.828      9.953
REMARK  Name = 
REMARK  8 active torsions:
REMARK  status: ('A' for Active; 'I' for Inactive)
REMARK    1  A    between atoms: C_1  and  C_2
REMARK    2  A    between atoms: C_4  and  C_5
REMARK    3  A    between atoms: N_6  and  C_7
REMARK    4  A    between atoms: C_10  and  C_11
REMARK    5  A    between atoms: C_11  and  C_13
REMARK    6  A    between atoms: C_13  and  C_14
REMARK    7  A    between atoms: C_13  and  C_16
REMARK    8  A    between atoms: N_24  and  C_25
REMARK                            x       y       z     vdW  Elec       q    Type
REMARK                         _______ _______ _______ _____ _____    ______ ____
ROOT
ATOM      1  C   UNL     1       2.902   4.567  19.131  0.00  0.00    +0.000 C 
ATOM      2  O   UNL     1       2.071   3.728  18.792  0.00  0.00    +0.000 OA
ENDROOT
BRANCH   1   6
ATOM      3  C   UNL     1       1.473   8.574  19.728  0.00  0.00    +0.000 A 
ATOM      4  C   UNL     1       2.083   8.221  18.522  0.00  0.00    +0.000 A 
ATOM      5  C   UNL     1       2.564   6.926  18.322  0.00  0.00    +0.000 A 
ATOM      6  C   UNL     1       2.447   5.972  19.333  0.00  0.00    +0.000 A 
ATOM      7  C   UNL     1       1.890   6.339  20.567  0.00  0.00    +0.000 A 
ATOM      8  C   UNL     1       1.412   7.640  20.770  0.00  0.00    +0.000 A 
BRANCH   3  14
ATOM      9  C   UNL     1       0.315  13.100  18.522  0.00  0.00    +0.000 C 
ATOM     10  C   UNL     1       0.393  11.876  19.356  0.00  0.00    +0.000 A 
ATOM     11  C   UNL     1      -0.252  11.629  20.580  0.00  0.00    +0.000 A 
ATOM     12  C   UNL     1       0.148  10.365  20.958  0.00  0.00    +0.000 A 
ATOM     13  C   UNL     1      -0.086   9.674  22.252  0.00  0.00    +0.000 C 
ATOM     14  N   UNL     1       0.929   9.881  19.914  0.00  0.00    +0.000 N 
ATOM     15  N   UNL     1       1.167  10.850  18.991  0.00  0.00    +0.000 NA
ENDBRANCH   3  14
ENDBRANCH   1   6
BRANCH   1  16
ATOM     16  C   UNL     1       4.381   4.259  19.281  0.00  0.00    +0.000 C 
BRANCH  16  17
ATOM     17  C   UNL     1       5.042   4.252  17.915  0.00  0.00    +0.000 A 
ATOM     18  N   UNL     1       4.513   3.690  16.840  0.00  0.00    +0.000 NA
ATOM     19  C   UNL     1       5.338   4.010  15.788  0.00  0.00    +0.000 A 
ATOM     20  C   UNL     1       5.194   3.743  14.416  0.00  0.00    +0.000 A 
ATOM     21  C   UNL     1       6.179   4.196  13.528  0.00  0.00    +0.000 A 
ATOM     22  C   UNL     1       7.306   4.869  13.996  0.00  0.00    +0.000 A 
ATOM     23  C   UNL     1       7.468   5.141  15.358  0.00  0.00    +0.000 A 
ATOM     24  C   UNL     1       6.450   4.721  16.228  0.00  0.00    +0.000 A 
ATOM     25  N   UNL     1       6.231   4.894  17.578  0.00  0.00    +0.000 N 
ATOM     26  C   UNL     1       7.059   5.714  18.436  0.00  0.00    +0.000 C 
ENDBRANCH  16  17
BRANCH  16  27
ATOM     27  C   UNL     1       4.628   2.885  19.883  0.00  0.00    +0.000 C 
ATOM     28  N   UNL     1       4.833   1.745  20.383  0.00  0.00    +0.000 NA
ENDBRANCH  16  27
ENDBRANCH   1  16
TORSDOF 5
ENDMDL
MODEL 5
REMARK VINA RESULT:      -7.5      6.585      9.591
REMARK  Name = 
REMARK  8 active torsions:
REMARK  status: ('A' for Active; 'I' for Inactive)
REMARK    1  A    between atoms: C_1  and  C_2
REMARK    2  A    between atoms: C_4  and  C_5
REMARK    3  A    between atoms: N_6  and  C_7
REMARK    4  A    between atoms: C_10  and  C_11
REMARK    5  A    between atoms: C_11  and  C_13
REMARK    6  A    between atoms: C_13  and  C_14
REMARK    7  A    between atoms: C_13  and  C_16
REMARK    8  A    between atoms: N_24  and  C_25
REMARK                            x       y       z     vdW  Elec       q    Type
REMARK                         _______ _______ _______ _____ _____    ______ ____
ROOT
ATOM      1  C   UNL     1       6.855   5.682  17.591  0.00  0.00    +0.000 C 
ATOM      2  O   UNL     1       7.220   4.725  18.269  0.00  0.00    +0.000 OA
ENDROOT
BRANCH   1   6
ATOM      3  C   UNL     1       8.598   9.541  18.319  0.00  0.00    +0.000 A 
ATOM      4  C   UNL     1       8.953   8.451  19.117  0.00  0.00    +0.000 A 
ATOM      5  C   UNL     1       8.382   7.196  18.899  0.00  0.00    +0.000 A 
ATOM      6  C   UNL     1       7.442   7.021  17.884  0.00  0.00    +0.000 A 
ATOM      7  C   UNL     1       7.038   8.126  17.120  0.00  0.00    +0.000 A 
ATOM      8  C   UNL     1       7.607   9.386  17.342  0.00  0.00    +0.000 A 
BRANCH   3  14
ATOM      9  C   UNL     1      11.971  12.638  19.839  0.00  0.00    +0.000 C 
ATOM     10  C   UNL     1      10.741  12.171  19.155  0.00  0.00    +0.000 A 
ATOM     11  C   UNL     1       9.900  12.908  18.303  0.00  0.00    +0.000 A 
ATOM     12  C   UNL     1       8.894  12.040  17.937  0.00  0.00    +0.000 A 
ATOM     13  C   UNL     1       7.643  12.340  17.196  0.00  0.00    +0.000 C 
ATOM     14  N   UNL     1       9.223  10.812  18.502  0.00  0.00    +0.000 N 
ATOM     15  N   UNL     1      10.290  10.926  19.336  0.00  0.00    +0.000 NA
ENDBRANCH   3  14
ENDBRANCH   1   6
BRANCH   1  16
ATOM     16  C   UNL     1       5.782   5.584  16.521  0.00  0.00    +0.000 C 
BRANCH  16  17
ATOM     17  C   UNL     1       4.586   4.823  17.066  0.00  0.00    +0.000 A 
ATOM     18  N   UNL     1       4.464   3.507  17.019  0.00  0.00    +0.000 NA
ATOM     19  C   UNL     1       3.325   3.198  17.726  0.00  0.00    +0.000 A 
ATOM     20  C   UNL     1       2.783   1.945  18.060  0.00  0.00    +0.000 A 
ATOM     21  C   UNL     1       1.603   1.893  18.814  0.00  0.00    +0.000 A 
ATOM     22  C   UNL     1       0.950   3.064  19.197  0.00  0.00    +0.000 A 
ATOM     23  C   UNL     1       1.472   4.319  18.870  0.00  0.00    +0.000 A 
ATOM     24  C   UNL     1       2.679   4.353  18.156  0.00  0.00    +0.000 A 
ATOM     25  N   UNL     1       3.510   5.377  17.755  0.00  0.00    +0.000 N 
ATOM     26  C   UNL     1       3.321   6.765  18.118  0.00  0.00    +0.000 C 
ENDBRANCH  16  17
BRANCH  16  27
ATOM     27  C   UNL     1       6.255   4.818  15.296  0.00  0.00    +0.000 C 
ATOM     28  N   UNL     1       6.647   4.182  14.281  0.00  0.00    +0.000 NA
ENDBRANCH  16  27
ENDBRANCH   1  16
TORSDOF 5
ENDMDL
MODEL 6
REMARK VINA RESULT:      -7.5      0.756      1.446
REMARK  Name = 
REMARK  8 active torsions:
REMARK  status: ('A' for Active; 'I' for Inactive)
REMARK    1  A    between atoms: C_1  and  C_2
REMARK    2  A    between atoms: C_4  and  C_5
REMARK    3  A    between atoms: N_6  and  C_7
REMARK    4  A    between atoms: C_10  and  C_11
REMARK    5  A    between atoms: C_11  and  C_13
REMARK    6  A    between atoms: C_13  and  C_14
REMARK    7  A    between atoms: C_13  and  C_16
REMARK    8  A    between atoms: N_24  and  C_25
REMARK                            x       y       z     vdW  Elec       q    Type
REMARK                         _______ _______ _______ _____ _____    ______ ____
ROOT
ATOM      1  C   UNL     1       0.447  10.548  19.593  0.00  0.00    +0.000 C 
ATOM      2  O   UNL     1      -0.586  10.779  18.969  0.00  0.00    +0.000 OA
ENDROOT
BRANCH   1   6
ATOM      3  C   UNL     1       2.578   6.970  18.538  0.00  0.00    +0.000 A 
ATOM      4  C   UNL     1       2.166   7.176  19.857  0.00  0.00    +0.000 A 
ATOM      5  C   UNL     1       1.485   8.341  20.214  0.00  0.00    +0.000 A 
ATOM      6  C   UNL     1       1.218   9.318  19.255  0.00  0.00    +0.000 A 
ATOM      7  C   UNL     1       1.684   9.143  17.943  0.00  0.00    +0.000 A 
ATOM      8  C   UNL     1       2.372   7.976  17.586  0.00  0.00    +0.000 A 
BRANCH   3  14
ATOM      9  C   UNL     1       3.005   2.215  17.838  0.00  0.00    +0.000 C 
ATOM     10  C   UNL     1       3.389   3.647  17.823  0.00  0.00    +0.000 A 
ATOM     11  C   UNL     1       4.520   4.226  17.223  0.00  0.00    +0.000 A 
ATOM     12  C   UNL     1       4.434   5.574  17.497  0.00  0.00    +0.000 A 
ATOM     13  C   UNL     1       5.452   6.629  17.259  0.00  0.00    +0.000 C 
ATOM     14  N   UNL     1       3.224   5.754  18.158  0.00  0.00    +0.000 N 
ATOM     15  N   UNL     1       2.644   4.561  18.453  0.00  0.00    +0.000 NA
ENDBRANCH   3  14
ENDBRANCH   1   6
BRANCH   1  16
ATOM     16  C   UNL     1       0.937  11.414  20.741  0.00  0.00    +0.000 C 
BRANCH  16  17
ATOM     17  C   UNL     1      -0.252  12.015  21.469  0.00  0.00    +0.000 A 
ATOM     18  N   UNL     1      -0.811  13.170  21.144  0.00  0.00    +0.000 NA
ATOM     19  C   UNL     1      -1.925  13.299  21.940  0.00  0.00    +0.000 A 
ATOM     20  C   UNL     1      -2.920  14.292  21.944  0.00  0.00    +0.000 A 
ATOM     21  C   UNL     1      -3.979  14.190  22.855  0.00  0.00    +0.000 A 
ATOM     22  C   UNL     1      -4.030  13.142  23.774  0.00  0.00    +0.000 A 
ATOM     23  C   UNL     1      -3.047  12.148  23.788  0.00  0.00    +0.000 A 
ATOM     24  C   UNL     1      -2.019  12.240  22.837  0.00  0.00    +0.000 A 
ATOM     25  N   UNL     1      -0.966  11.416  22.504  0.00  0.00    +0.000 N 
ATOM     26  C   UNL     1      -0.749  10.105  23.075  0.00  0.00    +0.000 C 
ENDBRANCH  16  17
BRANCH  16  27
ATOM     27  C   UNL     1       1.783  12.583  20.264  0.00  0.00    +0.000 C 
ATOM     28  N   UNL     1       2.485  13.553  19.869  0.00  0.00    +0.000 NA
ENDBRANCH  16  27
ENDBRANCH   1  16
TORSDOF 5
ENDMDL
MODEL 7
REMARK VINA RESULT:      -7.4      6.759      9.670
REMARK  Name = 
REMARK  8 active torsions:
REMARK  status: ('A' for Active; 'I' for Inactive)
REMARK    1  A    between atoms: C_1  and  C_2
REMARK    2  A    between atoms: C_4  and  C_5
REMARK    3  A    between atoms: N_6  and  C_7
REMARK    4  A    between atoms: C_10  and  C_11
REMARK    5  A    between atoms: C_11  and  C_13
REMARK    6  A    between atoms: C_13  and  C_14
REMARK    7  A    between atoms: C_13  and  C_16
REMARK    8  A    between atoms: N_24  and  C_25
REMARK                            x       y       z     vdW  Elec       q    Type
REMARK                         _______ _______ _______ _____ _____    ______ ____
ROOT
ATOM      1  C   UNL     1       7.187   5.495  16.926  0.00  0.00    +0.000 C 
ATOM      2  O   UNL     1       7.768   4.441  17.173  0.00  0.00    +0.000 OA
ENDROOT
BRANCH   1   6
ATOM      3  C   UNL     1       8.599   9.091  18.806  0.00  0.00    +0.000 A 
ATOM      4  C   UNL     1       8.761   7.858  19.443  0.00  0.00    +0.000 A 
ATOM      5  C   UNL     1       8.294   6.686  18.848  0.00  0.00    +0.000 A 
ATOM      6  C   UNL     1       7.649   6.735  17.612  0.00  0.00    +0.000 A 
ATOM      7  C   UNL     1       7.430   7.977  16.998  0.00  0.00    +0.000 A 
ATOM      8  C   UNL     1       7.895   9.155  17.597  0.00  0.00    +0.000 A 
BRANCH   3  14
ATOM      9  C   UNL     1       9.348  12.384  22.252  0.00  0.00    +0.000 C 
ATOM     10  C   UNL     1       9.476  11.722  20.931  0.00  0.00    +0.000 A 
ATOM     11  C   UNL     1      10.359  12.051  19.889  0.00  0.00    +0.000 A 
ATOM     12  C   UNL     1      10.083  11.157  18.876  0.00  0.00    +0.000 A 
ATOM     13  C   UNL     1      10.592  11.160  17.481  0.00  0.00    +0.000 C 
ATOM     14  N   UNL     1       9.127  10.285  19.385  0.00  0.00    +0.000 N 
ATOM     15  N   UNL     1       8.678  10.703  20.598  0.00  0.00    +0.000 NA
ENDBRANCH   3  14
ENDBRANCH   1   6
BRANCH   1  16
ATOM     16  C   UNL     1       5.976   5.584  16.015  0.00  0.00    +0.000 C 
BRANCH  16  17
ATOM     17  C   UNL     1       4.786   4.916  16.681  0.00  0.00    +0.000 A 
ATOM     18  N   UNL     1       4.586   3.608  16.696  0.00  0.00    +0.000 NA
ATOM     19  C   UNL     1       3.492   3.392  17.501  0.00  0.00    +0.000 A 
ATOM     20  C   UNL     1       2.909   2.186  17.925  0.00  0.00    +0.000 A 
ATOM     21  C   UNL     1       1.791   2.231  18.769  0.00  0.00    +0.000 A 
ATOM     22  C   UNL     1       1.238   3.451  19.155  0.00  0.00    +0.000 A 
ATOM     23  C   UNL     1       1.802   4.661  18.739  0.00  0.00    +0.000 A 
ATOM     24  C   UNL     1       2.948   4.597  17.932  0.00  0.00    +0.000 A 
ATOM     25  N   UNL     1       3.801   5.556  17.428  0.00  0.00    +0.000 N 
ATOM     26  C   UNL     1       3.719   6.965  17.748  0.00  0.00    +0.000 C 
ENDBRANCH  16  17
BRANCH  16  27
ATOM     27  C   UNL     1       6.190   4.861  14.695  0.00  0.00    +0.000 C 
ATOM     28  N   UNL     1       6.368   4.260  13.600  0.00  0.00    +0.000 NA
ENDBRANCH  16  27
ENDBRANCH   1  16
TORSDOF 5
ENDMDL
MODEL 8
REMARK VINA RESULT:      -7.3      2.588      9.991
REMARK  Name = 
REMARK  8 active torsions:
REMARK  status: ('A' for Active; 'I' for Inactive)
REMARK    1  A    between atoms: C_1  and  C_2
REMARK    2  A    between atoms: C_4  and  C_5
REMARK    3  A    between atoms: N_6  and  C_7
REMARK    4  A    between atoms: C_10  and  C_11
REMARK    5  A    between atoms: C_11  and  C_13
REMARK    6  A    between atoms: C_13  and  C_14
REMARK    7  A    between atoms: C_13  and  C_16
REMARK    8  A    between atoms: N_24  and  C_25
REMARK                            x       y       z     vdW  Elec       q    Type
REMARK                         _______ _______ _______ _____ _____    ______ ____
ROOT
ATOM      1  C   UNL     1       2.996   4.550  19.239  0.00  0.00    +0.000 C 
ATOM      2  O   UNL     1       2.174   3.675  18.978  0.00  0.00    +0.000 OA
ENDROOT
BRANCH   1   6
ATOM      3  C   UNL     1       1.499   8.560  19.602  0.00  0.00    +0.000 A 
ATOM      4  C   UNL     1       2.154   8.160  18.434  0.00  0.00    +0.000 A 
ATOM      5  C   UNL     1       2.656   6.865  18.311  0.00  0.00    +0.000 A 
ATOM      6  C   UNL     1       2.518   5.956  19.360  0.00  0.00    +0.000 A 
ATOM      7  C   UNL     1       1.916   6.372  20.557  0.00  0.00    +0.000 A 
ATOM      8  C   UNL     1       1.415   7.675  20.683  0.00  0.00    +0.000 A 
BRANCH   3  14
ATOM      9  C   UNL     1      -1.369  12.012  21.375  0.00  0.00    +0.000 C 
ATOM     10  C   UNL     1      -0.321  11.397  20.525  0.00  0.00    +0.000 A 
ATOM     11  C   UNL     1       0.567  12.048  19.652  0.00  0.00    +0.000 A 
ATOM     12  C   UNL     1       1.330  11.047  19.088  0.00  0.00    +0.000 A 
ATOM     13  C   UNL     1       2.298  11.148  17.966  0.00  0.00    +0.000 C 
ATOM     14  N   UNL     1       0.934   9.867  19.709  0.00  0.00    +0.000 N 
ATOM     15  N   UNL     1      -0.151  10.071  20.503  0.00  0.00    +0.000 NA
ENDBRANCH   3  14
ENDBRANCH   1   6
BRANCH   1  16
ATOM     16  C   UNL     1       4.484   4.280  19.370  0.00  0.00    +0.000 C 
BRANCH  16  17
ATOM     17  C   UNL     1       5.124   4.269  17.993  0.00  0.00    +0.000 A 
ATOM     18  N   UNL     1       4.601   3.662  16.940  0.00  0.00    +0.000 NA
ATOM     19  C   UNL     1       5.397   3.992  15.868  0.00  0.00    +0.000 A 
ATOM     20  C   UNL     1       5.243   3.688  14.504  0.00  0.00    +0.000 A 
ATOM     21  C   UNL     1       6.194   4.160  13.590  0.00  0.00    +0.000 A 
ATOM     22  C   UNL     1       7.300   4.889  14.026  0.00  0.00    +0.000 A 
ATOM     23  C   UNL     1       7.472   5.197  15.378  0.00  0.00    +0.000 A 
ATOM     24  C   UNL     1       6.485   4.757  16.273  0.00  0.00    +0.000 A 
ATOM     25  N   UNL     1       6.281   4.950  17.623  0.00  0.00    +0.000 N 
ATOM     26  C   UNL     1       7.088   5.822  18.449  0.00  0.00    +0.000 C 
ENDBRANCH  16  17
BRANCH  16  27
ATOM     27  C   UNL     1       4.775   2.922  19.988  0.00  0.00    +0.000 C 
ATOM     28  N   UNL     1       5.016   1.796  20.501  0.00  0.00    +0.000 NA
ENDBRANCH  16  27
ENDBRANCH   1  16
TORSDOF 5
ENDMDL
MODEL 9
REMARK VINA RESULT:      -7.3      1.860      4.113
REMARK  Name = 
REMARK  8 active torsions:
REMARK  status: ('A' for Active; 'I' for Inactive)
REMARK    1  A    between atoms: C_1  and  C_2
REMARK    2  A    between atoms: C_4  and  C_5
REMARK    3  A    between atoms: N_6  and  C_7
REMARK    4  A    between atoms: C_10  and  C_11
REMARK    5  A    between atoms: C_11  and  C_13
REMARK    6  A    between atoms: C_13  and  C_14
REMARK    7  A    between atoms: C_13  and  C_16
REMARK    8  A    between atoms: N_24  and  C_25
REMARK                            x       y       z     vdW  Elec       q    Type
REMARK                         _______ _______ _______ _____ _____    ______ ____
ROOT
ATOM      1  C   UNL     1       0.388  10.081  21.311  0.00  0.00    +0.000 C 
ATOM      2  O   UNL     1       0.517   9.950  22.526  0.00  0.00    +0.000 OA
ENDROOT
BRANCH   1   6
ATOM      3  C   UNL     1       2.431   7.252  18.805  0.00  0.00    +0.000 A 
ATOM      4  C   UNL     1       1.941   8.443  18.262  0.00  0.00    +0.000 A 
ATOM      5  C   UNL     1       1.263   9.362  19.064  0.00  0.00    +0.000 A 
ATOM      6  C   UNL     1       1.060   9.096  20.418  0.00  0.00    +0.000 A 
ATOM      7  C   UNL     1       1.497   7.875  20.953  0.00  0.00    +0.000 A 
ATOM      8  C   UNL     1       2.172   6.949  20.147  0.00  0.00    +0.000 A 
BRANCH   3  14
ATOM      9  C   UNL     1       6.173   5.677  16.199  0.00  0.00    +0.000 C 
ATOM     10  C   UNL     1       4.853   5.638  16.873  0.00  0.00    +0.000 A 
ATOM     11  C   UNL     1       4.006   4.528  17.037  0.00  0.00    +0.000 A 
ATOM     12  C   UNL     1       2.902   5.004  17.711  0.00  0.00    +0.000 A 
ATOM     13  C   UNL     1       1.621   4.306  17.988  0.00  0.00    +0.000 C 
ATOM     14  N   UNL     1       3.174   6.336  18.000  0.00  0.00    +0.000 N 
ATOM     15  N   UNL     1       4.316   6.748  17.388  0.00  0.00    +0.000 NA
ENDBRANCH   3  14
ENDBRANCH   1   6
BRANCH   1  16
ATOM     16  C   UNL     1      -0.361  11.239  20.675  0.00  0.00    +0.000 C 
BRANCH  16  17
ATOM     17  C   UNL     1       0.598  12.388  20.421  0.00  0.00    +0.000 A 
ATOM     18  N   UNL     1       1.668  12.635  21.159  0.00  0.00    +0.000 NA
ATOM     19  C   UNL     1       2.341  13.661  20.537  0.00  0.00    +0.000 A 
ATOM     20  C   UNL     1       3.578  14.248  20.851  0.00  0.00    +0.000 A 
ATOM     21  C   UNL     1       4.065  15.283  20.041  0.00  0.00    +0.000 A 
ATOM     22  C   UNL     1       3.319  15.754  18.962  0.00  0.00    +0.000 A 
ATOM     23  C   UNL     1       2.084  15.184  18.637  0.00  0.00    +0.000 A 
ATOM     24  C   UNL     1       1.634  14.118  19.430  0.00  0.00    +0.000 A 
ATOM     25  N   UNL     1       0.544  13.278  19.351  0.00  0.00    +0.000 N 
ATOM     26  C   UNL     1      -0.404  13.278  18.257  0.00  0.00    +0.000 C 
ENDBRANCH  16  17
BRANCH  16  27
ATOM     27  C   UNL     1      -1.456  11.786  21.576  0.00  0.00    +0.000 C 
ATOM     28  N   UNL     1      -2.365  12.240  22.323  0.00  0.00    +0.000 NA
ENDBRANCH  16  27
ENDBRANCH   1  16
TORSDOF 5
ENDMDL
