MODEL 1
REMARK VINA RESULT:      -7.4      0.000      0.000
REMARK  Name = 
REMARK  10 active torsions:
REMARK  status: ('A' for Active; 'I' for Inactive)
REMARK    1  A    between atoms: C_1  and  C_2
REMARK    2  A    between atoms: C_3  and  C_4
REMARK    3  A    between atoms: C_4  and  O_6
REMARK    4  A    between atoms: O_6  and  C_7
REMARK    5  A    between atoms: C_7  and  C_8
REMARK    6  A    between atoms: C_10  and  O_11
REMARK    7  A    between atoms: C_12  and  O_13
REMARK    8  A    between atoms: C_14  and  O_15
REMARK    9  A    between atoms: N_18  and  C_19
REMARK   10  A    between atoms: C_19  and  C_20
REMARK                            x       y       z     vdW  Elec       q    Type
REMARK                         _______ _______ _______ _____ _____    ______ ____
ROOT
ATOM      1  C   UNL     1       3.144   6.595  18.777  0.00  0.00    +0.000 C 
ATOM      2  O   UNL     1       2.550   7.637  19.030  0.00  0.00    +0.000 OA
ENDROOT
BRANCH   1   5
ATOM      3  C   UNL     1       6.006   4.947  18.911  0.00  0.00    +0.000 C 
ATOM      4  C   UNL     1       5.395   5.773  17.844  0.00  0.00    +0.000 A 
ATOM      5  C   UNL     1       4.199   6.475  17.774  0.00  0.00    +0.000 A 
ATOM      6  N   UNL     1       4.087   7.036  16.523  0.00  0.00    +0.000 NA
ATOM      7  N   UNL     1       5.152   6.701  15.814  0.00  0.00    +0.000 NA
ATOM      8  N   UNL     1       5.954   5.960  16.602  0.00  0.00    +0.000 N 
BRANCH   8   9
ATOM      9  C   UNL     1       7.141   5.346  16.025  0.00  0.00    +0.000 C 
BRANCH   9  10
ATOM     10  C   UNL     1       6.952   4.892  14.597  0.00  0.00    +0.000 A 
ATOM     11  C   UNL     1       7.761   5.417  13.577  0.00  0.00    +0.000 A 
ATOM     12  C   UNL     1       7.668   4.927  12.271  0.00  0.00    +0.000 A 
ATOM     13  C   UNL     1       6.767   3.909  11.970  0.00  0.00    +0.000 A 
ATOM     14  C   UNL     1       5.948   3.388  12.968  0.00  0.00    +0.000 A 
ATOM     15  C   UNL     1       6.041   3.875  14.274  0.00  0.00    +0.000 A 
ENDBRANCH   9  10
ENDBRANCH   8   9
ENDBRANCH   1   5
BRANCH   1  16
ATOM     16  O   UNL     1       2.933   5.414  19.434  0.00  0.00    +0.000 OA
BRANCH  16  17
ATOM     17  C   UNL     1       2.108   4.460  18.748  0.00  0.00    +0.000 C 
BRANCH  17  18
ATOM     18  C   UNL     1       1.889   3.257  19.677  0.00  0.00    +0.000 C 
ATOM     19  O   UNL     1       2.012   2.025  18.921  0.00  0.00    +0.000 OA
ATOM     20  C   UNL     1       3.246   1.385  19.276  0.00  0.00    +0.000 C 
ATOM     21  C   UNL     1       4.048   2.396  20.102  0.00  0.00    +0.000 C 
ATOM     22  C   UNL     1       2.926   3.155  20.791  0.00  0.00    +0.000 C 
BRANCH  20  23
ATOM     23  O   UNL     1       3.920   0.923  18.123  0.00  0.00    +0.000 OA
ATOM     24  H   UNL     1       3.722   1.532  17.393  0.00  0.00    +0.000 HD
ENDBRANCH  20  23
BRANCH  21  25
ATOM     25  O   UNL     1       4.945   1.793  21.026  0.00  0.00    +0.000 OA
ATOM     26  H   UNL     1       5.218   0.942  20.624  0.00  0.00    +0.000 HD
ENDBRANCH  21  25
BRANCH  22  27
ATOM     27  O   UNL     1       2.437   2.352  21.884  0.00  0.00    +0.000 OA
ATOM     28  H   UNL     1       1.571   2.704  22.167  0.00  0.00    +0.000 HD
ENDBRANCH  22  27
ENDBRANCH  17  18
ENDBRANCH  16  17
ENDBRANCH   1  16
TORSDOF 9
ENDMDL
MODEL 2
REMARK VINA RESULT:      -7.4      1.836      3.137
REMARK  Name = 
REMARK  10 active torsions:
REMARK  status: ('A' for Active; 'I' for Inactive)
REMARK    1  A    between atoms: C_1  and  C_2
REMARK    2  A    between atoms: C_3  and  C_4
REMARK    3  A    between atoms: C_4  and  O_6
REMARK    4  A    between atoms: O_6  and  C_7
REMARK    5  A    between atoms: C_7  and  C_8
REMARK    6  A    between atoms: C_10  and  O_11
REMARK    7  A    between atoms: C_12  and  O_13
REMARK    8  A    between atoms: C_14  and  O_15
REMARK    9  A    between atoms: N_18  and  C_19
REMARK   10  A    between atoms: C_19  and  C_20
REMARK                            x       y       z     vdW  Elec       q    Type
REMARK                         _______ _______ _______ _____ _____    ______ ____
ROOT
ATOM      1  C   UNL     1       6.163   5.059  19.003  0.00  0.00    +0.000 C 
ATOM      2  O   UNL     1       6.858   5.471  19.925  0.00  0.00    +0.000 OA
ENDROOT
BRANCH   1   5
ATOM      3  C   UNL     1       4.968   6.247  16.160  0.00  0.00    +0.000 C 
ATOM      4  C   UNL     1       6.130   5.377  16.452  0.00  0.00    +0.000 A 
ATOM      5  C   UNL     1       6.641   4.866  17.637  0.00  0.00    +0.000 A 
ATOM      6  N   UNL     1       7.782   4.150  17.356  0.00  0.00    +0.000 NA
ATOM      7  N   UNL     1       8.006   4.208  16.054  0.00  0.00    +0.000 NA
ATOM      8  N   UNL     1       7.011   4.924  15.497  0.00  0.00    +0.000 N 
BRANCH   8   9
ATOM      9  C   UNL     1       7.083   5.257  14.082  0.00  0.00    +0.000 C 
BRANCH   9  10
ATOM     10  C   UNL     1       6.491   4.197  13.183  0.00  0.00    +0.000 A 
ATOM     11  C   UNL     1       5.099   4.048  13.087  0.00  0.00    +0.000 A 
ATOM     12  C   UNL     1       4.540   3.146  12.179  0.00  0.00    +0.000 A 
ATOM     13  C   UNL     1       5.363   2.380  11.357  0.00  0.00    +0.000 A 
ATOM     14  C   UNL     1       6.747   2.507  11.451  0.00  0.00    +0.000 A 
ATOM     15  C   UNL     1       7.308   3.410  12.356  0.00  0.00    +0.000 A 
ENDBRANCH   9  10
ENDBRANCH   8   9
ENDBRANCH   1   5
BRANCH   1  16
ATOM     16  O   UNL     1       4.856   4.678  19.141  0.00  0.00    +0.000 OA
BRANCH  16  17
ATOM     17  C   UNL     1       4.638   3.278  19.375  0.00  0.00    +0.000 C 
BRANCH  17  18
ATOM     18  C   UNL     1       3.216   2.929  18.912  0.00  0.00    +0.000 C 
ATOM     19  O   UNL     1       2.611   1.999  19.846  0.00  0.00    +0.000 OA
ATOM     20  C   UNL     1       1.611   2.692  20.606  0.00  0.00    +0.000 C 
ATOM     21  C   UNL     1       1.780   4.184  20.306  0.00  0.00    +0.000 C 
ATOM     22  C   UNL     1       2.279   4.131  18.871  0.00  0.00    +0.000 C 
BRANCH  20  23
ATOM     23  O   UNL     1       1.710   2.367  21.978  0.00  0.00    +0.000 OA
ATOM     24  H   UNL     1       2.112   1.486  22.052  0.00  0.00    +0.000 HD
ENDBRANCH  20  23
BRANCH  21  25
ATOM     25  O   UNL     1       0.578   4.932  20.437  0.00  0.00    +0.000 OA
ATOM     26  H   UNL     1       0.288   5.142  19.524  0.00  0.00    +0.000 HD
ENDBRANCH  21  25
BRANCH  22  27
ATOM     27  O   UNL     1       1.153   3.884  18.006  0.00  0.00    +0.000 OA
ATOM     28  H   UNL     1       1.192   4.510  17.257  0.00  0.00    +0.000 HD
ENDBRANCH  22  27
ENDBRANCH  17  18
ENDBRANCH  16  17
ENDBRANCH   1  16
TORSDOF 9
ENDMDL
MODEL 3
REMARK VINA RESULT:      -7.3      0.850      1.422
REMARK  Name = 
REMARK  10 active torsions:
REMARK  status: ('A' for Active; 'I' for Inactive)
REMARK    1  A    between atoms: C_1  and  C_2
REMARK    2  A    between atoms: C_3  and  C_4
REMARK    3  A    between atoms: C_4  and  O_6
REMARK    4  A    between atoms: O_6  and  C_7
REMARK    5  A    between atoms: C_7  and  C_8
REMARK    6  A    between atoms: C_10  and  O_11
REMARK    7  A    between atoms: C_12  and  O_13
REMARK    8  A    between atoms: C_14  and  O_15
REMARK    9  A    between atoms: N_18  and  C_19
REMARK   10  A    between atoms: C_19  and  C_20
REMARK                            x       y       z     vdW  Elec       q    Type
REMARK                         _______ _______ _______ _____ _____    ______ ____
ROOT
ATOM      1  C   UNL     1       3.052   6.307  18.616  0.00  0.00    +0.000 C 
ATOM      2  O   UNL     1       3.086   6.704  19.775  0.00  0.00    +0.000 OA
ENDROOT
BRANCH   1   5
ATOM      3  C   UNL     1       5.802   4.472  18.621  0.00  0.00    +0.000 C 
ATOM      4  C   UNL     1       5.341   5.552  17.718  0.00  0.00    +0.000 A 
ATOM      5  C   UNL     1       4.194   6.335  17.706  0.00  0.00    +0.000 A 
ATOM      6  N   UNL     1       4.235   7.163  16.607  0.00  0.00    +0.000 NA
ATOM      7  N   UNL     1       5.347   6.917  15.935  0.00  0.00    +0.000 NA
ATOM      8  N   UNL     1       6.029   5.967  16.603  0.00  0.00    +0.000 N 
BRANCH   8   9
ATOM      9  C   UNL     1       7.236   5.411  16.007  0.00  0.00    +0.000 C 
BRANCH   9  10
ATOM     10  C   UNL     1       7.010   4.805  14.641  0.00  0.00    +0.000 A 
ATOM     11  C   UNL     1       5.963   3.892  14.439  0.00  0.00    +0.000 A 
ATOM     12  C   UNL     1       5.678   3.409  13.159  0.00  0.00    +0.000 A 
ATOM     13  C   UNL     1       6.435   3.830  12.069  0.00  0.00    +0.000 A 
ATOM     14  C   UNL     1       7.485   4.724  12.256  0.00  0.00    +0.000 A 
ATOM     15  C   UNL     1       7.771   5.210  13.534  0.00  0.00    +0.000 A 
ENDBRANCH   9  10
ENDBRANCH   8   9
ENDBRANCH   1   5
BRANCH   1  16
ATOM     16  O   UNL     1       1.954   5.739  18.032  0.00  0.00    +0.000 OA
BRANCH  16  17
ATOM     17  C   UNL     1       2.172   4.464  17.406  0.00  0.00    +0.000 C 
BRANCH  17  18
ATOM     18  C   UNL     1       1.444   3.393  18.231  0.00  0.00    +0.000 C 
ATOM     19  O   UNL     1       2.047   2.095  17.989  0.00  0.00    +0.000 OA
ATOM     20  C   UNL     1       2.794   1.709  19.151  0.00  0.00    +0.000 C 
ATOM     21  C   UNL     1       2.869   2.939  20.061  0.00  0.00    +0.000 C 
ATOM     22  C   UNL     1       1.546   3.614  19.736  0.00  0.00    +0.000 C 
BRANCH  20  23
ATOM     23  O   UNL     1       4.055   1.188  18.784  0.00  0.00    +0.000 OA
ATOM     24  H   UNL     1       4.741   1.712  19.231  0.00  0.00    +0.000 HD
ENDBRANCH  20  23
BRANCH  21  25
ATOM     25  O   UNL     1       2.994   2.621  21.441  0.00  0.00    +0.000 OA
ATOM     26  H   UNL     1       3.951   2.669  21.645  0.00  0.00    +0.000 HD
ENDBRANCH  21  25
BRANCH  22  27
ATOM     27  O   UNL     1       0.496   2.916  20.436  0.00  0.00    +0.000 OA
ATOM     28  H   UNL     1       0.570   1.962  20.238  0.00  0.00    +0.000 HD
ENDBRANCH  22  27
ENDBRANCH  17  18
ENDBRANCH  16  17
ENDBRANCH   1  16
TORSDOF 9
ENDMDL
MODEL 4
REMARK VINA RESULT:      -7.3      1.164      1.867
REMARK  Name = 
REMARK  10 active torsions:
REMARK  status: ('A' for Active; 'I' for Inactive)
REMARK    1  A    between atoms: C_1  and  C_2
REMARK    2  A    between atoms: C_3  and  C_4
REMARK    3  A    between atoms: C_4  and  O_6
REMARK    4  A    between atoms: O_6  and  C_7
REMARK    5  A    between atoms: C_7  and  C_8
REMARK    6  A    between atoms: C_10  and  O_11
REMARK    7  A    between atoms: C_12  and  O_13
REMARK    8  A    between atoms: C_14  and  O_15
REMARK    9  A    between atoms: N_18  and  C_19
REMARK   10  A    between atoms: C_19  and  C_20
REMARK                            x       y       z     vdW  Elec       q    Type
REMARK                         _______ _______ _______ _____ _____    ______ ____
ROOT
ATOM      1  C   UNL     1       3.015   6.564  18.285  0.00  0.00    +0.000 C 
ATOM      2  O   UNL     1       2.877   7.781  18.333  0.00  0.00    +0.000 OA
ENDROOT
BRANCH   1   5
ATOM      3  C   UNL     1       4.879   7.036  15.597  0.00  0.00    +0.000 C 
ATOM      4  C   UNL     1       5.021   6.107  16.742  0.00  0.00    +0.000 A 
ATOM      5  C   UNL     1       4.245   5.893  17.873  0.00  0.00    +0.000 A 
ATOM      6  N   UNL     1       4.858   4.941  18.657  0.00  0.00    +0.000 NA
ATOM      7  N   UNL     1       5.981   4.570  18.067  0.00  0.00    +0.000 NA
ATOM      8  N   UNL     1       6.081   5.247  16.907  0.00  0.00    +0.000 N 
BRANCH   8   9
ATOM      9  C   UNL     1       7.298   5.125  16.117  0.00  0.00    +0.000 C 
BRANCH   9  10
ATOM     10  C   UNL     1       7.053   4.662  14.700  0.00  0.00    +0.000 A 
ATOM     11  C   UNL     1       6.025   3.748  14.424  0.00  0.00    +0.000 A 
ATOM     12  C   UNL     1       5.720   3.397  13.106  0.00  0.00    +0.000 A 
ATOM     13  C   UNL     1       6.438   3.952  12.051  0.00  0.00    +0.000 A 
ATOM     14  C   UNL     1       7.471   4.849  12.310  0.00  0.00    +0.000 A 
ATOM     15  C   UNL     1       7.776   5.204  13.626  0.00  0.00    +0.000 A 
ENDBRANCH   9  10
ENDBRANCH   8   9
ENDBRANCH   1   5
BRANCH   1  16
ATOM     16  O   UNL     1       2.051   5.668  18.658  0.00  0.00    +0.000 OA
BRANCH  16  17
ATOM     17  C   UNL     1       1.758   4.636  17.703  0.00  0.00    +0.000 C 
BRANCH  17  18
ATOM     18  C   UNL     1       1.279   3.394  18.469  0.00  0.00    +0.000 C 
ATOM     19  O   UNL     1       2.145   2.270  18.170  0.00  0.00    +0.000 OA
ATOM     20  C   UNL     1       2.959   1.996  19.319  0.00  0.00    +0.000 C 
ATOM     21  C   UNL     1       2.770   3.168  20.287  0.00  0.00    +0.000 C 
ATOM     22  C   UNL     1       1.333   3.558  19.984  0.00  0.00    +0.000 C 
BRANCH  20  23
ATOM     23  O   UNL     1       4.303   1.776  18.939  0.00  0.00    +0.000 OA
ATOM     24  H   UNL     1       4.321   1.584  17.987  0.00  0.00    +0.000 HD
ENDBRANCH  20  23
BRANCH  21  25
ATOM     25  O   UNL     1       2.963   2.816  21.652  0.00  0.00    +0.000 OA
ATOM     26  H   UNL     1       3.621   2.091  21.655  0.00  0.00    +0.000 HD
ENDBRANCH  21  25
BRANCH  22  27
ATOM     27  O   UNL     1       0.458   2.618  20.640  0.00  0.00    +0.000 OA
ATOM     28  H   UNL     1      -0.367   2.545  20.121  0.00  0.00    +0.000 HD
ENDBRANCH  22  27
ENDBRANCH  17  18
ENDBRANCH  16  17
ENDBRANCH   1  16
TORSDOF 9
ENDMDL
MODEL 5
REMARK VINA RESULT:      -7.3      4.596      7.346
REMARK  Name = 
REMARK  10 active torsions:
REMARK  status: ('A' for Active; 'I' for Inactive)
REMARK    1  A    between atoms: C_1  and  C_2
REMARK    2  A    between atoms: C_3  and  C_4
REMARK    3  A    between atoms: C_4  and  O_6
REMARK    4  A    between atoms: O_6  and  C_7
REMARK    5  A    between atoms: C_7  and  C_8
REMARK    6  A    between atoms: C_10  and  O_11
REMARK    7  A    between atoms: C_12  and  O_13
REMARK    8  A    between atoms: C_14  and  O_15
REMARK    9  A    between atoms: N_18  and  C_19
REMARK   10  A    between atoms: C_19  and  C_20
REMARK                            x       y       z     vdW  Elec       q    Type
REMARK                         _______ _______ _______ _____ _____    ______ ____
ROOT
ATOM      1  C   UNL     1       1.157   8.513  20.862  0.00  0.00    +0.000 C 
ATOM      2  O   UNL     1       1.368   8.772  22.042  0.00  0.00    +0.000 OA
ENDROOT
BRANCH   1   5
ATOM      3  C   UNL     1       2.627   8.520  17.901  0.00  0.00    +0.000 C 
ATOM      4  C   UNL     1       2.415   7.440  18.892  0.00  0.00    +0.000 A 
ATOM      5  C   UNL     1       1.796   7.420  20.135  0.00  0.00    +0.000 A 
ATOM      6  N   UNL     1       1.923   6.159  20.673  0.00  0.00    +0.000 NA
ATOM      7  N   UNL     1       2.604   5.406  19.825  0.00  0.00    +0.000 NA
ATOM      8  N   UNL     1       2.887   6.157  18.744  0.00  0.00    +0.000 N 
BRANCH   8   9
ATOM      9  C   UNL     1       3.749   5.609  17.707  0.00  0.00    +0.000 C 
BRANCH   9  10
ATOM     10  C   UNL     1       5.216   5.895  17.929  0.00  0.00    +0.000 A 
ATOM     11  C   UNL     1       5.871   6.865  17.154  0.00  0.00    +0.000 A 
ATOM     12  C   UNL     1       7.197   7.215  17.423  0.00  0.00    +0.000 A 
ATOM     13  C   UNL     1       7.884   6.599  18.465  0.00  0.00    +0.000 A 
ATOM     14  C   UNL     1       7.252   5.624  19.233  0.00  0.00    +0.000 A 
ATOM     15  C   UNL     1       5.926   5.275  18.968  0.00  0.00    +0.000 A 
ENDBRANCH   9  10
ENDBRANCH   8   9
ENDBRANCH   1   5
BRANCH   1  16
ATOM     16  O   UNL     1       0.258   9.184  20.079  0.00  0.00    +0.000 OA
BRANCH  16  17
ATOM     17  C   UNL     1       0.220  10.609  20.259  0.00  0.00    +0.000 C 
BRANCH  17  18
ATOM     18  C   UNL     1      -0.078  11.257  18.899  0.00  0.00    +0.000 C 
ATOM     19  O   UNL     1      -0.660  10.274  18.005  0.00  0.00    +0.000 OA
ATOM     20  C   UNL     1      -2.054  10.566  17.840  0.00  0.00    +0.000 C 
ATOM     21  C   UNL     1      -2.412  11.629  18.883  0.00  0.00    +0.000 C 
ATOM     22  C   UNL     1      -1.098  12.388  18.977  0.00  0.00    +0.000 C 
BRANCH  20  23
ATOM     23  O   UNL     1      -2.827   9.386  17.935  0.00  0.00    +0.000 OA
ATOM     24  H   UNL     1      -3.755   9.617  17.770  0.00  0.00    +0.000 HD
ENDBRANCH  20  23
BRANCH  21  25
ATOM     25  O   UNL     1      -3.497  12.463  18.498  0.00  0.00    +0.000 OA
ATOM     26  H   UNL     1      -4.166  12.384  19.209  0.00  0.00    +0.000 HD
ENDBRANCH  21  25
BRANCH  22  27
ATOM     27  O   UNL     1      -0.995  13.261  17.834  0.00  0.00    +0.000 OA
ATOM     28  H   UNL     1      -1.858  13.277  17.375  0.00  0.00    +0.000 HD
ENDBRANCH  22  27
ENDBRANCH  17  18
ENDBRANCH  16  17
ENDBRANCH   1  16
TORSDOF 9
ENDMDL
MODEL 6
REMARK VINA RESULT:      -7.3      5.129      8.516
REMARK  Name = 
REMARK  10 active torsions:
REMARK  status: ('A' for Active; 'I' for Inactive)
REMARK    1  A    between atoms: C_1  and  C_2
REMARK    2  A    between atoms: C_3  and  C_4
REMARK    3  A    between atoms: C_4  and  O_6
REMARK    4  A    between atoms: O_6  and  C_7
REMARK    5  A    between atoms: C_7  and  C_8
REMARK    6  A    between atoms: C_10  and  O_11
REMARK    7  A    between atoms: C_12  and  O_13
REMARK    8  A    between atoms: C_14  and  O_15
REMARK    9  A    between atoms: N_18  and  C_19
REMARK   10  A    between atoms: C_19  and  C_20
REMARK                            x       y       z     vdW  Elec       q    Type
REMARK                         _______ _______ _______ _____ _____    ______ ____
ROOT
ATOM      1  C   UNL     1       7.770   7.287  17.600  0.00  0.00    +0.000 C 
ATOM      2  O   UNL     1       8.136   7.388  16.434  0.00  0.00    +0.000 OA
ENDROOT
BRANCH   1   5
ATOM      3  C   UNL     1       5.062   5.935  16.271  0.00  0.00    +0.000 C 
ATOM      4  C   UNL     1       5.789   5.648  17.529  0.00  0.00    +0.000 A 
ATOM      5  C   UNL     1       6.922   6.209  18.103  0.00  0.00    +0.000 A 
ATOM      6  N   UNL     1       7.213   5.530  19.264  0.00  0.00    +0.000 NA
ATOM      7  N   UNL     1       6.321   4.569  19.425  0.00  0.00    +0.000 NA
ATOM      8  N   UNL     1       5.449   4.641  18.402  0.00  0.00    +0.000 N 
BRANCH   8   9
ATOM      9  C   UNL     1       4.433   3.608  18.262  0.00  0.00    +0.000 C 
BRANCH   9  10
ATOM     10  C   UNL     1       3.407   3.617  19.371  0.00  0.00    +0.000 A 
ATOM     11  C   UNL     1       2.306   4.484  19.307  0.00  0.00    +0.000 A 
ATOM     12  C   UNL     1       1.296   4.425  20.271  0.00  0.00    +0.000 A 
ATOM     13  C   UNL     1       1.374   3.501  21.309  0.00  0.00    +0.000 A 
ATOM     14  C   UNL     1       2.468   2.643  21.394  0.00  0.00    +0.000 A 
ATOM     15  C   UNL     1       3.477   2.699  20.430  0.00  0.00    +0.000 A 
ENDBRANCH   9  10
ENDBRANCH   8   9
ENDBRANCH   1   5
BRANCH   1  16
ATOM     16  O   UNL     1       8.145   8.144  18.598  0.00  0.00    +0.000 OA
BRANCH  16  17
ATOM     17  C   UNL     1       8.226   9.530  18.229  0.00  0.00    +0.000 C 
BRANCH  17  18
ATOM     18  C   UNL     1       9.518  10.111  18.823  0.00  0.00    +0.000 C 
ATOM     19  O   UNL     1      10.170  10.957  17.843  0.00  0.00    +0.000 OA
ATOM     20  C   UNL     1      10.015  12.327  18.238  0.00  0.00    +0.000 C 
ATOM     21  C   UNL     1       8.997  12.347  19.383  0.00  0.00    +0.000 C 
ATOM     22  C   UNL     1       9.279  11.003  20.036  0.00  0.00    +0.000 C 
BRANCH  20  23
ATOM     23  O   UNL     1       9.650  13.128  17.132  0.00  0.00    +0.000 OA
ATOM     24  H   UNL     1      10.044  14.008  17.252  0.00  0.00    +0.000 HD
ENDBRANCH  20  23
BRANCH  21  25
ATOM     25  O   UNL     1       9.170  13.436  20.281  0.00  0.00    +0.000 OA
ATOM     26  H   UNL     1       9.714  14.097  19.804  0.00  0.00    +0.000 HD
ENDBRANCH  21  25
BRANCH  22  27
ATOM     27  O   UNL     1      10.474  11.127  20.834  0.00  0.00    +0.000 OA
ATOM     28  H   UNL     1      10.214  11.236  21.770  0.00  0.00    +0.000 HD
ENDBRANCH  22  27
ENDBRANCH  17  18
ENDBRANCH  16  17
ENDBRANCH   1  16
TORSDOF 9
ENDMDL
MODEL 7
REMARK VINA RESULT:      -7.3      4.481      7.617
REMARK  Name = 
REMARK  10 active torsions:
REMARK  status: ('A' for Active; 'I' for Inactive)
REMARK    1  A    between atoms: C_1  and  C_2
REMARK    2  A    between atoms: C_3  and  C_4
REMARK    3  A    between atoms: C_4  and  O_6
REMARK    4  A    between atoms: O_6  and  C_7
REMARK    5  A    between atoms: C_7  and  C_8
REMARK    6  A    between atoms: C_10  and  O_11
REMARK    7  A    between atoms: C_12  and  O_13
REMARK    8  A    between atoms: C_14  and  O_15
REMARK    9  A    between atoms: N_18  and  C_19
REMARK   10  A    between atoms: C_19  and  C_20
REMARK                            x       y       z     vdW  Elec       q    Type
REMARK                         _______ _______ _______ _____ _____    ______ ____
ROOT
ATOM      1  C   UNL     1       2.572   6.505  19.729  0.00  0.00    +0.000 C 
ATOM      2  O   UNL     1       1.898   5.778  20.451  0.00  0.00    +0.000 OA
ENDROOT
BRANCH   1   5
ATOM      3  C   UNL     1       0.579   8.818  20.994  0.00  0.00    +0.000 C 
ATOM      4  C   UNL     1       1.253   8.712  19.679  0.00  0.00    +0.000 A 
ATOM      5  C   UNL     1       2.087   7.746  19.132  0.00  0.00    +0.000 A 
ATOM      6  N   UNL     1       2.487   8.162  17.882  0.00  0.00    +0.000 NA
ATOM      7  N   UNL     1       1.949   9.346  17.641  0.00  0.00    +0.000 NA
ATOM      8  N   UNL     1       1.190   9.678  18.702  0.00  0.00    +0.000 N 
BRANCH   8   9
ATOM      9  C   UNL     1       0.586  11.001  18.756  0.00  0.00    +0.000 C 
BRANCH   9  10
ATOM     10  C   UNL     1      -0.887  11.005  18.418  0.00  0.00    +0.000 A 
ATOM     11  C   UNL     1      -1.411  10.050  17.534  0.00  0.00    +0.000 A 
ATOM     12  C   UNL     1      -2.787   9.977  17.298  0.00  0.00    +0.000 A 
ATOM     13  C   UNL     1      -3.653  10.857  17.940  0.00  0.00    +0.000 A 
ATOM     14  C   UNL     1      -3.146  11.820  18.809  0.00  0.00    +0.000 A 
ATOM     15  C   UNL     1      -1.772  11.893  19.048  0.00  0.00    +0.000 A 
ENDBRANCH   9  10
ENDBRANCH   8   9
ENDBRANCH   1   5
BRANCH   1  16
ATOM     16  O   UNL     1       3.886   6.276  19.424  0.00  0.00    +0.000 OA
BRANCH  16  17
ATOM     17  C   UNL     1       4.163   5.031  18.763  0.00  0.00    +0.000 C 
BRANCH  17  18
ATOM     18  C   UNL     1       4.780   5.342  17.392  0.00  0.00    +0.000 C 
ATOM     19  O   UNL     1       5.573   6.554  17.475  0.00  0.00    +0.000 OA
ATOM     20  C   UNL     1       6.962   6.203  17.416  0.00  0.00    +0.000 C 
ATOM     21  C   UNL     1       7.043   4.680  17.562  0.00  0.00    +0.000 C 
ATOM     22  C   UNL     1       5.739   4.263  16.900  0.00  0.00    +0.000 C 
BRANCH  20  23
ATOM     23  O   UNL     1       7.699   6.912  18.393  0.00  0.00    +0.000 OA
ATOM     24  H   UNL     1       7.070   7.367  18.975  0.00  0.00    +0.000 HD
ENDBRANCH  20  23
BRANCH  21  25
ATOM     25  O   UNL     1       8.181   4.106  16.932  0.00  0.00    +0.000 OA
ATOM     26  H   UNL     1       7.973   4.070  15.975  0.00  0.00    +0.000 HD
ENDBRANCH  21  25
BRANCH  22  27
ATOM     27  O   UNL     1       5.912   4.333  15.470  0.00  0.00    +0.000 OA
ATOM     28  H   UNL     1       5.346   3.653  15.054  0.00  0.00    +0.000 HD
ENDBRANCH  22  27
ENDBRANCH  17  18
ENDBRANCH  16  17
ENDBRANCH   1  16
TORSDOF 9
ENDMDL
MODEL 8
REMARK VINA RESULT:      -7.2      4.198      7.457
REMARK  Name = 
REMARK  10 active torsions:
REMARK  status: ('A' for Active; 'I' for Inactive)
REMARK    1  A    between atoms: C_1  and  C_2
REMARK    2  A    between atoms: C_3  and  C_4
REMARK    3  A    between atoms: C_4  and  O_6
REMARK    4  A    between atoms: O_6  and  C_7
REMARK    5  A    between atoms: C_7  and  C_8
REMARK    6  A    between atoms: C_10  and  O_11
REMARK    7  A    between atoms: C_12  and  O_13
REMARK    8  A    between atoms: C_14  and  O_15
REMARK    9  A    between atoms: N_18  and  C_19
REMARK   10  A    between atoms: C_19  and  C_20
REMARK                            x       y       z     vdW  Elec       q    Type
REMARK                         _______ _______ _______ _____ _____    ______ ____
ROOT
ATOM      1  C   UNL     1       2.942   6.070  19.217  0.00  0.00    +0.000 C 
ATOM      2  O   UNL     1       2.272   5.045  19.263  0.00  0.00    +0.000 OA
ENDROOT
BRANCH   1   5
ATOM      3  C   UNL     1       1.181   8.238  20.984  0.00  0.00    +0.000 C 
ATOM      4  C   UNL     1       1.682   8.280  19.591  0.00  0.00    +0.000 A 
ATOM      5  C   UNL     1       2.417   7.377  18.834  0.00  0.00    +0.000 A 
ATOM      6  N   UNL     1       2.667   7.934  17.600  0.00  0.00    +0.000 NA
ATOM      7  N   UNL     1       2.133   9.143  17.567  0.00  0.00    +0.000 NA
ATOM      8  N   UNL     1       1.521   9.354  18.748  0.00  0.00    +0.000 N 
BRANCH   8   9
ATOM      9  C   UNL     1       0.961  10.668  19.030  0.00  0.00    +0.000 C 
BRANCH   9  10
ATOM     10  C   UNL     1      -0.485  10.809  18.614  0.00  0.00    +0.000 A 
ATOM     11  C   UNL     1      -1.044   9.912  17.690  0.00  0.00    +0.000 A 
ATOM     12  C   UNL     1      -2.406   9.967  17.381  0.00  0.00    +0.000 A 
ATOM     13  C   UNL     1      -3.223  10.917  17.987  0.00  0.00    +0.000 A 
ATOM     14  C   UNL     1      -2.679  11.823  18.894  0.00  0.00    +0.000 A 
ATOM     15  C   UNL     1      -1.319  11.769  19.207  0.00  0.00    +0.000 A 
ENDBRANCH   9  10
ENDBRANCH   8   9
ENDBRANCH   1   5
BRANCH   1  16
ATOM     16  O   UNL     1       4.263   6.138  19.567  0.00  0.00    +0.000 OA
BRANCH  16  17
ATOM     17  C   UNL     1       5.055   4.988  19.228  0.00  0.00    +0.000 C 
BRANCH  17  18
ATOM     18  C   UNL     1       6.280   5.465  18.434  0.00  0.00    +0.000 C 
ATOM     19  O   UNL     1       6.840   4.356  17.684  0.00  0.00    +0.000 OA
ATOM     20  C   UNL     1       6.542   4.541  16.293  0.00  0.00    +0.000 C 
ATOM     21  C   UNL     1       5.529   5.687  16.204  0.00  0.00    +0.000 C 
ATOM     22  C   UNL     1       5.951   6.532  17.395  0.00  0.00    +0.000 C 
BRANCH  20  23
ATOM     23  O   UNL     1       6.095   3.333  15.712  0.00  0.00    +0.000 OA
ATOM     24  H   UNL     1       6.079   3.448  14.748  0.00  0.00    +0.000 HD
ENDBRANCH  20  23
BRANCH  21  25
ATOM     25  O   UNL     1       5.588   6.406  14.979  0.00  0.00    +0.000 OA
ATOM     26  H   UNL     1       6.054   7.245  15.178  0.00  0.00    +0.000 HD
ENDBRANCH  21  25
BRANCH  22  27
ATOM     27  O   UNL     1       7.127   7.281  17.029  0.00  0.00    +0.000 OA
ATOM     28  H   UNL     1       7.531   7.645  17.841  0.00  0.00    +0.000 HD
ENDBRANCH  22  27
ENDBRANCH  17  18
ENDBRANCH  16  17
ENDBRANCH   1  16
TORSDOF 9
ENDMDL
MODEL 9
REMARK VINA RESULT:      -7.2      4.354      7.407
REMARK  Name = 
REMARK  10 active torsions:
REMARK  status: ('A' for Active; 'I' for Inactive)
REMARK    1  A    between atoms: C_1  and  C_2
REMARK    2  A    between atoms: C_3  and  C_4
REMARK    3  A    between atoms: C_4  and  O_6
REMARK    4  A    between atoms: O_6  and  C_7
REMARK    5  A    between atoms: C_7  and  C_8
REMARK    6  A    between atoms: C_10  and  O_11
REMARK    7  A    between atoms: C_12  and  O_13
REMARK    8  A    between atoms: C_14  and  O_15
REMARK    9  A    between atoms: N_18  and  C_19
REMARK   10  A    between atoms: C_19  and  C_20
REMARK                            x       y       z     vdW  Elec       q    Type
REMARK                         _______ _______ _______ _____ _____    ______ ____
ROOT
ATOM      1  C   UNL     1       2.749   6.248  19.579  0.00  0.00    +0.000 C 
ATOM      2  O   UNL     1       2.186   5.619  20.468  0.00  0.00    +0.000 OA
ENDROOT
BRANCH   1   5
ATOM      3  C   UNL     1       0.938   8.598  21.036  0.00  0.00    +0.000 C 
ATOM      4  C   UNL     1       1.516   8.503  19.675  0.00  0.00    +0.000 A 
ATOM      5  C   UNL     1       2.272   7.522  19.048  0.00  0.00    +0.000 A 
ATOM      6  N   UNL     1       2.602   7.957  17.784  0.00  0.00    +0.000 NA
ATOM      7  N   UNL     1       2.095   9.166  17.610  0.00  0.00    +0.000 NA
ATOM      8  N   UNL     1       1.424   9.496  18.730  0.00  0.00    +0.000 N 
BRANCH   8   9
ATOM      9  C   UNL     1       0.876  10.839  18.857  0.00  0.00    +0.000 C 
BRANCH   9  10
ATOM     10  C   UNL     1      -0.594  10.925  18.518  0.00  0.00    +0.000 A 
ATOM     11  C   UNL     1      -1.166  10.010  17.621  0.00  0.00    +0.000 A 
ATOM     12  C   UNL     1      -2.543  10.013  17.384  0.00  0.00    +0.000 A 
ATOM     13  C   UNL     1      -3.363  10.929  18.037  0.00  0.00    +0.000 A 
ATOM     14  C   UNL     1      -2.808  11.852  18.919  0.00  0.00    +0.000 A 
ATOM     15  C   UNL     1      -1.432  11.850  19.159  0.00  0.00    +0.000 A 
ENDBRANCH   9  10
ENDBRANCH   8   9
ENDBRANCH   1   5
BRANCH   1  16
ATOM     16  O   UNL     1       3.927   5.866  18.998  0.00  0.00    +0.000 OA
BRANCH  16  17
ATOM     17  C   UNL     1       3.843   4.748  18.100  0.00  0.00    +0.000 C 
BRANCH  17  18
ATOM     18  C   UNL     1       5.260   4.195  17.888  0.00  0.00    +0.000 C 
ATOM     19  O   UNL     1       5.389   3.683  16.537  0.00  0.00    +0.000 OA
ATOM     20  C   UNL     1       6.211   4.581  15.778  0.00  0.00    +0.000 C 
ATOM     21  C   UNL     1       6.391   5.843  16.628  0.00  0.00    +0.000 C 
ATOM     22  C   UNL     1       6.351   5.252  18.027  0.00  0.00    +0.000 C 
BRANCH  20  23
ATOM     23  O   UNL     1       5.646   4.822  14.505  0.00  0.00    +0.000 OA
ATOM     24  H   UNL     1       5.797   4.037  13.953  0.00  0.00    +0.000 HD
ENDBRANCH  20  23
BRANCH  21  25
ATOM     25  O   UNL     1       7.603   6.539  16.365  0.00  0.00    +0.000 OA
ATOM     26  H   UNL     1       8.216   5.880  15.977  0.00  0.00    +0.000 HD
ENDBRANCH  21  25
BRANCH  22  27
ATOM     27  O   UNL     1       7.630   4.646  18.302  0.00  0.00    +0.000 OA
ATOM     28  H   UNL     1       8.135   5.239  18.893  0.00  0.00    +0.000 HD
ENDBRANCH  22  27
ENDBRANCH  17  18
ENDBRANCH  16  17
ENDBRANCH   1  16
TORSDOF 9
ENDMDL
