MODEL 1
REMARK VINA RESULT:      -7.3      0.000      0.000
REMARK  Name = 
REMARK  6 active torsions:
REMARK  status: ('A' for Active; 'I' for Inactive)
REMARK    1  A    between atoms: C_1  and  C_2
REMARK    2  A    between atoms: C_2  and  C_3
REMARK    3  A    between atoms: C_13  and  C_14
REMARK    4  A    between atoms: C_17  and  O_18
REMARK    5  A    between atoms: C_25  and  C_26
REMARK    6  A    between atoms: C_25  and  C_27
REMARK                            x       y       z     vdW  Elec       q    Type
REMARK                         _______ _______ _______ _____ _____    ______ ____
ROOT
ATOM      1  C   UNL     1       2.593  17.148  17.171  0.00  0.00    +0.000 C 
ATOM      2  C   UNL     1       2.912  16.210  18.343  0.00  0.00    +0.000 C 
ATOM      3  C   UNL     1       3.756  16.985  19.369  0.00  0.00    +0.000 C 
ATOM      4  C   UNL     1       3.587  14.947  17.835  0.00  0.00    +0.000 C 
ATOM      5  C   UNL     1       3.104  13.707  18.043  0.00  0.00    +0.000 C 
ATOM      6  C   UNL     1       1.976  13.561  18.964  0.00  0.00    +0.000 A 
ATOM      7  C   UNL     1       1.482  14.732  19.541  0.00  0.00    +0.000 A 
ATOM      8  C   UNL     1       0.709  14.681  20.697  0.00  0.00    +0.000 A 
ATOM      9  C   UNL     1       0.626  13.485  21.378  0.00  0.00    +0.000 A 
ATOM     10  C   UNL     1       1.224  12.335  20.881  0.00  0.00    +0.000 A 
ATOM     11  C   UNL     1       0.621  11.067  21.299  0.00  0.00    +0.000 A 
ATOM     12  O   UNL     1       1.178  10.192  21.936  0.00  0.00    +0.000 OA
ATOM     13  C   UNL     1      -0.731  10.977  20.669  0.00  0.00    +0.000 A 
ATOM     14  C   UNL     1      -0.446  10.999  19.335  0.00  0.00    +0.000 A 
ATOM     15  O   UNL     1       0.844  11.396  18.771  0.00  0.00    +0.000 OA
ATOM     16  C   UNL     1       1.569  12.350  19.541  0.00  0.00    +0.000 A 
ATOM     17  O   UNL     1      -0.208  13.270  22.431  0.00  0.00    +0.000 OA
ATOM     18  C   UNL     1      -1.676  13.852  22.482  0.00  0.00    +0.000 C 
ATOM     19  C   UNL     1      -1.090  14.640  23.940  0.00  0.00    +0.000 C 
ATOM     20  C   UNL     1      -3.447  12.570  22.289  0.00  0.00    +0.000 C 
ATOM     21  C   UNL     1      -1.422  15.427  21.572  0.00  0.00    +0.000 C 
ATOM     22  C   UNL     1      -0.015  15.862  21.209  0.00  0.00    +0.000 C 
ATOM     23  O   UNL     1       1.645  15.960  18.969  0.00  0.00    +0.000 OA
ENDROOT
BRANCH  13  24
ATOM     24  C   UNL     1      -1.713  11.904  21.373  0.00  0.00    +0.000 A 
ATOM     25  C   UNL     1      -2.657  13.000  20.289  0.00  0.00    +0.000 A 
ATOM     26  C   UNL     1      -4.000  14.020  20.930  0.00  0.00    +0.000 A 
ATOM     27  C   UNL     1      -4.478  13.892  22.653  0.00  0.00    +0.000 A 
ATOM     28  C   UNL     1      -3.553  12.835  23.764  0.00  0.00    +0.000 A 
ATOM     29  C   UNL     1      -2.209  11.776  23.105  0.00  0.00    +0.000 A 
BRANCH  27  30
ATOM     30  O   UNL     1      -5.509  14.657  23.123  0.00  0.00    +0.000 OA
ATOM     31  H   UNL     1      -6.154  14.044  23.520  0.00  0.00    +0.000 HD
ENDBRANCH  27  30
ENDBRANCH  13  24
TORSDOF 2
ENDMDL
MODEL 2
REMARK VINA RESULT:      -7.2      6.696     10.843
REMARK  Name = 
REMARK  6 active torsions:
REMARK  status: ('A' for Active; 'I' for Inactive)
REMARK    1  A    between atoms: C_1  and  C_2
REMARK    2  A    between atoms: C_2  and  C_3
REMARK    3  A    between atoms: C_13  and  C_14
REMARK    4  A    between atoms: C_17  and  O_18
REMARK    5  A    between atoms: C_25  and  C_26
REMARK    6  A    between atoms: C_25  and  C_27
REMARK                            x       y       z     vdW  Elec       q    Type
REMARK                         _______ _______ _______ _____ _____    ______ ____
ROOT
ATOM      1  C   UNL     1       6.382  11.505  24.958  0.00  0.00    +0.000 C 
ATOM      2  C   UNL     1       6.787  12.950  24.637  0.00  0.00    +0.000 C 
ATOM      3  C   UNL     1       7.775  13.427  25.716  0.00  0.00    +0.000 C 
ATOM      4  C   UNL     1       5.552  13.827  24.517  0.00  0.00    +0.000 C 
ATOM      5  C   UNL     1       5.244  14.536  23.414  0.00  0.00    +0.000 C 
ATOM      6  C   UNL     1       6.247  14.612  22.351  0.00  0.00    +0.000 A 
ATOM      7  C   UNL     1       7.442  13.923  22.566  0.00  0.00    +0.000 A 
ATOM      8  C   UNL     1       8.584  14.240  21.838  0.00  0.00    +0.000 A 
ATOM      9  C   UNL     1       8.573  15.383  21.066  0.00  0.00    +0.000 A 
ATOM     10  C   UNL     1       7.424  16.154  20.945  0.00  0.00    +0.000 A 
ATOM     11  C   UNL     1       7.309  16.943  19.716  0.00  0.00    +0.000 A 
ATOM     12  O   UNL     1       7.239  18.157  19.656  0.00  0.00    +0.000 OA
ATOM     13  C   UNL     1       7.130  15.991  18.579  0.00  0.00    +0.000 A 
ATOM     14  C   UNL     1       5.966  15.354  18.896  0.00  0.00    +0.000 A 
ATOM     15  O   UNL     1       5.335  15.393  20.215  0.00  0.00    +0.000 OA
ATOM     16  C   UNL     1       6.235  15.548  21.309  0.00  0.00    +0.000 A 
ATOM     17  O   UNL     1       9.566  15.722  20.201  0.00  0.00    +0.000 OA
ATOM     18  C   UNL     1      10.313  14.654  19.308  0.00  0.00    +0.000 C 
ATOM     19  C   UNL     1      11.734  15.244  20.157  0.00  0.00    +0.000 C 
ATOM     20  C   UNL     1      10.020  14.540  17.136  0.00  0.00    +0.000 C 
ATOM     21  C   UNL     1      10.276  13.212  20.445  0.00  0.00    +0.000 C 
ATOM     22  C   UNL     1       9.795  13.397  21.871  0.00  0.00    +0.000 C 
ATOM     23  O   UNL     1       7.536  12.860  23.417  0.00  0.00    +0.000 OA
ENDROOT
BRANCH  13  24
ATOM     24  C   UNL     1       8.446  15.300  18.247  0.00  0.00    +0.000 A 
ATOM     25  C   UNL     1       8.379  13.495  18.180  0.00  0.00    +0.000 A 
ATOM     26  C   UNL     1       9.790  12.526  17.610  0.00  0.00    +0.000 A 
ATOM     27  C   UNL     1      11.263  13.355  17.013  0.00  0.00    +0.000 A 
ATOM     28  C   UNL     1      11.378  15.141  17.084  0.00  0.00    +0.000 A 
ATOM     29  C   UNL     1       9.932  16.125  17.634  0.00  0.00    +0.000 A 
BRANCH  27  30
ATOM     30  O   UNL     1      12.319  12.612  16.566  0.00  0.00    +0.000 OA
ATOM     31  H   UNL     1      12.630  13.031  15.744  0.00  0.00    +0.000 HD
ENDBRANCH  27  30
ENDBRANCH  13  24
TORSDOF 2
ENDMDL
MODEL 3
REMARK VINA RESULT:      -6.8      6.962     10.802
REMARK  Name = 
REMARK  6 active torsions:
REMARK  status: ('A' for Active; 'I' for Inactive)
REMARK    1  A    between atoms: C_1  and  C_2
REMARK    2  A    between atoms: C_2  and  C_3
REMARK    3  A    between atoms: C_13  and  C_14
REMARK    4  A    between atoms: C_17  and  O_18
REMARK    5  A    between atoms: C_25  and  C_26
REMARK    6  A    between atoms: C_25  and  C_27
REMARK                            x       y       z     vdW  Elec       q    Type
REMARK                         _______ _______ _______ _____ _____    ______ ____
ROOT
ATOM      1  C   UNL     1       5.979  13.878  25.568  0.00  0.00    +0.000 C 
ATOM      2  C   UNL     1       6.527  15.064  24.764  0.00  0.00    +0.000 C 
ATOM      3  C   UNL     1       7.512  15.840  25.655  0.00  0.00    +0.000 C 
ATOM      4  C   UNL     1       5.383  15.917  24.240  0.00  0.00    +0.000 C 
ATOM      5  C   UNL     1       5.185  16.179  22.934  0.00  0.00    +0.000 C 
ATOM      6  C   UNL     1       6.231  15.779  21.992  0.00  0.00    +0.000 A 
ATOM      7  C   UNL     1       7.349  15.138  22.531  0.00  0.00    +0.000 A 
ATOM      8  C   UNL     1       8.543  15.078  21.819  0.00  0.00    +0.000 A 
ATOM      9  C   UNL     1       8.666  15.844  20.679  0.00  0.00    +0.000 A 
ATOM     10  C   UNL     1       7.599  16.592  20.201  0.00  0.00    +0.000 A 
ATOM     11  C   UNL     1       7.604  16.868  18.762  0.00  0.00    +0.000 A 
ATOM     12  O   UNL     1       7.648  17.972  18.251  0.00  0.00    +0.000 OA
ATOM     13  C   UNL     1       7.383  15.573  18.050  0.00  0.00    +0.000 A 
ATOM     14  C   UNL     1       6.153  15.186  18.498  0.00  0.00    +0.000 A 
ATOM     15  O   UNL     1       5.478  15.763  19.660  0.00  0.00    +0.000 OA
ATOM     16  C   UNL     1       6.345  16.253  20.679  0.00  0.00    +0.000 A 
ATOM     17  O   UNL     1       9.719  15.762  19.822  0.00  0.00    +0.000 OA
ATOM     18  C   UNL     1      10.399  14.387  19.445  0.00  0.00    +0.000 C 
ATOM     19  C   UNL     1      11.834  15.151  20.112  0.00  0.00    +0.000 C 
ATOM     20  C   UNL     1      10.180  13.486  17.455  0.00  0.00    +0.000 C 
ATOM     21  C   UNL     1      10.185  13.484  21.030  0.00  0.00    +0.000 C 
ATOM     22  C   UNL     1       9.669  14.225  22.248  0.00  0.00    +0.000 C 
ATOM     23  O   UNL     1       7.312  14.469  23.720  0.00  0.00    +0.000 OA
ENDROOT
BRANCH  13  24
ATOM     24  C   UNL     1       8.642  14.717  18.091  0.00  0.00    +0.000 A 
ATOM     25  C   UNL     1       8.391  12.993  18.575  0.00  0.00    +0.000 A 
ATOM     26  C   UNL     1       9.735  11.792  18.488  0.00  0.00    +0.000 A 
ATOM     27  C   UNL     1      11.329  12.279  17.828  0.00  0.00    +0.000 A 
ATOM     28  C   UNL     1      11.624  13.982  17.360  0.00  0.00    +0.000 A 
ATOM     29  C   UNL     1      10.250  15.194  17.420  0.00  0.00    +0.000 A 
BRANCH  27  30
ATOM     30  O   UNL     1      12.333  11.356  17.749  0.00  0.00    +0.000 OA
ATOM     31  H   UNL     1      12.565  11.113  18.664  0.00  0.00    +0.000 HD
ENDBRANCH  27  30
ENDBRANCH  13  24
TORSDOF 2
ENDMDL
MODEL 4
REMARK VINA RESULT:      -6.7      7.265      9.427
REMARK  Name = 
REMARK  6 active torsions:
REMARK  status: ('A' for Active; 'I' for Inactive)
REMARK    1  A    between atoms: C_1  and  C_2
REMARK    2  A    between atoms: C_2  and  C_3
REMARK    3  A    between atoms: C_13  and  C_14
REMARK    4  A    between atoms: C_17  and  O_18
REMARK    5  A    between atoms: C_25  and  C_26
REMARK    6  A    between atoms: C_25  and  C_27
REMARK                            x       y       z     vdW  Elec       q    Type
REMARK                         _______ _______ _______ _____ _____    ______ ____
ROOT
ATOM      1  C   UNL     1      11.846  11.776  19.134  0.00  0.00    +0.000 C 
ATOM      2  C   UNL     1      10.332  12.018  19.189  0.00  0.00    +0.000 C 
ATOM      3  C   UNL     1       9.619  10.734  18.731  0.00  0.00    +0.000 C 
ATOM      4  C   UNL     1       9.966  13.241  18.365  0.00  0.00    +0.000 C 
ATOM      5  C   UNL     1       9.328  14.316  18.868  0.00  0.00    +0.000 C 
ATOM      6  C   UNL     1       8.797  14.219  20.228  0.00  0.00    +0.000 A 
ATOM      7  C   UNL     1       9.012  13.015  20.901  0.00  0.00    +0.000 A 
ATOM      8  C   UNL     1       8.234  12.669  22.002  0.00  0.00    +0.000 A 
ATOM      9  C   UNL     1       7.115  13.425  22.277  0.00  0.00    +0.000 A 
ATOM     10  C   UNL     1       6.815  14.557  21.531  0.00  0.00    +0.000 A 
ATOM     11  C   UNL     1       6.021  15.583  22.214  0.00  0.00    +0.000 A 
ATOM     12  O   UNL     1       4.918  15.971  21.873  0.00  0.00    +0.000 OA
ATOM     13  C   UNL     1       6.871  16.173  23.292  0.00  0.00    +0.000 A 
ATOM     14  C   UNL     1       7.918  16.705  22.596  0.00  0.00    +0.000 A 
ATOM     15  O   UNL     1       8.227  16.395  21.201  0.00  0.00    +0.000 OA
ATOM     16  C   UNL     1       7.845  15.089  20.776  0.00  0.00    +0.000 A 
ATOM     17  O   UNL     1       6.360  13.281  23.399  0.00  0.00    +0.000 OA
ATOM     18  C   UNL     1       6.996  12.993  24.817  0.00  0.00    +0.000 C 
ATOM     19  C   UNL     1       5.999  11.548  24.740  0.00  0.00    +0.000 C 
ATOM     20  C   UNL     1       7.024  14.502  26.410  0.00  0.00    +0.000 C 
ATOM     21  C   UNL     1       8.443  11.979  24.313  0.00  0.00    +0.000 C 
ATOM     22  C   UNL     1       8.571  11.524  22.871  0.00  0.00    +0.000 C 
ATOM     23  O   UNL     1      10.034  12.167  20.585  0.00  0.00    +0.000 OA
ENDROOT
BRANCH  13  24
ATOM     24  C   UNL     1       6.997  15.207  24.463  0.00  0.00    +0.000 A 
ATOM     25  C   UNL     1       8.683  14.893  25.032  0.00  0.00    +0.000 A 
ATOM     26  C   UNL     1       9.004  13.935  26.527  0.00  0.00    +0.000 A 
ATOM     27  C   UNL     1       7.636  13.352  27.527  0.00  0.00    +0.000 A 
ATOM     28  C   UNL     1       5.950  13.623  26.986  0.00  0.00    +0.000 A 
ATOM     29  C   UNL     1       5.625  14.622  25.483  0.00  0.00    +0.000 A 
BRANCH  27  30
ATOM     30  O   UNL     1       7.891  12.643  28.667  0.00  0.00    +0.000 OA
ATOM     31  H   UNL     1       7.293  12.991  29.354  0.00  0.00    +0.000 HD
ENDBRANCH  27  30
ENDBRANCH  13  24
TORSDOF 2
ENDMDL
MODEL 5
REMARK VINA RESULT:      -6.5      1.550      6.249
REMARK  Name = 
REMARK  6 active torsions:
REMARK  status: ('A' for Active; 'I' for Inactive)
REMARK    1  A    between atoms: C_1  and  C_2
REMARK    2  A    between atoms: C_2  and  C_3
REMARK    3  A    between atoms: C_13  and  C_14
REMARK    4  A    between atoms: C_17  and  O_18
REMARK    5  A    between atoms: C_25  and  C_26
REMARK    6  A    between atoms: C_25  and  C_27
REMARK                            x       y       z     vdW  Elec       q    Type
REMARK                         _______ _______ _______ _____ _____    ______ ____
ROOT
ATOM      1  C   UNL     1      -2.914  14.923  25.633  0.00  0.00    +0.000 C 
ATOM      2  C   UNL     1      -3.169  14.537  24.170  0.00  0.00    +0.000 C 
ATOM      3  C   UNL     1      -4.257  15.466  23.606  0.00  0.00    +0.000 C 
ATOM      4  C   UNL     1      -3.521  13.062  24.071  0.00  0.00    +0.000 C 
ATOM      5  C   UNL     1      -2.828  12.177  23.328  0.00  0.00    +0.000 C 
ATOM      6  C   UNL     1      -1.802  12.702  22.425  0.00  0.00    +0.000 A 
ATOM      7  C   UNL     1      -1.616  14.085  22.423  0.00  0.00    +0.000 A 
ATOM      8  C   UNL     1      -0.981  14.714  21.357  0.00  0.00    +0.000 A 
ATOM      9  C   UNL     1      -0.738  13.982  20.214  0.00  0.00    +0.000 A 
ATOM     10  C   UNL     1      -1.039  12.627  20.155  0.00  0.00    +0.000 A 
ATOM     11  C   UNL     1      -0.247  11.836  19.209  0.00  0.00    +0.000 A 
ATOM     12  O   UNL     1      -0.688  11.220  18.256  0.00  0.00    +0.000 OA
ATOM     13  C   UNL     1       1.157  11.791  19.718  0.00  0.00    +0.000 A 
ATOM     14  C   UNL     1       1.022  11.171  20.926  0.00  0.00    +0.000 A 
ATOM     15  O   UNL     1      -0.251  10.983  21.622  0.00  0.00    +0.000 OA
ATOM     16  C   UNL     1      -1.231  11.985  21.365  0.00  0.00    +0.000 A 
ATOM     17  O   UNL     1       0.000  14.436  19.166  0.00  0.00    +0.000 OA
ATOM     18  C   UNL     1       1.309  15.298  19.363  0.00  0.00    +0.000 C 
ATOM     19  C   UNL     1       0.422  16.482  18.415  0.00  0.00    +0.000 C 
ATOM     20  C   UNL     1       3.309  14.495  18.946  0.00  0.00    +0.000 C 
ATOM     21  C   UNL     1       0.851  16.224  20.882  0.00  0.00    +0.000 C 
ATOM     22  C   UNL     1      -0.565  16.129  21.416  0.00  0.00    +0.000 C 
ATOM     23  O   UNL     1      -1.955  14.875  23.484  0.00  0.00    +0.000 OA
ENDROOT
BRANCH  13  24
ATOM     24  C   UNL     1       1.852  13.126  19.489  0.00  0.00    +0.000 A 
ATOM     25  C   UNL     1       2.663  13.836  20.940  0.00  0.00    +0.000 A 
ATOM     26  C   UNL     1       3.698  15.308  20.807  0.00  0.00    +0.000 A 
ATOM     27  C   UNL     1       4.011  16.041  19.201  0.00  0.00    +0.000 A 
ATOM     28  C   UNL     1       3.208  15.381  17.743  0.00  0.00    +0.000 A 
ATOM     29  C   UNL     1       2.181  13.868  17.875  0.00  0.00    +0.000 A 
BRANCH  27  30
ATOM     30  O   UNL     1       4.811  17.145  19.111  0.00  0.00    +0.000 OA
ATOM     31  H   UNL     1       4.594  17.581  18.268  0.00  0.00    +0.000 HD
ENDBRANCH  27  30
ENDBRANCH  13  24
TORSDOF 2
ENDMDL
MODEL 6
REMARK VINA RESULT:      -6.5      3.868      6.658
REMARK  Name = 
REMARK  6 active torsions:
REMARK  status: ('A' for Active; 'I' for Inactive)
REMARK    1  A    between atoms: C_1  and  C_2
REMARK    2  A    between atoms: C_2  and  C_3
REMARK    3  A    between atoms: C_13  and  C_14
REMARK    4  A    between atoms: C_17  and  O_18
REMARK    5  A    between atoms: C_25  and  C_26
REMARK    6  A    between atoms: C_25  and  C_27
REMARK                            x       y       z     vdW  Elec       q    Type
REMARK                         _______ _______ _______ _____ _____    ______ ____
ROOT
ATOM      1  C   UNL     1      -4.542  11.511  16.344  0.00  0.00    +0.000 C 
ATOM      2  C   UNL     1      -4.624  11.060  17.808  0.00  0.00    +0.000 C 
ATOM      3  C   UNL     1      -3.649   9.888  18.010  0.00  0.00    +0.000 C 
ATOM      4  C   UNL     1      -6.060  10.722  18.173  0.00  0.00    +0.000 C 
ATOM      5  C   UNL     1      -6.736  11.318  19.174  0.00  0.00    +0.000 C 
ATOM      6  C   UNL     1      -5.987  12.198  20.072  0.00  0.00    +0.000 A 
ATOM      7  C   UNL     1      -4.627  12.359  19.803  0.00  0.00    +0.000 A 
ATOM      8  C   UNL     1      -3.760  12.828  20.785  0.00  0.00    +0.000 A 
ATOM      9  C   UNL     1      -4.224  12.919  22.080  0.00  0.00    +0.000 A 
ATOM     10  C   UNL     1      -5.549  12.635  22.387  0.00  0.00    +0.000 A 
ATOM     11  C   UNL     1      -6.087  13.299  23.577  0.00  0.00    +0.000 A 
ATOM     12  O   UNL     1      -6.509  12.740  24.573  0.00  0.00    +0.000 OA
ATOM     13  C   UNL     1      -6.173  14.762  23.283  0.00  0.00    +0.000 A 
ATOM     14  C   UNL     1      -7.037  14.809  22.228  0.00  0.00    +0.000 A 
ATOM     15  O   UNL     1      -7.426  13.650  21.425  0.00  0.00    +0.000 OA
ATOM     16  C   UNL     1      -6.439  12.627  21.328  0.00  0.00    +0.000 A 
ATOM     17  O   UNL     1      -3.527  13.495  23.096  0.00  0.00    +0.000 OA
ATOM     18  C   UNL     1      -2.666  14.804  22.896  0.00  0.00    +0.000 C 
ATOM     19  C   UNL     1      -1.351  13.773  23.442  0.00  0.00    +0.000 C 
ATOM     20  C   UNL     1      -3.271  16.738  23.739  0.00  0.00    +0.000 C 
ATOM     21  C   UNL     1      -2.101  14.549  21.167  0.00  0.00    +0.000 C 
ATOM     22  C   UNL     1      -2.371  13.224  20.480  0.00  0.00    +0.000 C 
ATOM     23  O   UNL     1      -4.094  12.160  18.562  0.00  0.00    +0.000 OA
ENDROOT
BRANCH  13  24
ATOM     24  C   UNL     1      -4.788  15.396  23.311  0.00  0.00    +0.000 A 
ATOM     25  C   UNL     1      -4.356  16.379  21.857  0.00  0.00    +0.000 A 
ATOM     26  C   UNL     1      -2.842  17.360  21.807  0.00  0.00    +0.000 A 
ATOM     27  C   UNL     1      -1.781  17.443  23.249  0.00  0.00    +0.000 A 
ATOM     28  C   UNL     1      -2.163  16.465  24.701  0.00  0.00    +0.000 A 
ATOM     29  C   UNL     1      -3.716  15.493  24.762  0.00  0.00    +0.000 A 
BRANCH  27  30
ATOM     30  O   UNL     1      -0.647  18.203  23.206  0.00  0.00    +0.000 OA
ATOM     31  H   UNL     1      -0.284  18.219  24.110  0.00  0.00    +0.000 HD
ENDBRANCH  27  30
ENDBRANCH  13  24
TORSDOF 2
ENDMDL
MODEL 7
REMARK VINA RESULT:      -6.4      2.304      6.727
REMARK  Name = 
REMARK  6 active torsions:
REMARK  status: ('A' for Active; 'I' for Inactive)
REMARK    1  A    between atoms: C_1  and  C_2
REMARK    2  A    between atoms: C_2  and  C_3
REMARK    3  A    between atoms: C_13  and  C_14
REMARK    4  A    between atoms: C_17  and  O_18
REMARK    5  A    between atoms: C_25  and  C_26
REMARK    6  A    between atoms: C_25  and  C_27
REMARK                            x       y       z     vdW  Elec       q    Type
REMARK                         _______ _______ _______ _____ _____    ______ ____
ROOT
ATOM      1  C   UNL     1      -7.169  12.551  17.620  0.00  0.00    +0.000 C 
ATOM      2  C   UNL     1      -6.381  11.915  18.773  0.00  0.00    +0.000 C 
ATOM      3  C   UNL     1      -6.378  10.390  18.575  0.00  0.00    +0.000 C 
ATOM      4  C   UNL     1      -6.961  12.351  20.108  0.00  0.00    +0.000 C 
ATOM      5  C   UNL     1      -6.250  12.986  21.059  0.00  0.00    +0.000 C 
ATOM      6  C   UNL     1      -4.802  13.092  20.870  0.00  0.00    +0.000 A 
ATOM      7  C   UNL     1      -4.279  12.534  19.702  0.00  0.00    +0.000 A 
ATOM      8  C   UNL     1      -2.926  12.225  19.608  0.00  0.00    +0.000 A 
ATOM      9  C   UNL     1      -2.161  12.273  20.755  0.00  0.00    +0.000 A 
ATOM     10  C   UNL     1      -2.703  12.704  21.959  0.00  0.00    +0.000 A 
ATOM     11  C   UNL     1      -1.756  13.279  22.919  0.00  0.00    +0.000 A 
ATOM     12  O   UNL     1      -1.520  12.843  24.031  0.00  0.00    +0.000 OA
ATOM     13  C   UNL     1      -1.262  14.570  22.353  0.00  0.00    +0.000 A 
ATOM     14  C   UNL     1      -2.403  15.311  22.245  0.00  0.00    +0.000 A 
ATOM     15  O   UNL     1      -3.756  14.761  22.328  0.00  0.00    +0.000 OA
ATOM     16  C   UNL     1      -3.888  13.415  21.882  0.00  0.00    +0.000 A 
ATOM     17  O   UNL     1      -0.808  12.136  20.769  0.00  0.00    +0.000 OA
ATOM     18  C   UNL     1       0.119  12.764  19.654  0.00  0.00    +0.000 C 
ATOM     19  C   UNL     1       0.600  11.092  19.406  0.00  0.00    +0.000 C 
ATOM     20  C   UNL     1       1.432  14.476  20.057  0.00  0.00    +0.000 C 
ATOM     21  C   UNL     1      -0.996  12.622  18.201  0.00  0.00    +0.000 C 
ATOM     22  C   UNL     1      -2.295  11.848  18.328  0.00  0.00    +0.000 C 
ATOM     23  O   UNL     1      -5.027  12.349  18.576  0.00  0.00    +0.000 OA
ENDROOT
BRANCH  13  24
ATOM     24  C   UNL     1      -0.271  14.317  21.224  0.00  0.00    +0.000 A 
ATOM     25  C   UNL     1      -0.603  15.207  19.687  0.00  0.00    +0.000 A 
ATOM     26  C   UNL     1       0.572  15.180  18.318  0.00  0.00    +0.000 A 
ATOM     27  C   UNL     1       2.141  14.332  18.500  0.00  0.00    +0.000 A 
ATOM     28  C   UNL     1       2.498  13.420  20.000  0.00  0.00    +0.000 A 
ATOM     29  C   UNL     1       1.317  13.474  21.401  0.00  0.00    +0.000 A 
BRANCH  27  30
ATOM     30  O   UNL     1       3.030  14.334  17.463  0.00  0.00    +0.000 OA
ATOM     31  H   UNL     1       2.541  14.630  16.674  0.00  0.00    +0.000 HD
ENDBRANCH  27  30
ENDBRANCH  13  24
TORSDOF 2
ENDMDL
MODEL 8
REMARK VINA RESULT:      -6.4      3.064      5.790
REMARK  Name = 
REMARK  6 active torsions:
REMARK  status: ('A' for Active; 'I' for Inactive)
REMARK    1  A    between atoms: C_1  and  C_2
REMARK    2  A    between atoms: C_2  and  C_3
REMARK    3  A    between atoms: C_13  and  C_14
REMARK    4  A    between atoms: C_17  and  O_18
REMARK    5  A    between atoms: C_25  and  C_26
REMARK    6  A    between atoms: C_25  and  C_27
REMARK                            x       y       z     vdW  Elec       q    Type
REMARK                         _______ _______ _______ _____ _____    ______ ____
ROOT
ATOM      1  C   UNL     1       0.527  11.947  18.566  0.00  0.00    +0.000 C 
ATOM      2  C   UNL     1      -0.716  11.296  19.187  0.00  0.00    +0.000 C 
ATOM      3  C   UNL     1      -0.271  10.458  20.398  0.00  0.00    +0.000 C 
ATOM      4  C   UNL     1      -1.466  10.492  18.138  0.00  0.00    +0.000 C 
ATOM      5  C   UNL     1      -2.754  10.712  17.809  0.00  0.00    +0.000 C 
ATOM      6  C   UNL     1      -3.519  11.645  18.637  0.00  0.00    +0.000 A 
ATOM      7  C   UNL     1      -2.838  12.246  19.698  0.00  0.00    +0.000 A 
ATOM      8  C   UNL     1      -3.537  12.816  20.757  0.00  0.00    +0.000 A 
ATOM      9  C   UNL     1      -4.893  12.583  20.849  0.00  0.00    +0.000 A 
ATOM     10  C   UNL     1      -5.565  11.872  19.863  0.00  0.00    +0.000 A 
ATOM     11  C   UNL     1      -6.992  12.172  19.717  0.00  0.00    +0.000 A 
ATOM     12  O   UNL     1      -7.904  11.380  19.872  0.00  0.00    +0.000 OA
ATOM     13  C   UNL     1      -7.113  13.566  19.192  0.00  0.00    +0.000 A 
ATOM     14  C   UNL     1      -6.474  13.493  17.989  0.00  0.00    +0.000 A 
ATOM     15  O   UNL     1      -5.600  12.393  17.582  0.00  0.00    +0.000 OA
ATOM     16  C   UNL     1      -4.917  11.740  18.648  0.00  0.00    +0.000 A 
ATOM     17  O   UNL     1      -5.708  13.198  21.747  0.00  0.00    +0.000 OA
ATOM     18  C   UNL     1      -5.545  14.721  22.135  0.00  0.00    +0.000 C 
ATOM     19  C   UNL     1      -5.326  14.072  23.753  0.00  0.00    +0.000 C 
ATOM     20  C   UNL     1      -6.992  16.246  21.503  0.00  0.00    +0.000 C 
ATOM     21  C   UNL     1      -3.721  14.889  21.994  0.00  0.00    +0.000 C 
ATOM     22  C   UNL     1      -2.872  13.651  21.776  0.00  0.00    +0.000 C 
ATOM     23  O   UNL     1      -1.481  12.390  19.714  0.00  0.00    +0.000 OA
ENDROOT
BRANCH  13  24
ATOM     24  C   UNL     1      -6.809  14.579  20.288  0.00  0.00    +0.000 A 
ATOM     25  C   UNL     1      -5.596  15.847  19.855  0.00  0.00    +0.000 A 
ATOM     26  C   UNL     1      -5.263  17.238  20.956  0.00  0.00    +0.000 A 
ATOM     27  C   UNL     1      -6.206  17.429  22.469  0.00  0.00    +0.000 A 
ATOM     28  C   UNL     1      -7.400  16.182  22.943  0.00  0.00    +0.000 A 
ATOM     29  C   UNL     1      -7.759  14.786  21.810  0.00  0.00    +0.000 A 
BRANCH  27  30
ATOM     30  O   UNL     1      -5.957  18.496  23.285  0.00  0.00    +0.000 OA
ATOM     31  H   UNL     1      -6.019  18.169  24.201  0.00  0.00    +0.000 HD
ENDBRANCH  27  30
ENDBRANCH  13  24
TORSDOF 2
ENDMDL
MODEL 9
REMARK VINA RESULT:      -6.3      9.342     11.853
REMARK  Name = 
REMARK  6 active torsions:
REMARK  status: ('A' for Active; 'I' for Inactive)
REMARK    1  A    between atoms: C_1  and  C_2
REMARK    2  A    between atoms: C_2  and  C_3
REMARK    3  A    between atoms: C_13  and  C_14
REMARK    4  A    between atoms: C_17  and  O_18
REMARK    5  A    between atoms: C_25  and  C_26
REMARK    6  A    between atoms: C_25  and  C_27
REMARK                            x       y       z     vdW  Elec       q    Type
REMARK                         _______ _______ _______ _____ _____    ______ ____
ROOT
ATOM      1  C   UNL     1       6.070   1.829  11.818  0.00  0.00    +0.000 C 
ATOM      2  C   UNL     1       5.743   3.239  12.327  0.00  0.00    +0.000 C 
ATOM      3  C   UNL     1       4.604   3.812  11.467  0.00  0.00    +0.000 C 
ATOM      4  C   UNL     1       6.995   4.100  12.325  0.00  0.00    +0.000 C 
ATOM      5  C   UNL     1       7.486   4.707  13.423  0.00  0.00    +0.000 C 
ATOM      6  C   UNL     1       6.667   4.687  14.635  0.00  0.00    +0.000 A 
ATOM      7  C   UNL     1       5.442   4.022  14.555  0.00  0.00    +0.000 A 
ATOM      8  C   UNL     1       4.435   4.273  15.481  0.00  0.00    +0.000 A 
ATOM      9  C   UNL     1       4.587   5.342  16.340  0.00  0.00    +0.000 A 
ATOM     10  C   UNL     1       5.752   6.097  16.343  0.00  0.00    +0.000 A 
ATOM     11  C   UNL     1       6.075   6.773  17.603  0.00  0.00    +0.000 A 
ATOM     12  O   UNL     1       6.171   7.976  17.759  0.00  0.00    +0.000 OA
ATOM     13  C   UNL     1       6.417   5.721  18.608  0.00  0.00    +0.000 A 
ATOM     14  C   UNL     1       7.506   5.115  18.052  0.00  0.00    +0.000 A 
ATOM     15  O   UNL     1       7.920   5.272  16.659  0.00  0.00    +0.000 OA
ATOM     16  C   UNL     1       6.859   5.526  15.741  0.00  0.00    +0.000 A 
ATOM     17  O   UNL     1       3.750   5.602  17.380  0.00  0.00    +0.000 OA
ATOM     18  C   UNL     1       3.139   4.459  18.282  0.00  0.00    +0.000 C 
ATOM     19  C   UNL     1       1.610   5.124  17.727  0.00  0.00    +0.000 C 
ATOM     20  C   UNL     1       3.773   4.149  20.361  0.00  0.00    +0.000 C 
ATOM     21  C   UNL     1       2.972   3.125  17.031  0.00  0.00    +0.000 C 
ATOM     22  C   UNL     1       3.222   3.437  15.567  0.00  0.00    +0.000 C 
ATOM     23  O   UNL     1       5.197   3.040  13.639  0.00  0.00    +0.000 OA
ENDROOT
BRANCH  13  24
ATOM     24  C   UNL     1       5.161   5.005  19.083  0.00  0.00    +0.000 A 
ATOM     25  C   UNL     1       5.254   3.199  19.092  0.00  0.00    +0.000 A 
ATOM     26  C   UNL     1       3.936   2.197  19.808  0.00  0.00    +0.000 A 
ATOM     27  C   UNL     1       2.542   2.991  20.609  0.00  0.00    +0.000 A 
ATOM     28  C   UNL     1       2.401   4.777  20.601  0.00  0.00    +0.000 A 
ATOM     29  C   UNL     1       3.756   5.794  19.901  0.00  0.00    +0.000 A 
BRANCH  27  30
ATOM     30  O   UNL     1       1.558   2.222  21.164  0.00  0.00    +0.000 OA
ATOM     31  H   UNL     1       1.922   1.322  21.251  0.00  0.00    +0.000 HD
ENDBRANCH  27  30
ENDBRANCH  13  24
TORSDOF 2
ENDMDL
