MODEL 1
REMARK VINA RESULT:      -7.9      0.000      0.000
REMARK  Name = 
REMARK  7 active torsions:
REMARK  status: ('A' for Active; 'I' for Inactive)
REMARK    1  A    between atoms: C_1  and  C_2
REMARK    2  A    between atoms: C_3  and  N_4
REMARK    3  A    between atoms: N_10  and  C_11
REMARK    4  A    between atoms: C_11  and  C_12
REMARK    5  A    between atoms: C_12  and  C_13
REMARK    6  A    between atoms: C_26  and  C_27
REMARK    7  A    between atoms: C_26  and  C_28
REMARK                            x       y       z     vdW  Elec       q    Type
REMARK                         _______ _______ _______ _____ _____    ______ ____
ROOT
ATOM      1  N   UNL     1       5.377   5.051  18.366  0.00  0.00    +0.000 N 
ATOM      2  C   UNL     1       6.517   5.435  19.049  0.00  0.00    +0.000 C 
ATOM      3  O   UNL     1       6.702   5.218  20.247  0.00  0.00    +0.000 OA
ATOM      4  C   UNL     1       7.571   6.176  18.313  0.00  0.00    +0.000 C 
ATOM      5  C   UNL     1       7.416   6.284  16.847  0.00  0.00    +0.000 C 
ATOM      6  O   UNL     1       8.177   7.021  16.221  0.00  0.00    +0.000 OA
ATOM      7  N   UNL     1       6.406   5.544  16.281  0.00  0.00    +0.000 N 
ATOM      8  C   UNL     1       5.231   5.318  17.006  0.00  0.00    +0.000 C 
ATOM      9  O   UNL     1       4.136   5.385  16.449  0.00  0.00    +0.000 OA
ENDROOT
BRANCH   1  12
ATOM     10  C   UNL     1       2.437   6.037  20.167  0.00  0.00    +0.000 C 
ATOM     11  C   UNL     1       2.871   5.122  19.006  0.00  0.00    +0.000 C 
ATOM     12  C   UNL     1       4.276   4.420  19.197  0.00  0.00    +0.000 C 
ATOM     13  C   UNL     1       4.225   2.854  19.174  0.00  0.00    +0.000 C 
ATOM     14  C   UNL     1       2.838   2.308  18.799  0.00  0.00    +0.000 C 
ATOM     15  C   UNL     1       2.162   3.124  17.660  0.00  0.00    +0.000 C 
ATOM     16  C   UNL     1       1.744   4.092  18.797  0.00  0.00    +0.000 C 
ATOM     17  C   UNL     1       1.672   2.808  19.736  0.00  0.00    +0.000 C 
ATOM     18  C   UNL     1       2.019   2.897  21.225  0.00  0.00    +0.000 C 
ATOM     19  C   UNL     1       0.346   2.027  19.630  0.00  0.00    +0.000 C 
ENDBRANCH   1  12
BRANCH   7  20
ATOM     20  C   UNL     1       6.262   5.561  14.811  0.00  0.00    +0.000 C 
BRANCH  20  21
ATOM     21  C   UNL     1       7.043   4.493  14.019  0.00  0.00    +0.000 C 
BRANCH  21  22
ATOM     22  C   UNL     1       6.175   3.775  13.008  0.00  0.00    +0.000 A 
ATOM     23  C   UNL     1       4.940   4.323  12.624  0.00  0.00    +0.000 A 
ATOM     24  C   UNL     1       4.136   3.664  11.687  0.00  0.00    +0.000 A 
ATOM     25  C   UNL     1       4.551   2.449  11.139  0.00  0.00    +0.000 A 
ATOM     26  C   UNL     1       5.773   1.900  11.525  0.00  0.00    +0.000 A 
ATOM     27 CL   UNL     1       6.285   0.398  10.860  0.00  0.00    +0.000 Cl
ATOM     28  C   UNL     1       6.583   2.555  12.455  0.00  0.00    +0.000 A 
ENDBRANCH  21  22
ENDBRANCH  20  21
ENDBRANCH   7  20
TORSDOF 4
ENDMDL
MODEL 2
REMARK VINA RESULT:      -7.8      3.854      6.379
REMARK  Name = 
REMARK  7 active torsions:
REMARK  status: ('A' for Active; 'I' for Inactive)
REMARK    1  A    between atoms: C_1  and  C_2
REMARK    2  A    between atoms: C_3  and  N_4
REMARK    3  A    between atoms: N_10  and  C_11
REMARK    4  A    between atoms: C_11  and  C_12
REMARK    5  A    between atoms: C_12  and  C_13
REMARK    6  A    between atoms: C_26  and  C_27
REMARK    7  A    between atoms: C_26  and  C_28
REMARK                            x       y       z     vdW  Elec       q    Type
REMARK                         _______ _______ _______ _____ _____    ______ ____
ROOT
ATOM      1  N   UNL     1       5.238   5.174  18.178  0.00  0.00    +0.000 N 
ATOM      2  C   UNL     1       5.053   4.837  16.849  0.00  0.00    +0.000 C 
ATOM      3  O   UNL     1       4.075   4.216  16.431  0.00  0.00    +0.000 OA
ATOM      4  C   UNL     1       6.099   5.216  15.868  0.00  0.00    +0.000 C 
ATOM      5  C   UNL     1       7.180   6.102  16.348  0.00  0.00    +0.000 C 
ATOM      6  O   UNL     1       8.148   6.310  15.616  0.00  0.00    +0.000 OA
ATOM      7  N   UNL     1       7.026   6.632  17.606  0.00  0.00    +0.000 N 
ATOM      8  C   UNL     1       6.362   5.888  18.588  0.00  0.00    +0.000 C 
ATOM      9  O   UNL     1       6.790   5.862  19.742  0.00  0.00    +0.000 OA
ENDROOT
BRANCH   1  12
ATOM     10  C   UNL     1       2.439   6.365  20.078  0.00  0.00    +0.000 C 
ATOM     11  C   UNL     1       2.788   5.325  18.997  0.00  0.00    +0.000 C 
ATOM     12  C   UNL     1       4.207   4.644  19.157  0.00  0.00    +0.000 C 
ATOM     13  C   UNL     1       4.164   3.085  19.315  0.00  0.00    +0.000 C 
ATOM     14  C   UNL     1       2.755   2.505  19.110  0.00  0.00    +0.000 C 
ATOM     15  C   UNL     1       1.990   3.189  17.943  0.00  0.00    +0.000 C 
ATOM     16  C   UNL     1       1.654   4.281  18.992  0.00  0.00    +0.000 C 
ATOM     17  C   UNL     1       1.662   3.110  20.072  0.00  0.00    +0.000 C 
ATOM     18  C   UNL     1       2.121   3.366  21.511  0.00  0.00    +0.000 C 
ATOM     19  C   UNL     1       0.336   2.326  20.157  0.00  0.00    +0.000 C 
ENDBRANCH   1  12
BRANCH   7  20
ATOM     20  C   UNL     1       8.044   7.582  18.098  0.00  0.00    +0.000 C 
BRANCH  20  21
ATOM     21  C   UNL     1       7.888   9.056  17.672  0.00  0.00    +0.000 C 
BRANCH  21  22
ATOM     22  C   UNL     1       8.882   9.965  18.363  0.00  0.00    +0.000 A 
ATOM     23  C   UNL     1       8.970   9.977  19.765  0.00  0.00    +0.000 A 
ATOM     24  C   UNL     1       9.889  10.813  20.408  0.00  0.00    +0.000 A 
ATOM     25  C   UNL     1      10.716  11.652  19.659  0.00  0.00    +0.000 A 
ATOM     26  C   UNL     1      10.625  11.647  18.268  0.00  0.00    +0.000 A 
ATOM     27 CL   UNL     1      11.635  12.687  17.341  0.00  0.00    +0.000 Cl
ATOM     28  C   UNL     1       9.714  10.811  17.619  0.00  0.00    +0.000 A 
ENDBRANCH  21  22
ENDBRANCH  20  21
ENDBRANCH   7  20
TORSDOF 4
ENDMDL
MODEL 3
REMARK VINA RESULT:      -7.6      0.894      1.269
REMARK  Name = 
REMARK  7 active torsions:
REMARK  status: ('A' for Active; 'I' for Inactive)
REMARK    1  A    between atoms: C_1  and  C_2
REMARK    2  A    between atoms: C_3  and  N_4
REMARK    3  A    between atoms: N_10  and  C_11
REMARK    4  A    between atoms: C_11  and  C_12
REMARK    5  A    between atoms: C_12  and  C_13
REMARK    6  A    between atoms: C_26  and  C_27
REMARK    7  A    between atoms: C_26  and  C_28
REMARK                            x       y       z     vdW  Elec       q    Type
REMARK                         _______ _______ _______ _____ _____    ______ ____
ROOT
ATOM      1  N   UNL     1       5.311   5.018  18.361  0.00  0.00    +0.000 N 
ATOM      2  C   UNL     1       6.502   5.397  18.955  0.00  0.00    +0.000 C 
ATOM      3  O   UNL     1       6.756   5.224  20.148  0.00  0.00    +0.000 OA
ATOM      4  C   UNL     1       7.526   6.077  18.125  0.00  0.00    +0.000 C 
ATOM      5  C   UNL     1       7.281   6.129  16.668  0.00  0.00    +0.000 C 
ATOM      6  O   UNL     1       8.021   6.818  15.965  0.00  0.00    +0.000 OA
ATOM      7  N   UNL     1       6.219   5.395  16.197  0.00  0.00    +0.000 N 
ATOM      8  C   UNL     1       5.087   5.233  17.003  0.00  0.00    +0.000 C 
ATOM      9  O   UNL     1       3.961   5.308  16.512  0.00  0.00    +0.000 OA
ENDROOT
BRANCH   1  12
ATOM     10  C   UNL     1       2.540   6.166  20.326  0.00  0.00    +0.000 C 
ATOM     11  C   UNL     1       2.860   5.202  19.168  0.00  0.00    +0.000 C 
ATOM     12  C   UNL     1       4.249   4.453  19.285  0.00  0.00    +0.000 C 
ATOM     13  C   UNL     1       4.141   2.890  19.316  0.00  0.00    +0.000 C 
ATOM     14  C   UNL     1       2.713   2.386  19.053  0.00  0.00    +0.000 C 
ATOM     15  C   UNL     1       1.989   3.193  17.938  0.00  0.00    +0.000 C 
ATOM     16  C   UNL     1       1.685   4.209  19.069  0.00  0.00    +0.000 C 
ATOM     17  C   UNL     1       1.633   2.956  20.051  0.00  0.00    +0.000 C 
ATOM     18  C   UNL     1       2.085   3.076  21.510  0.00  0.00    +0.000 C 
ATOM     19  C   UNL     1       0.276   2.223  20.061  0.00  0.00    +0.000 C 
ENDBRANCH   1  12
BRANCH   7  20
ATOM     20  C   UNL     1       5.983   5.356  14.740  0.00  0.00    +0.000 C 
BRANCH  20  21
ATOM     21  C   UNL     1       7.092   4.733  13.868  0.00  0.00    +0.000 C 
BRANCH  21  22
ATOM     22  C   UNL     1       6.542   3.777  12.831  0.00  0.00    +0.000 A 
ATOM     23  C   UNL     1       7.390   2.843  12.215  0.00  0.00    +0.000 A 
ATOM     24  C   UNL     1       6.885   1.955  11.258  0.00  0.00    +0.000 A 
ATOM     25  C   UNL     1       5.537   2.003  10.901  0.00  0.00    +0.000 A 
ATOM     26  C   UNL     1       4.696   2.935  11.506  0.00  0.00    +0.000 A 
ATOM     27 CL   UNL     1       3.035   3.004  11.061  0.00  0.00    +0.000 Cl
ATOM     28  C   UNL     1       5.191   3.820  12.465  0.00  0.00    +0.000 A 
ENDBRANCH  21  22
ENDBRANCH  20  21
ENDBRANCH   7  20
TORSDOF 4
ENDMDL
MODEL 4
REMARK VINA RESULT:      -7.4      5.671      8.093
REMARK  Name = 
REMARK  7 active torsions:
REMARK  status: ('A' for Active; 'I' for Inactive)
REMARK    1  A    between atoms: C_1  and  C_2
REMARK    2  A    between atoms: C_3  and  N_4
REMARK    3  A    between atoms: N_10  and  C_11
REMARK    4  A    between atoms: C_11  and  C_12
REMARK    5  A    between atoms: C_12  and  C_13
REMARK    6  A    between atoms: C_26  and  C_27
REMARK    7  A    between atoms: C_26  and  C_28
REMARK                            x       y       z     vdW  Elec       q    Type
REMARK                         _______ _______ _______ _____ _____    ______ ____
ROOT
ATOM      1  N   UNL     1       2.547   7.009  19.094  0.00  0.00    +0.000 N 
ATOM      2  C   UNL     1       3.156   7.464  17.938  0.00  0.00    +0.000 C 
ATOM      3  O   UNL     1       3.854   6.757  17.210  0.00  0.00    +0.000 OA
ATOM      4  C   UNL     1       2.988   8.888  17.559  0.00  0.00    +0.000 C 
ATOM      5  C   UNL     1       2.017   9.680  18.343  0.00  0.00    +0.000 C 
ATOM      6  O   UNL     1       1.964  10.898  18.168  0.00  0.00    +0.000 OA
ATOM      7  N   UNL     1       1.236   8.986  19.234  0.00  0.00    +0.000 N 
ATOM      8  C   UNL     1       1.760   7.856  19.871  0.00  0.00    +0.000 C 
ATOM      9  O   UNL     1       1.541   7.660  21.066  0.00  0.00    +0.000 OA
ENDROOT
BRANCH   1  12
ATOM     10  C   UNL     1       0.847   4.100  20.320  0.00  0.00    +0.000 C 
ATOM     11  C   UNL     1       1.718   4.558  19.136  0.00  0.00    +0.000 C 
ATOM     12  C   UNL     1       2.864   5.584  19.506  0.00  0.00    +0.000 C 
ATOM     13  C   UNL     1       4.312   5.088  19.165  0.00  0.00    +0.000 C 
ATOM     14  C   UNL     1       4.318   3.768  18.378  0.00  0.00    +0.000 C 
ATOM     15  C   UNL     1       3.203   3.709  17.297  0.00  0.00    +0.000 C 
ATOM     16  C   UNL     1       2.284   3.287  18.472  0.00  0.00    +0.000 C 
ATOM     17  C   UNL     1       3.567   2.582  19.098  0.00  0.00    +0.000 C 
ATOM     18  C   UNL     1       3.765   2.504  20.615  0.00  0.00    +0.000 C 
ATOM     19  C   UNL     1       3.846   1.173  18.536  0.00  0.00    +0.000 C 
ENDBRANCH   1  12
BRANCH   7  20
ATOM     20  C   UNL     1       0.200   9.725  19.984  0.00  0.00    +0.000 C 
BRANCH  20  21
ATOM     21  C   UNL     1      -0.284  11.059  19.380  0.00  0.00    +0.000 C 
BRANCH  21  22
ATOM     22  C   UNL     1      -1.550  10.899  18.566  0.00  0.00    +0.000 A 
ATOM     23  C   UNL     1      -1.574  10.028  17.464  0.00  0.00    +0.000 A 
ATOM     24  C   UNL     1      -2.744   9.875  16.711  0.00  0.00    +0.000 A 
ATOM     25  C   UNL     1      -3.890  10.597  17.043  0.00  0.00    +0.000 A 
ATOM     26  C   UNL     1      -3.866  11.468  18.131  0.00  0.00    +0.000 A 
ATOM     27 CL   UNL     1      -5.274  12.369  18.538  0.00  0.00    +0.000 Cl
ATOM     28  C   UNL     1      -2.704  11.622  18.891  0.00  0.00    +0.000 A 
ENDBRANCH  21  22
ENDBRANCH  20  21
ENDBRANCH   7  20
TORSDOF 4
ENDMDL
MODEL 5
REMARK VINA RESULT:      -7.3      5.253      7.898
REMARK  Name = 
REMARK  7 active torsions:
REMARK  status: ('A' for Active; 'I' for Inactive)
REMARK    1  A    between atoms: C_1  and  C_2
REMARK    2  A    between atoms: C_3  and  N_4
REMARK    3  A    between atoms: N_10  and  C_11
REMARK    4  A    between atoms: C_11  and  C_12
REMARK    5  A    between atoms: C_12  and  C_13
REMARK    6  A    between atoms: C_26  and  C_27
REMARK    7  A    between atoms: C_26  and  C_28
REMARK                            x       y       z     vdW  Elec       q    Type
REMARK                         _______ _______ _______ _____ _____    ______ ____
ROOT
ATOM      1  N   UNL     1       2.491   7.028  19.129  0.00  0.00    +0.000 N 
ATOM      2  C   UNL     1       3.066   7.498  17.962  0.00  0.00    +0.000 C 
ATOM      3  O   UNL     1       3.744   6.803  17.205  0.00  0.00    +0.000 OA
ATOM      4  C   UNL     1       2.886   8.927  17.607  0.00  0.00    +0.000 C 
ATOM      5  C   UNL     1       1.938   9.708  18.429  0.00  0.00    +0.000 C 
ATOM      6  O   UNL     1       1.878  10.928  18.272  0.00  0.00    +0.000 OA
ATOM      7  N   UNL     1       1.183   9.001  19.334  0.00  0.00    +0.000 N 
ATOM      8  C   UNL     1       1.726   7.863  19.940  0.00  0.00    +0.000 C 
ATOM      9  O   UNL     1       1.542   7.652  21.138  0.00  0.00    +0.000 OA
ENDROOT
BRANCH   1  12
ATOM     10  C   UNL     1       0.817   4.079  20.295  0.00  0.00    +0.000 C 
ATOM     11  C   UNL     1       1.685   4.569  19.121  0.00  0.00    +0.000 C 
ATOM     12  C   UNL     1       2.822   5.598  19.513  0.00  0.00    +0.000 C 
ATOM     13  C   UNL     1       4.274   5.122  19.164  0.00  0.00    +0.000 C 
ATOM     14  C   UNL     1       4.294   3.818  18.350  0.00  0.00    +0.000 C 
ATOM     15  C   UNL     1       3.180   3.771  17.267  0.00  0.00    +0.000 C 
ATOM     16  C   UNL     1       2.263   3.317  18.433  0.00  0.00    +0.000 C 
ATOM     17  C   UNL     1       3.553   2.612  19.046  0.00  0.00    +0.000 C 
ATOM     18  C   UNL     1       3.751   2.505  20.561  0.00  0.00    +0.000 C 
ATOM     19  C   UNL     1       3.845   1.216  18.456  0.00  0.00    +0.000 C 
ENDBRANCH   1  12
BRANCH   7  20
ATOM     20  C   UNL     1       0.168   9.728  20.123  0.00  0.00    +0.000 C 
BRANCH  20  21
ATOM     21  C   UNL     1      -0.224  11.136  19.631  0.00  0.00    +0.000 C 
BRANCH  21  22
ATOM     22  C   UNL     1      -1.521  11.135  18.852  0.00  0.00    +0.000 A 
ATOM     23  C   UNL     1      -2.642  11.821  19.349  0.00  0.00    +0.000 A 
ATOM     24  C   UNL     1      -3.843  11.826  18.630  0.00  0.00    +0.000 A 
ATOM     25  C   UNL     1      -3.938  11.136  17.421  0.00  0.00    +0.000 A 
ATOM     26  C   UNL     1      -2.830  10.448  16.930  0.00  0.00    +0.000 A 
ATOM     27 CL   UNL     1      -2.945   9.587  15.444  0.00  0.00    +0.000 Cl
ATOM     28  C   UNL     1      -1.626  10.444  17.639  0.00  0.00    +0.000 A 
ENDBRANCH  21  22
ENDBRANCH  20  21
ENDBRANCH   7  20
TORSDOF 4
ENDMDL
MODEL 6
REMARK VINA RESULT:      -7.3      6.317      9.744
REMARK  Name = 
REMARK  7 active torsions:
REMARK  status: ('A' for Active; 'I' for Inactive)
REMARK    1  A    between atoms: C_1  and  C_2
REMARK    2  A    between atoms: C_3  and  N_4
REMARK    3  A    between atoms: N_10  and  C_11
REMARK    4  A    between atoms: C_11  and  C_12
REMARK    5  A    between atoms: C_12  and  C_13
REMARK    6  A    between atoms: C_26  and  C_27
REMARK    7  A    between atoms: C_26  and  C_28
REMARK                            x       y       z     vdW  Elec       q    Type
REMARK                         _______ _______ _______ _____ _____    ______ ____
ROOT
ATOM      1  N   UNL     1       2.220   7.543  19.214  0.00  0.00    +0.000 N 
ATOM      2  C   UNL     1       2.459   8.223  18.033  0.00  0.00    +0.000 C 
ATOM      3  O   UNL     1       3.082   7.746  17.084  0.00  0.00    +0.000 OA
ATOM      4  C   UNL     1       1.967   9.616  17.903  0.00  0.00    +0.000 C 
ATOM      5  C   UNL     1       1.081  10.117  18.975  0.00  0.00    +0.000 C 
ATOM      6  O   UNL     1       0.781  11.311  18.989  0.00  0.00    +0.000 OA
ATOM      7  N   UNL     1       0.657   9.196  19.901  0.00  0.00    +0.000 N 
ATOM      8  C   UNL     1       1.499   8.134  20.249  0.00  0.00    +0.000 C 
ATOM      9  O   UNL     1       1.599   7.781  21.424  0.00  0.00    +0.000 OA
ENDROOT
BRANCH   1  12
ATOM     10  C   UNL     1       1.933   4.595  21.235  0.00  0.00    +0.000 C 
ATOM     11  C   UNL     1       1.841   5.043  19.765  0.00  0.00    +0.000 C 
ATOM     12  C   UNL     1       2.863   6.175  19.345  0.00  0.00    +0.000 C 
ATOM     13  C   UNL     1       3.836   5.771  18.184  0.00  0.00    +0.000 C 
ATOM     14  C   UNL     1       3.489   4.408  17.564  0.00  0.00    +0.000 C 
ATOM     15  C   UNL     1       1.957   4.196  17.403  0.00  0.00    +0.000 C 
ATOM     16  C   UNL     1       2.002   3.780  18.897  0.00  0.00    +0.000 C 
ATOM     17  C   UNL     1       3.462   3.217  18.597  0.00  0.00    +0.000 C 
ATOM     18  C   UNL     1       4.557   3.250  19.667  0.00  0.00    +0.000 C 
ATOM     19  C   UNL     1       3.474   1.800  17.986  0.00  0.00    +0.000 C 
ENDBRANCH   1  12
BRANCH   7  20
ATOM     20  C   UNL     1      -0.290   9.635  20.946  0.00  0.00    +0.000 C 
BRANCH  20  21
ATOM     21  C   UNL     1       0.265  10.558  22.050  0.00  0.00    +0.000 C 
BRANCH  21  22
ATOM     22  C   UNL     1      -0.673  11.700  22.374  0.00  0.00    +0.000 A 
ATOM     23  C   UNL     1      -0.395  12.995  21.907  0.00  0.00    +0.000 A 
ATOM     24  C   UNL     1      -1.262  14.053  22.202  0.00  0.00    +0.000 A 
ATOM     25  C   UNL     1      -2.402  13.830  22.975  0.00  0.00    +0.000 A 
ATOM     26  C   UNL     1      -2.676  12.547  23.446  0.00  0.00    +0.000 A 
ATOM     27 CL   UNL     1      -4.075  12.269  24.409  0.00  0.00    +0.000 Cl
ATOM     28  C   UNL     1      -1.818  11.485  23.152  0.00  0.00    +0.000 A 
ENDBRANCH  21  22
ENDBRANCH  20  21
ENDBRANCH   7  20
TORSDOF 4
ENDMDL
MODEL 7
REMARK VINA RESULT:      -7.1      6.028      9.415
REMARK  Name = 
REMARK  7 active torsions:
REMARK  status: ('A' for Active; 'I' for Inactive)
REMARK    1  A    between atoms: C_1  and  C_2
REMARK    2  A    between atoms: C_3  and  N_4
REMARK    3  A    between atoms: N_10  and  C_11
REMARK    4  A    between atoms: C_11  and  C_12
REMARK    5  A    between atoms: C_12  and  C_13
REMARK    6  A    between atoms: C_26  and  C_27
REMARK    7  A    between atoms: C_26  and  C_28
REMARK                            x       y       z     vdW  Elec       q    Type
REMARK                         _______ _______ _______ _____ _____    ______ ____
ROOT
ATOM      1  N   UNL     1       2.327   7.142  19.258  0.00  0.00    +0.000 N 
ATOM      2  C   UNL     1       2.780   7.707  18.079  0.00  0.00    +0.000 C 
ATOM      3  O   UNL     1       3.451   7.100  17.243  0.00  0.00    +0.000 OA
ATOM      4  C   UNL     1       2.472   9.133  17.811  0.00  0.00    +0.000 C 
ATOM      5  C   UNL     1       1.531   9.801  18.734  0.00  0.00    +0.000 C 
ATOM      6  O   UNL     1       1.372  11.019  18.643  0.00  0.00    +0.000 OA
ATOM      7  N   UNL     1       0.896   8.999  19.651  0.00  0.00    +0.000 N 
ATOM      8  C   UNL     1       1.563   7.879  20.160  0.00  0.00    +0.000 C 
ATOM      9  O   UNL     1       1.482   7.600  21.356  0.00  0.00    +0.000 OA
ENDROOT
BRANCH   1  12
ATOM     10  C   UNL     1       1.028   4.097  20.637  0.00  0.00    +0.000 C 
ATOM     11  C   UNL     1       1.648   4.646  19.339  0.00  0.00    +0.000 C 
ATOM     12  C   UNL     1       2.786   5.725  19.545  0.00  0.00    +0.000 C 
ATOM     13  C   UNL     1       4.174   5.327  18.933  0.00  0.00    +0.000 C 
ATOM     14  C   UNL     1       4.109   4.037  18.101  0.00  0.00    +0.000 C 
ATOM     15  C   UNL     1       2.823   3.949  17.231  0.00  0.00    +0.000 C 
ATOM     16  C   UNL     1       2.152   3.434  18.531  0.00  0.00    +0.000 C 
ATOM     17  C   UNL     1       3.562   2.786  18.890  0.00  0.00    +0.000 C 
ATOM     18  C   UNL     1       4.032   2.669  20.343  0.00  0.00    +0.000 C 
ATOM     19  C   UNL     1       3.809   1.415  18.227  0.00  0.00    +0.000 C 
ENDBRANCH   1  12
BRANCH   7  20
ATOM     20  C   UNL     1      -0.109   9.610  20.544  0.00  0.00    +0.000 C 
BRANCH  20  21
ATOM     21  C   UNL     1       0.410  10.598  21.608  0.00  0.00    +0.000 C 
BRANCH  21  22
ATOM     22  C   UNL     1      -0.624  11.638  21.983  0.00  0.00    +0.000 A 
ATOM     23  C   UNL     1      -1.552  11.375  23.004  0.00  0.00    +0.000 A 
ATOM     24  C   UNL     1      -2.507  12.336  23.355  0.00  0.00    +0.000 A 
ATOM     25  C   UNL     1      -2.552  13.557  22.682  0.00  0.00    +0.000 A 
ATOM     26  C   UNL     1      -1.637  13.818  21.663  0.00  0.00    +0.000 A 
ATOM     27 CL   UNL     1      -1.695  15.319  20.824  0.00  0.00    +0.000 Cl
ATOM     28  C   UNL     1      -0.677  12.866  21.311  0.00  0.00    +0.000 A 
ENDBRANCH  21  22
ENDBRANCH  20  21
ENDBRANCH   7  20
TORSDOF 4
ENDMDL
MODEL 8
REMARK VINA RESULT:      -7.1      4.085      6.582
REMARK  Name = 
REMARK  7 active torsions:
REMARK  status: ('A' for Active; 'I' for Inactive)
REMARK    1  A    between atoms: C_1  and  C_2
REMARK    2  A    between atoms: C_3  and  N_4
REMARK    3  A    between atoms: N_10  and  C_11
REMARK    4  A    between atoms: C_11  and  C_12
REMARK    5  A    between atoms: C_12  and  C_13
REMARK    6  A    between atoms: C_26  and  C_27
REMARK    7  A    between atoms: C_26  and  C_28
REMARK                            x       y       z     vdW  Elec       q    Type
REMARK                         _______ _______ _______ _____ _____    ______ ____
ROOT
ATOM      1  N   UNL     1       5.311   5.276  18.182  0.00  0.00    +0.000 N 
ATOM      2  C   UNL     1       5.132   4.982  16.842  0.00  0.00    +0.000 C 
ATOM      3  O   UNL     1       4.161   4.366  16.401  0.00  0.00    +0.000 OA
ATOM      4  C   UNL     1       6.177   5.403  15.877  0.00  0.00    +0.000 C 
ATOM      5  C   UNL     1       7.249   6.282  16.390  0.00  0.00    +0.000 C 
ATOM      6  O   UNL     1       8.217   6.523  15.668  0.00  0.00    +0.000 OA
ATOM      7  N   UNL     1       7.087   6.768  17.664  0.00  0.00    +0.000 N 
ATOM      8  C   UNL     1       6.427   5.986  18.619  0.00  0.00    +0.000 C 
ATOM      9  O   UNL     1       6.853   5.925  19.772  0.00  0.00    +0.000 OA
ENDROOT
BRANCH   1  12
ATOM     10  C   UNL     1       2.443   6.359  20.044  0.00  0.00    +0.000 C 
ATOM     11  C   UNL     1       2.844   5.339  18.962  0.00  0.00    +0.000 C 
ATOM     12  C   UNL     1       4.282   4.704  19.140  0.00  0.00    +0.000 C 
ATOM     13  C   UNL     1       4.288   3.143  19.285  0.00  0.00    +0.000 C 
ATOM     14  C   UNL     1       2.902   2.519  19.053  0.00  0.00    +0.000 C 
ATOM     15  C   UNL     1       2.134   3.187  17.878  0.00  0.00    +0.000 C 
ATOM     16  C   UNL     1       1.745   4.259  18.930  0.00  0.00    +0.000 C 
ATOM     17  C   UNL     1       1.774   3.080  20.001  0.00  0.00    +0.000 C 
ATOM     18  C   UNL     1       2.202   3.339  21.450  0.00  0.00    +0.000 C 
ATOM     19  C   UNL     1       0.474   2.253  20.058  0.00  0.00    +0.000 C 
ENDBRANCH   1  12
BRANCH   7  20
ATOM     20  C   UNL     1       8.095   7.710  18.190  0.00  0.00    +0.000 C 
BRANCH  20  21
ATOM     21  C   UNL     1       7.981   9.181  17.739  0.00  0.00    +0.000 C 
BRANCH  21  22
ATOM     22  C   UNL     1       8.945  10.087  18.473  0.00  0.00    +0.000 A 
ATOM     23  C   UNL     1      10.074  10.598  17.811  0.00  0.00    +0.000 A 
ATOM     24  C   UNL     1      10.966  11.439  18.486  0.00  0.00    +0.000 A 
ATOM     25  C   UNL     1      10.748  11.763  19.826  0.00  0.00    +0.000 A 
ATOM     26  C   UNL     1       9.633  11.250  20.486  0.00  0.00    +0.000 A 
ATOM     27 CL   UNL     1       9.364  11.638  22.140  0.00  0.00    +0.000 Cl
ATOM     28  C   UNL     1       8.734  10.415  19.818  0.00  0.00    +0.000 A 
ENDBRANCH  21  22
ENDBRANCH  20  21
ENDBRANCH   7  20
TORSDOF 4
ENDMDL
MODEL 9
REMARK VINA RESULT:      -7.1      5.015      8.356
REMARK  Name = 
REMARK  7 active torsions:
REMARK  status: ('A' for Active; 'I' for Inactive)
REMARK    1  A    between atoms: C_1  and  C_2
REMARK    2  A    between atoms: C_3  and  N_4
REMARK    3  A    between atoms: N_10  and  C_11
REMARK    4  A    between atoms: C_11  and  C_12
REMARK    5  A    between atoms: C_12  and  C_13
REMARK    6  A    between atoms: C_26  and  C_27
REMARK    7  A    between atoms: C_26  and  C_28
REMARK                            x       y       z     vdW  Elec       q    Type
REMARK                         _______ _______ _______ _____ _____    ______ ____
ROOT
ATOM      1  N   UNL     1       3.367   6.201  19.116  0.00  0.00    +0.000 N 
ATOM      2  C   UNL     1       2.868   5.471  20.180  0.00  0.00    +0.000 C 
ATOM      3  O   UNL     1       3.363   4.415  20.577  0.00  0.00    +0.000 OA
ATOM      4  C   UNL     1       1.652   5.964  20.872  0.00  0.00    +0.000 C 
ATOM      5  C   UNL     1       1.166   7.309  20.498  0.00  0.00    +0.000 C 
ATOM      6  O   UNL     1       0.077   7.689  20.928  0.00  0.00    +0.000 OA
ATOM      7  N   UNL     1       1.980   8.049  19.675  0.00  0.00    +0.000 N 
ATOM      8  C   UNL     1       2.767   7.395  18.721  0.00  0.00    +0.000 C 
ATOM      9  O   UNL     1       2.883   7.861  17.587  0.00  0.00    +0.000 OA
ENDROOT
BRANCH   1  12
ATOM     10  C   UNL     1       4.144   3.184  17.340  0.00  0.00    +0.000 C 
ATOM     11  C   UNL     1       4.071   4.707  17.124  0.00  0.00    +0.000 C 
ATOM     12  C   UNL     1       4.527   5.582  18.361  0.00  0.00    +0.000 C 
ATOM     13  C   UNL     1       5.732   6.541  18.067  0.00  0.00    +0.000 C 
ATOM     14  C   UNL     1       6.122   6.567  16.580  0.00  0.00    +0.000 C 
ATOM     15  C   UNL     1       4.887   6.559  15.636  0.00  0.00    +0.000 C 
ATOM     16  C   UNL     1       4.901   5.025  15.865  0.00  0.00    +0.000 C 
ATOM     17  C   UNL     1       6.484   5.153  15.982  0.00  0.00    +0.000 C 
ATOM     18  C   UNL     1       7.285   4.233  16.909  0.00  0.00    +0.000 C 
ATOM     19  C   UNL     1       7.215   5.167  14.624  0.00  0.00    +0.000 C 
ENDBRANCH   1  12
BRANCH   7  20
ATOM     20  C   UNL     1       1.572   9.427  19.337  0.00  0.00    +0.000 C 
BRANCH  20  21
ATOM     21  C   UNL     1       0.639   9.603  18.122  0.00  0.00    +0.000 C 
BRANCH  21  22
ATOM     22  C   UNL     1      -0.591  10.419  18.452  0.00  0.00    +0.000 A 
ATOM     23  C   UNL     1      -0.628  11.199  19.619  0.00  0.00    +0.000 A 
ATOM     24  C   UNL     1      -1.763  11.959  19.926  0.00  0.00    +0.000 A 
ATOM     25  C   UNL     1      -2.872  11.934  19.080  0.00  0.00    +0.000 A 
ATOM     26  C   UNL     1      -2.841  11.154  17.925  0.00  0.00    +0.000 A 
ATOM     27 CL   UNL     1      -4.210  11.112  16.883  0.00  0.00    +0.000 Cl
ATOM     28  C   UNL     1      -1.710  10.398  17.609  0.00  0.00    +0.000 A 
ENDBRANCH  21  22
ENDBRANCH  20  21
ENDBRANCH   7  20
TORSDOF 4
ENDMDL
