MODEL 1
REMARK VINA RESULT:      -8.7      0.000      0.000
REMARK  Name = 
REMARK  5 active torsions:
REMARK  status: ('A' for Active; 'I' for Inactive)
REMARK    1  A    between atoms: C_1  and  N_2
REMARK    2  A    between atoms: N_2  and  C_3
REMARK    3  A    between atoms: C_3  and  C_4
REMARK    4  A    between atoms: C_11  and  C_13
REMARK    5  A    between atoms: N_15  and  C_16
REMARK                            x       y       z     vdW  Elec       q    Type
REMARK                         _______ _______ _______ _____ _____    ______ ____
ROOT
ATOM      1  C   UNL     1       2.111   4.632  20.042  0.00  0.00    +0.000 C 
ATOM      2  O   UNL     1       1.033   4.385  19.516  0.00  0.00    +0.000 OA
ATOM      3  N   UNL     1       2.759   5.855  20.121  0.00  0.00    +0.000 N 
ATOM      4  H   UNL     1       3.737   5.811  20.396  0.00  0.00    +0.000 HD
ENDROOT
BRANCH   3   5
ATOM      5  C   UNL     1       2.248   7.069  19.623  0.00  0.00    +0.000 A 
ATOM      6  C   UNL     1       2.429   7.465  18.292  0.00  0.00    +0.000 A 
ATOM      7  C   UNL     1       1.975   8.704  17.844  0.00  0.00    +0.000 A 
ATOM      8  C   UNL     1       1.351   9.565  18.734  0.00  0.00    +0.000 A 
ATOM      9  C   UNL     1       1.120   9.176  20.059  0.00  0.00    +0.000 A 
ATOM     10  C   UNL     1       1.544   7.910  20.492  0.00  0.00    +0.000 A 
ATOM     11  C   UNL     1       0.357  10.113  20.957  0.00  0.00    +0.000 C 
ATOM     12  C   UNL     1       0.668  11.563  20.611  0.00  0.00    +0.000 C 
ATOM     13  C   UNL     1       0.529  11.828  19.130  0.00  0.00    +0.000 C 
ATOM     14  O   UNL     1       0.168  12.915  18.684  0.00  0.00    +0.000 OA
ATOM     15  N   UNL     1       0.950  10.829  18.296  0.00  0.00    +0.000 N 
ATOM     16  H   UNL     1       1.003  11.066  17.313  0.00  0.00    +0.000 HD
ENDBRANCH   3   5
BRANCH   1  19
ATOM     17  C   UNL     1       4.731   1.880  20.515  0.00  0.00    +0.000 C 
ATOM     18  N   UNL     1       3.907   2.890  19.878  0.00  0.00    +0.000 N 
ATOM     19  C   UNL     1       2.909   3.479  20.655  0.00  0.00    +0.000 C 
ATOM     20  O   UNL     1       2.616   3.135  21.799  0.00  0.00    +0.000 OA
BRANCH  18  21
ATOM     21  C   UNL     1       4.098   3.139  18.448  0.00  0.00    +0.000 C 
BRANCH  21  22
ATOM     22  C   UNL     1       5.124   4.197  18.129  0.00  0.00    +0.000 A 
ATOM     23  C   UNL     1       5.893   4.781  19.149  0.00  0.00    +0.000 A 
ATOM     24  C   UNL     1       6.914   5.689  18.843  0.00  0.00    +0.000 A 
ATOM     25  C   UNL     1       7.172   6.033  17.516  0.00  0.00    +0.000 A 
ATOM     26  C   UNL     1       6.407   5.473  16.497  0.00  0.00    +0.000 A 
ATOM     27  C   UNL     1       5.401   4.561  16.808  0.00  0.00    +0.000 A 
ATOM     28  F   UNL     1       4.715   4.006  15.799  0.00  0.00    +0.000 F 
ENDBRANCH  21  22
ENDBRANCH  18  21
ENDBRANCH   1  19
TORSDOF 4
ENDMDL
MODEL 2
REMARK VINA RESULT:      -8.5      3.203      7.912
REMARK  Name = 
REMARK  5 active torsions:
REMARK  status: ('A' for Active; 'I' for Inactive)
REMARK    1  A    between atoms: C_1  and  N_2
REMARK    2  A    between atoms: N_2  and  C_3
REMARK    3  A    between atoms: C_3  and  C_4
REMARK    4  A    between atoms: C_11  and  C_13
REMARK    5  A    between atoms: N_15  and  C_16
REMARK                            x       y       z     vdW  Elec       q    Type
REMARK                         _______ _______ _______ _____ _____    ______ ____
ROOT
ATOM      1  C   UNL     1       0.104   8.877  21.487  0.00  0.00    +0.000 C 
ATOM      2  O   UNL     1      -0.834   8.090  21.505  0.00  0.00    +0.000 OA
ATOM      3  N   UNL     1       1.357   8.696  20.924  0.00  0.00    +0.000 N 
ATOM      4  H   UNL     1       2.063   9.370  21.208  0.00  0.00    +0.000 HD
ENDROOT
BRANCH   3   5
ATOM      5  C   UNL     1       1.761   7.547  20.217  0.00  0.00    +0.000 A 
ATOM      6  C   UNL     1       2.387   7.621  18.967  0.00  0.00    +0.000 A 
ATOM      7  C   UNL     1       2.712   6.467  18.256  0.00  0.00    +0.000 A 
ATOM      8  C   UNL     1       2.392   5.227  18.787  0.00  0.00    +0.000 A 
ATOM      9  C   UNL     1       1.804   5.123  20.054  0.00  0.00    +0.000 A 
ATOM     10  C   UNL     1       1.518   6.289  20.781  0.00  0.00    +0.000 A 
ATOM     11  C   UNL     1       1.563   3.749  20.620  0.00  0.00    +0.000 C 
ATOM     12  C   UNL     1       1.213   2.764  19.513  0.00  0.00    +0.000 C 
ATOM     13  C   UNL     1       2.201   2.829  18.372  0.00  0.00    +0.000 C 
ATOM     14  O   UNL     1       2.492   1.848  17.692  0.00  0.00    +0.000 OA
ATOM     15  N   UNL     1       2.666   4.075  18.047  0.00  0.00    +0.000 N 
ATOM     16  H   UNL     1       3.201   4.138  17.189  0.00  0.00    +0.000 HD
ENDBRANCH   3   5
BRANCH   1  19
ATOM     17  C   UNL     1      -0.427  12.616  22.124  0.00  0.00    +0.000 C 
ATOM     18  N   UNL     1      -0.162  11.371  21.430  0.00  0.00    +0.000 N 
ATOM     19  C   UNL     1      -0.052  10.218  22.209  0.00  0.00    +0.000 C 
ATOM     20  O   UNL     1      -0.067  10.199  23.438  0.00  0.00    +0.000 OA
BRANCH  18  21
ATOM     21  C   UNL     1       0.088  11.421  19.988  0.00  0.00    +0.000 C 
BRANCH  21  22
ATOM     22  C   UNL     1      -1.118  11.121  19.134  0.00  0.00    +0.000 A 
ATOM     23  C   UNL     1      -2.320  11.825  19.317  0.00  0.00    +0.000 A 
ATOM     24  C   UNL     1      -3.407  11.617  18.460  0.00  0.00    +0.000 A 
ATOM     25  C   UNL     1      -3.313  10.696  17.417  0.00  0.00    +0.000 A 
ATOM     26  C   UNL     1      -2.133   9.981  17.234  0.00  0.00    +0.000 A 
ATOM     27  C   UNL     1      -1.051  10.201  18.083  0.00  0.00    +0.000 A 
ATOM     28  F   UNL     1       0.085   9.528  17.850  0.00  0.00    +0.000 F 
ENDBRANCH  21  22
ENDBRANCH  18  21
ENDBRANCH   1  19
TORSDOF 4
ENDMDL
MODEL 3
REMARK VINA RESULT:      -8.3      3.533      6.365
REMARK  Name = 
REMARK  5 active torsions:
REMARK  status: ('A' for Active; 'I' for Inactive)
REMARK    1  A    between atoms: C_1  and  N_2
REMARK    2  A    between atoms: N_2  and  C_3
REMARK    3  A    between atoms: C_3  and  C_4
REMARK    4  A    between atoms: C_11  and  C_13
REMARK    5  A    between atoms: N_15  and  C_16
REMARK                            x       y       z     vdW  Elec       q    Type
REMARK                         _______ _______ _______ _____ _____    ______ ____
ROOT
ATOM      1  C   UNL     1       3.979   2.665  19.410  0.00  0.00    +0.000 C 
ATOM      2  O   UNL     1       3.856   1.813  18.539  0.00  0.00    +0.000 OA
ATOM      3  N   UNL     1       4.772   3.802  19.384  0.00  0.00    +0.000 N 
ATOM      4  H   UNL     1       4.907   4.257  20.283  0.00  0.00    +0.000 HD
ENDROOT
BRANCH   3   5
ATOM      5  C   UNL     1       5.568   4.200  18.293  0.00  0.00    +0.000 A 
ATOM      6  C   UNL     1       6.546   5.195  18.408  0.00  0.00    +0.000 A 
ATOM      7  C   UNL     1       7.270   5.622  17.296  0.00  0.00    +0.000 A 
ATOM      8  C   UNL     1       7.004   5.065  16.054  0.00  0.00    +0.000 A 
ATOM      9  C   UNL     1       6.061   4.039  15.919  0.00  0.00    +0.000 A 
ATOM     10  C   UNL     1       5.364   3.587  17.051  0.00  0.00    +0.000 A 
ATOM     11  C   UNL     1       5.878   3.409  14.565  0.00  0.00    +0.000 C 
ATOM     12  C   UNL     1       6.076   4.439  13.460  0.00  0.00    +0.000 C 
ATOM     13  C   UNL     1       7.357   5.218  13.644  0.00  0.00    +0.000 C 
ATOM     14  O   UNL     1       8.012   5.648  12.697  0.00  0.00    +0.000 OA
ATOM     15  N   UNL     1       7.690   5.536  14.933  0.00  0.00    +0.000 N 
ATOM     16  H   UNL     1       8.458   6.188  15.044  0.00  0.00    +0.000 HD
ENDBRANCH   3   5
BRANCH   1  19
ATOM     17  C   UNL     1       1.150   2.440  21.982  0.00  0.00    +0.000 C 
ATOM     18  N   UNL     1       1.863   2.739  20.755  0.00  0.00    +0.000 N 
ATOM     19  C   UNL     1       3.232   2.473  20.733  0.00  0.00    +0.000 C 
ATOM     20  O   UNL     1       3.889   2.097  21.702  0.00  0.00    +0.000 OA
BRANCH  18  21
ATOM     21  C   UNL     1       1.132   3.404  19.674  0.00  0.00    +0.000 C 
BRANCH  21  22
ATOM     22  C   UNL     1       1.554   4.829  19.418  0.00  0.00    +0.000 A 
ATOM     23  C   UNL     1       1.594   5.764  20.466  0.00  0.00    +0.000 A 
ATOM     24  C   UNL     1       2.081   7.059  20.248  0.00  0.00    +0.000 A 
ATOM     25  C   UNL     1       2.523   7.439  18.982  0.00  0.00    +0.000 A 
ATOM     26  C   UNL     1       2.475   6.526  17.932  0.00  0.00    +0.000 A 
ATOM     27  C   UNL     1       2.001   5.236  18.158  0.00  0.00    +0.000 A 
ATOM     28  F   UNL     1       2.011   4.369  17.135  0.00  0.00    +0.000 F 
ENDBRANCH  21  22
ENDBRANCH  18  21
ENDBRANCH   1  19
TORSDOF 4
ENDMDL
MODEL 4
REMARK VINA RESULT:      -8.3      1.350      1.730
REMARK  Name = 
REMARK  5 active torsions:
REMARK  status: ('A' for Active; 'I' for Inactive)
REMARK    1  A    between atoms: C_1  and  N_2
REMARK    2  A    between atoms: N_2  and  C_3
REMARK    3  A    between atoms: C_3  and  C_4
REMARK    4  A    between atoms: C_11  and  C_13
REMARK    5  A    between atoms: N_15  and  C_16
REMARK                            x       y       z     vdW  Elec       q    Type
REMARK                         _______ _______ _______ _____ _____    ______ ____
ROOT
ATOM      1  C   UNL     1       1.745   4.805  20.627  0.00  0.00    +0.000 C 
ATOM      2  O   UNL     1       0.554   4.589  20.444  0.00  0.00    +0.000 OA
ATOM      3  N   UNL     1       2.404   6.025  20.596  0.00  0.00    +0.000 N 
ATOM      4  H   UNL     1       3.418   5.970  20.549  0.00  0.00    +0.000 HD
ENDROOT
BRANCH   3   5
ATOM      5  C   UNL     1       1.780   7.269  20.379  0.00  0.00    +0.000 A 
ATOM      6  C   UNL     1       1.977   8.008  19.206  0.00  0.00    +0.000 A 
ATOM      7  C   UNL     1       1.406   9.269  19.048  0.00  0.00    +0.000 A 
ATOM      8  C   UNL     1       0.646   9.808  20.076  0.00  0.00    +0.000 A 
ATOM      9  C   UNL     1       0.399   9.073  21.241  0.00  0.00    +0.000 A 
ATOM     10  C   UNL     1       0.945   7.786  21.376  0.00  0.00    +0.000 A 
ATOM     11  C   UNL     1      -0.507   9.669  22.285  0.00  0.00    +0.000 C 
ATOM     12  C   UNL     1      -0.348  11.182  22.335  0.00  0.00    +0.000 C 
ATOM     13  C   UNL     1      -0.448  11.802  20.960  0.00  0.00    +0.000 C 
ATOM     14  O   UNL     1      -0.910  12.926  20.773  0.00  0.00    +0.000 OA
ATOM     15  N   UNL     1       0.124  11.095  19.937  0.00  0.00    +0.000 N 
ATOM     16  H   UNL     1       0.195  11.580  19.051  0.00  0.00    +0.000 HD
ENDBRANCH   3   5
BRANCH   1  19
ATOM     17  C   UNL     1       4.479   2.174  20.113  0.00  0.00    +0.000 C 
ATOM     18  N   UNL     1       3.522   3.226  19.828  0.00  0.00    +0.000 N 
ATOM     19  C   UNL     1       2.677   3.615  20.868  0.00  0.00    +0.000 C 
ATOM     20  O   UNL     1       2.622   3.069  21.968  0.00  0.00    +0.000 OA
BRANCH  18  21
ATOM     21  C   UNL     1       3.424   3.721  18.453  0.00  0.00    +0.000 C 
BRANCH  21  22
ATOM     22  C   UNL     1       4.739   4.139  17.846  0.00  0.00    +0.000 A 
ATOM     23  C   UNL     1       5.115   3.690  16.569  0.00  0.00    +0.000 A 
ATOM     24  C   UNL     1       6.288   4.158  15.964  0.00  0.00    +0.000 A 
ATOM     25  C   UNL     1       7.105   5.070  16.630  0.00  0.00    +0.000 A 
ATOM     26  C   UNL     1       6.752   5.511  17.902  0.00  0.00    +0.000 A 
ATOM     27  C   UNL     1       5.578   5.051  18.493  0.00  0.00    +0.000 A 
ATOM     28  F   UNL     1       5.245   5.533  19.699  0.00  0.00    +0.000 F 
ENDBRANCH  21  22
ENDBRANCH  18  21
ENDBRANCH   1  19
TORSDOF 4
ENDMDL
MODEL 5
REMARK VINA RESULT:      -8.2      1.210      1.327
REMARK  Name = 
REMARK  5 active torsions:
REMARK  status: ('A' for Active; 'I' for Inactive)
REMARK    1  A    between atoms: C_1  and  N_2
REMARK    2  A    between atoms: N_2  and  C_3
REMARK    3  A    between atoms: C_3  and  C_4
REMARK    4  A    between atoms: C_11  and  C_13
REMARK    5  A    between atoms: N_15  and  C_16
REMARK                            x       y       z     vdW  Elec       q    Type
REMARK                         _______ _______ _______ _____ _____    ______ ____
ROOT
ATOM      1  C   UNL     1       1.892   4.577  20.503  0.00  0.00    +0.000 C 
ATOM      2  O   UNL     1       0.827   4.336  19.948  0.00  0.00    +0.000 OA
ATOM      3  N   UNL     1       2.448   5.816  20.779  0.00  0.00    +0.000 N 
ATOM      4  H   UNL     1       3.430   5.804  21.039  0.00  0.00    +0.000 HD
ENDROOT
BRANCH   3   5
ATOM      5  C   UNL     1       1.837   7.052  20.491  0.00  0.00    +0.000 A 
ATOM      6  C   UNL     1       2.083   7.747  19.301  0.00  0.00    +0.000 A 
ATOM      7  C   UNL     1       1.522   9.002  19.073  0.00  0.00    +0.000 A 
ATOM      8  C   UNL     1       0.723   9.579  20.048  0.00  0.00    +0.000 A 
ATOM      9  C   UNL     1       0.426   8.888  21.229  0.00  0.00    +0.000 A 
ATOM     10  C   UNL     1       0.963   7.607  21.434  0.00  0.00    +0.000 A 
ATOM     11  C   UNL     1      -0.520   9.524  22.212  0.00  0.00    +0.000 C 
ATOM     12  C   UNL     1      -0.359  11.038  22.212  0.00  0.00    +0.000 C 
ATOM     13  C   UNL     1      -0.401  11.607  20.812  0.00  0.00    +0.000 C 
ATOM     14  O   UNL     1      -0.851  12.723  20.564  0.00  0.00    +0.000 OA
ATOM     15  N   UNL     1       0.210  10.862  19.840  0.00  0.00    +0.000 N 
ATOM     16  H   UNL     1       0.319  11.313  18.940  0.00  0.00    +0.000 HD
ENDBRANCH   3   5
BRANCH   1  19
ATOM     17  C   UNL     1       4.628   1.898  20.426  0.00  0.00    +0.000 C 
ATOM     18  N   UNL     1       3.711   2.930  19.982  0.00  0.00    +0.000 N 
ATOM     19  C   UNL     1       2.786   3.403  20.913  0.00  0.00    +0.000 C 
ATOM     20  O   UNL     1       2.631   2.944  22.043  0.00  0.00    +0.000 OA
BRANCH  18  21
ATOM     21  C   UNL     1       3.736   3.319  18.570  0.00  0.00    +0.000 C 
BRANCH  21  22
ATOM     22  C   UNL     1       4.642   4.483  18.259  0.00  0.00    +0.000 A 
ATOM     23  C   UNL     1       6.007   4.438  18.587  0.00  0.00    +0.000 A 
ATOM     24  C   UNL     1       6.867   5.476  18.209  0.00  0.00    +0.000 A 
ATOM     25  C   UNL     1       6.374   6.576  17.509  0.00  0.00    +0.000 A 
ATOM     26  C   UNL     1       5.020   6.640  17.190  0.00  0.00    +0.000 A 
ATOM     27  C   UNL     1       4.172   5.598  17.559  0.00  0.00    +0.000 A 
ATOM     28  F   UNL     1       2.884   5.671  17.196  0.00  0.00    +0.000 F 
ENDBRANCH  21  22
ENDBRANCH  18  21
ENDBRANCH   1  19
TORSDOF 4
ENDMDL
MODEL 6
REMARK VINA RESULT:      -8.0      3.807      7.862
REMARK  Name = 
REMARK  5 active torsions:
REMARK  status: ('A' for Active; 'I' for Inactive)
REMARK    1  A    between atoms: C_1  and  N_2
REMARK    2  A    between atoms: N_2  and  C_3
REMARK    3  A    between atoms: C_3  and  C_4
REMARK    4  A    between atoms: C_11  and  C_13
REMARK    5  A    between atoms: N_15  and  C_16
REMARK                            x       y       z     vdW  Elec       q    Type
REMARK                         _______ _______ _______ _____ _____    ______ ____
ROOT
ATOM      1  C   UNL     1       0.031   8.735  21.665  0.00  0.00    +0.000 C 
ATOM      2  O   UNL     1      -0.936   7.995  21.539  0.00  0.00    +0.000 OA
ATOM      3  N   UNL     1       1.312   8.556  21.164  0.00  0.00    +0.000 N 
ATOM      4  H   UNL     1       2.023   9.163  21.563  0.00  0.00    +0.000 HD
ENDROOT
BRANCH   3   5
ATOM      5  C   UNL     1       1.716   7.470  20.365  0.00  0.00    +0.000 A 
ATOM      6  C   UNL     1       2.263   7.646  19.088  0.00  0.00    +0.000 A 
ATOM      7  C   UNL     1       2.588   6.552  18.288  0.00  0.00    +0.000 A 
ATOM      8  C   UNL     1       2.348   5.269  18.758  0.00  0.00    +0.000 A 
ATOM      9  C   UNL     1       1.842   5.064  20.047  0.00  0.00    +0.000 A 
ATOM     10  C   UNL     1       1.555   6.171  20.861  0.00  0.00    +0.000 A 
ATOM     11  C   UNL     1       1.687   3.649  20.538  0.00  0.00    +0.000 C 
ATOM     12  C   UNL     1       1.309   2.720  19.393  0.00  0.00    +0.000 C 
ATOM     13  C   UNL     1       2.224   2.896  18.203  0.00  0.00    +0.000 C 
ATOM     14  O   UNL     1       2.511   1.970  17.447  0.00  0.00    +0.000 OA
ATOM     15  N   UNL     1       2.621   4.177  17.931  0.00  0.00    +0.000 N 
ATOM     16  H   UNL     1       3.101   4.314  17.050  0.00  0.00    +0.000 HD
ENDBRANCH   3   5
BRANCH   1  19
ATOM     17  C   UNL     1      -0.921  12.277  22.766  0.00  0.00    +0.000 C 
ATOM     18  N   UNL     1      -0.678  11.128  21.915  0.00  0.00    +0.000 N 
ATOM     19  C   UNL     1      -0.119   9.999  22.515  0.00  0.00    +0.000 C 
ATOM     20  O   UNL     1       0.268   9.944  23.681  0.00  0.00    +0.000 OA
BRANCH  18  21
ATOM     21  C   UNL     1      -0.921  11.266  20.478  0.00  0.00    +0.000 C 
BRANCH  21  22
ATOM     22  C   UNL     1       0.134  12.051  19.739  0.00  0.00    +0.000 A 
ATOM     23  C   UNL     1       1.252  11.406  19.184  0.00  0.00    +0.000 A 
ATOM     24  C   UNL     1       2.178  12.119  18.414  0.00  0.00    +0.000 A 
ATOM     25  C   UNL     1       2.006  13.486  18.196  0.00  0.00    +0.000 A 
ATOM     26  C   UNL     1       0.910  14.140  18.752  0.00  0.00    +0.000 A 
ATOM     27  C   UNL     1      -0.014  13.422  19.508  0.00  0.00    +0.000 A 
ATOM     28  F   UNL     1      -1.081  14.074  19.990  0.00  0.00    +0.000 F 
ENDBRANCH  21  22
ENDBRANCH  18  21
ENDBRANCH   1  19
TORSDOF 4
ENDMDL
MODEL 7
REMARK VINA RESULT:      -8.0      2.673      4.100
REMARK  Name = 
REMARK  5 active torsions:
REMARK  status: ('A' for Active; 'I' for Inactive)
REMARK    1  A    between atoms: C_1  and  N_2
REMARK    2  A    between atoms: N_2  and  C_3
REMARK    3  A    between atoms: C_3  and  C_4
REMARK    4  A    between atoms: C_11  and  C_13
REMARK    5  A    between atoms: N_15  and  C_16
REMARK                            x       y       z     vdW  Elec       q    Type
REMARK                         _______ _______ _______ _____ _____    ______ ____
ROOT
ATOM      1  C   UNL     1       4.598   6.996  17.260  0.00  0.00    +0.000 C 
ATOM      2  O   UNL     1       5.380   7.566  18.011  0.00  0.00    +0.000 OA
ATOM      3  N   UNL     1       3.218   7.122  17.213  0.00  0.00    +0.000 N 
ATOM      4  H   UNL     1       2.735   6.405  16.678  0.00  0.00    +0.000 HD
ENDROOT
BRANCH   3   5
ATOM      5  C   UNL     1       2.463   7.988  18.026  0.00  0.00    +0.000 A 
ATOM      6  C   UNL     1       2.068   9.261  17.595  0.00  0.00    +0.000 A 
ATOM      7  C   UNL     1       1.383  10.126  18.446  0.00  0.00    +0.000 A 
ATOM      8  C   UNL     1       1.105   9.728  19.745  0.00  0.00    +0.000 A 
ATOM      9  C   UNL     1       1.451   8.445  20.188  0.00  0.00    +0.000 A 
ATOM     10  C   UNL     1       2.105   7.565  19.312  0.00  0.00    +0.000 A 
ATOM     11  C   UNL     1       1.044   8.034  21.577  0.00  0.00    +0.000 C 
ATOM     12  C   UNL     1       1.084   9.225  22.525  0.00  0.00    +0.000 C 
ATOM     13  C   UNL     1       0.345  10.416  21.960  0.00  0.00    +0.000 C 
ATOM     14  O   UNL     1      -0.243  11.228  22.670  0.00  0.00    +0.000 OA
ATOM     15  N   UNL     1       0.470  10.619  20.612  0.00  0.00    +0.000 N 
ATOM     16  H   UNL     1       0.108  11.498  20.262  0.00  0.00    +0.000 HD
ENDBRANCH   3   5
BRANCH   1  19
ATOM     17  C   UNL     1       5.685   3.665  15.715  0.00  0.00    +0.000 C 
ATOM     18  N   UNL     1       5.272   4.646  16.701  0.00  0.00    +0.000 N 
ATOM     19  C   UNL     1       5.151   5.968  16.270  0.00  0.00    +0.000 C 
ATOM     20  O   UNL     1       5.460   6.372  15.151  0.00  0.00    +0.000 OA
BRANCH  18  21
ATOM     21  C   UNL     1       5.127   4.212  18.092  0.00  0.00    +0.000 C 
BRANCH  21  22
ATOM     22  C   UNL     1       3.737   3.759  18.462  0.00  0.00    +0.000 A 
ATOM     23  C   UNL     1       3.087   2.757  17.722  0.00  0.00    +0.000 A 
ATOM     24  C   UNL     1       1.840   2.267  18.125  0.00  0.00    +0.000 A 
ATOM     25  C   UNL     1       1.220   2.777  19.265  0.00  0.00    +0.000 A 
ATOM     26  C   UNL     1       1.846   3.780  19.999  0.00  0.00    +0.000 A 
ATOM     27  C   UNL     1       3.093   4.256  19.599  0.00  0.00    +0.000 A 
ATOM     28  F   UNL     1       3.688   5.189  20.356  0.00  0.00    +0.000 F 
ENDBRANCH  21  22
ENDBRANCH  18  21
ENDBRANCH   1  19
TORSDOF 4
ENDMDL
MODEL 8
REMARK VINA RESULT:      -8.0      3.584      8.487
REMARK  Name = 
REMARK  5 active torsions:
REMARK  status: ('A' for Active; 'I' for Inactive)
REMARK    1  A    between atoms: C_1  and  N_2
REMARK    2  A    between atoms: N_2  and  C_3
REMARK    3  A    between atoms: C_3  and  C_4
REMARK    4  A    between atoms: C_11  and  C_13
REMARK    5  A    between atoms: N_15  and  C_16
REMARK                            x       y       z     vdW  Elec       q    Type
REMARK                         _______ _______ _______ _____ _____    ______ ____
ROOT
ATOM      1  C   UNL     1       1.461   9.816  18.615  0.00  0.00    +0.000 C 
ATOM      2  O   UNL     1       1.524   9.664  17.402  0.00  0.00    +0.000 OA
ATOM      3  N   UNL     1       1.717   8.879  19.605  0.00  0.00    +0.000 N 
ATOM      4  H   UNL     1       1.394   9.131  20.536  0.00  0.00    +0.000 HD
ENDROOT
BRANCH   3   5
ATOM      5  C   UNL     1       2.146   7.559  19.369  0.00  0.00    +0.000 A 
ATOM      6  C   UNL     1       2.902   7.210  18.244  0.00  0.00    +0.000 A 
ATOM      7  C   UNL     1       3.253   5.884  17.997  0.00  0.00    +0.000 A 
ATOM      8  C   UNL     1       2.830   4.893  18.870  0.00  0.00    +0.000 A 
ATOM      9  C   UNL     1       2.109   5.219  20.025  0.00  0.00    +0.000 A 
ATOM     10  C   UNL     1       1.795   6.562  20.287  0.00  0.00    +0.000 A 
ATOM     11  C   UNL     1       1.755   4.114  20.984  0.00  0.00    +0.000 C 
ATOM     12  C   UNL     1       1.483   2.817  20.234  0.00  0.00    +0.000 C 
ATOM     13  C   UNL     1       2.587   2.495  19.254  0.00  0.00    +0.000 C 
ATOM     14  O   UNL     1       2.909   1.342  18.974  0.00  0.00    +0.000 OA
ATOM     15  N   UNL     1       3.133   3.559  18.588  0.00  0.00    +0.000 N 
ATOM     16  H   UNL     1       3.757   3.331  17.824  0.00  0.00    +0.000 HD
ENDBRANCH   3   5
BRANCH   1  19
ATOM     17  C   UNL     1      -0.724  12.529  20.205  0.00  0.00    +0.000 C 
ATOM     18  N   UNL     1      -0.332  11.280  19.582  0.00  0.00    +0.000 N 
ATOM     19  C   UNL     1       0.994  11.167  19.162  0.00  0.00    +0.000 C 
ATOM     20  O   UNL     1       1.819  12.079  19.192  0.00  0.00    +0.000 OA
BRANCH  18  21
ATOM     21  C   UNL     1      -1.367  10.275  19.332  0.00  0.00    +0.000 C 
BRANCH  21  22
ATOM     22  C   UNL     1      -2.208  10.537  18.108  0.00  0.00    +0.000 A 
ATOM     23  C   UNL     1      -1.901   9.924  16.881  0.00  0.00    +0.000 A 
ATOM     24  C   UNL     1      -2.739  10.088  15.772  0.00  0.00    +0.000 A 
ATOM     25  C   UNL     1      -3.886  10.874  15.869  0.00  0.00    +0.000 A 
ATOM     26  C   UNL     1      -4.194  11.499  17.074  0.00  0.00    +0.000 A 
ATOM     27  C   UNL     1      -3.362  11.322  18.178  0.00  0.00    +0.000 A 
ATOM     28  F   UNL     1      -3.713  11.901  19.335  0.00  0.00    +0.000 F 
ENDBRANCH  21  22
ENDBRANCH  18  21
ENDBRANCH   1  19
TORSDOF 4
ENDMDL
MODEL 9
REMARK VINA RESULT:      -7.9      1.032      1.372
REMARK  Name = 
REMARK  5 active torsions:
REMARK  status: ('A' for Active; 'I' for Inactive)
REMARK    1  A    between atoms: C_1  and  N_2
REMARK    2  A    between atoms: N_2  and  C_3
REMARK    3  A    between atoms: C_3  and  C_4
REMARK    4  A    between atoms: C_11  and  C_13
REMARK    5  A    between atoms: N_15  and  C_16
REMARK                            x       y       z     vdW  Elec       q    Type
REMARK                         _______ _______ _______ _____ _____    ______ ____
ROOT
ATOM      1  C   UNL     1       2.223   4.871  19.582  0.00  0.00    +0.000 C 
ATOM      2  O   UNL     1       1.394   4.620  18.715  0.00  0.00    +0.000 OA
ATOM      3  N   UNL     1       2.668   6.116  19.999  0.00  0.00    +0.000 N 
ATOM      4  H   UNL     1       3.512   6.109  20.564  0.00  0.00    +0.000 HD
ENDROOT
BRANCH   3   5
ATOM      5  C   UNL     1       2.193   7.346  19.504  0.00  0.00    +0.000 A 
ATOM      6  C   UNL     1       2.473   7.785  18.204  0.00  0.00    +0.000 A 
ATOM      7  C   UNL     1       2.052   9.038  17.763  0.00  0.00    +0.000 A 
ATOM      8  C   UNL     1       1.362   9.870  18.631  0.00  0.00    +0.000 A 
ATOM      9  C   UNL     1       1.032   9.439  19.922  0.00  0.00    +0.000 A 
ATOM     10  C   UNL     1       1.425   8.159  20.345  0.00  0.00    +0.000 A 
ATOM     11  C   UNL     1       0.203  10.347  20.790  0.00  0.00    +0.000 C 
ATOM     12  C   UNL     1       0.537  11.807  20.516  0.00  0.00    +0.000 C 
ATOM     13  C   UNL     1       0.508  12.120  19.037  0.00  0.00    +0.000 C 
ATOM     14  O   UNL     1       0.181  13.222  18.600  0.00  0.00    +0.000 OA
ATOM     15  N   UNL     1       0.993  11.148  18.205  0.00  0.00    +0.000 N 
ATOM     16  H   UNL     1       1.119  11.416  17.237  0.00  0.00    +0.000 HD
ENDBRANCH   3   5
BRANCH   1  19
ATOM     17  C   UNL     1       4.624   1.971  20.279  0.00  0.00    +0.000 C 
ATOM     18  N   UNL     1       3.885   2.993  19.563  0.00  0.00    +0.000 N 
ATOM     19  C   UNL     1       2.926   3.706  20.283  0.00  0.00    +0.000 C 
ATOM     20  O   UNL     1       2.598   3.465  21.443  0.00  0.00    +0.000 OA
BRANCH  18  21
ATOM     21  C   UNL     1       4.108   3.128  18.122  0.00  0.00    +0.000 C 
BRANCH  21  22
ATOM     22  C   UNL     1       4.834   4.386  17.718  0.00  0.00    +0.000 A 
ATOM     23  C   UNL     1       4.481   5.074  16.544  0.00  0.00    +0.000 A 
ATOM     24  C   UNL     1       5.086   6.294  16.222  0.00  0.00    +0.000 A 
ATOM     25  C   UNL     1       6.059   6.838  17.060  0.00  0.00    +0.000 A 
ATOM     26  C   UNL     1       6.428   6.160  18.218  0.00  0.00    +0.000 A 
ATOM     27  C   UNL     1       5.814   4.952  18.539  0.00  0.00    +0.000 A 
ATOM     28  F   UNL     1       6.161   4.349  19.685  0.00  0.00    +0.000 F 
ENDBRANCH  21  22
ENDBRANCH  18  21
ENDBRANCH   1  19
TORSDOF 4
ENDMDL
