MODEL 1
REMARK VINA RESULT:      -8.1      0.000      0.000
REMARK  Name = 
REMARK  6 active torsions:
REMARK  status: ('A' for Active; 'I' for Inactive)
REMARK    1  A    between atoms: C_1  and  N_2
REMARK    2  A    between atoms: C_7  and  C_8
REMARK    3  A    between atoms: N_13  and  C_14
REMARK    4  A    between atoms: C_16  and  C_17
REMARK    5  A    between atoms: N_20  and  C_21
REMARK    6  A    between atoms: C_23  and  C_24
REMARK                            x       y       z     vdW  Elec       q    Type
REMARK                         _______ _______ _______ _____ _____    ______ ____
ROOT
ATOM      1  C   UNL     1       3.665  15.507  17.385  0.00  0.00    +0.000 C 
ATOM      2  N   UNL     1       2.922  14.319  17.705  0.00  0.00    +0.000 N 
ATOM      3  C   UNL     1       2.200  14.232  18.871  0.00  0.00    +0.000 C 
ATOM      4  O   UNL     1       2.085  15.068  19.752  0.00  0.00    +0.000 OA
ATOM      5  N   UNL     1       1.487  13.022  18.934  0.00  0.00    +0.000 N 
ATOM      6  N   UNL     1       2.032  11.827  18.475  0.00  0.00    +0.000 NA
ATOM      7  C   UNL     1       1.119  10.888  18.808  0.00  0.00    +0.000 A 
ATOM      8  C   UNL     1       1.413   9.437  18.730  0.00  0.00    +0.000 C 
ATOM      9  C   UNL     1      -0.064  11.494  19.224  0.00  0.00    +0.000 A 
ATOM     10  C   UNL     1       0.238  12.808  19.400  0.00  0.00    +0.000 A 
ATOM     11  C   UNL     1      -0.844  13.541  19.941  0.00  0.00    +0.000 C 
ATOM     12  O   UNL     1      -0.903  14.747  20.117  0.00  0.00    +0.000 OA
ATOM     13  N   UNL     1      -1.841  12.547  20.193  0.00  0.00    +0.000 N 
ATOM     14  C   UNL     1      -1.456  11.222  19.610  0.00  0.00    +0.000 C 
ATOM     15  H   UNL     1       2.890  13.536  17.057  0.00  0.00    +0.000 HD
ENDROOT
BRANCH  13  16
ATOM     16  C   UNL     1      -3.032  12.738  20.890  0.00  0.00    +0.000 A 
ATOM     17  C   UNL     1      -3.071  12.458  22.318  0.00  0.00    +0.000 A 
ATOM     18  C   UNL     1      -4.155  12.690  23.074  0.00  0.00    +0.000 A 
ATOM     19  C   UNL     1      -4.189  12.456  24.551  0.00  0.00    +0.000 C 
ATOM     20  C   UNL     1      -5.397  13.215  22.433  0.00  0.00    +0.000 A 
ATOM     21  O   UNL     1      -6.400  13.411  23.114  0.00  0.00    +0.000 OA
ATOM     22  N   UNL     1      -5.315  13.447  21.063  0.00  0.00    +0.000 N 
ATOM     23  C   UNL     1      -6.479  13.969  20.361  0.00  0.00    +0.000 C 
ATOM     24  C   UNL     1      -4.159  13.216  20.331  0.00  0.00    +0.000 A 
ENDBRANCH  13  16
BRANCH  14  25
ATOM     25  C   UNL     1      -2.160  10.904  18.292  0.00  0.00    +0.000 A 
ATOM     26  C   UNL     1      -3.263  11.656  17.829  0.00  0.00    +0.000 A 
ATOM     27  C   UNL     1      -3.838  11.405  16.581  0.00  0.00    +0.000 A 
ATOM     28  C   UNL     1      -3.325  10.396  15.777  0.00  0.00    +0.000 A 
ATOM     29 CL   UNL     1      -4.001  10.118  14.219  0.00  0.00    +0.000 Cl
ATOM     30  C   UNL     1      -2.257   9.619  16.221  0.00  0.00    +0.000 A 
ATOM     31  C   UNL     1      -1.678   9.869  17.472  0.00  0.00    +0.000 A 
ENDBRANCH  14  25
TORSDOF 2
ENDMDL
MODEL 2
REMARK VINA RESULT:      -8.1      0.571      1.582
REMARK  Name = 
REMARK  6 active torsions:
REMARK  status: ('A' for Active; 'I' for Inactive)
REMARK    1  A    between atoms: C_1  and  N_2
REMARK    2  A    between atoms: C_7  and  C_8
REMARK    3  A    between atoms: N_13  and  C_14
REMARK    4  A    between atoms: C_16  and  C_17
REMARK    5  A    between atoms: N_20  and  C_21
REMARK    6  A    between atoms: C_23  and  C_24
REMARK                            x       y       z     vdW  Elec       q    Type
REMARK                         _______ _______ _______ _____ _____    ______ ____
ROOT
ATOM      1  C   UNL     1       3.678  15.626  17.311  0.00  0.00    +0.000 C 
ATOM      2  N   UNL     1       2.971  14.413  17.621  0.00  0.00    +0.000 N 
ATOM      3  C   UNL     1       2.281  14.282  18.802  0.00  0.00    +0.000 C 
ATOM      4  O   UNL     1       2.170  15.095  19.705  0.00  0.00    +0.000 OA
ATOM      5  N   UNL     1       1.599  13.054  18.854  0.00  0.00    +0.000 N 
ATOM      6  N   UNL     1       2.160  11.884  18.354  0.00  0.00    +0.000 NA
ATOM      7  C   UNL     1       1.278  10.916  18.687  0.00  0.00    +0.000 A 
ATOM      8  C   UNL     1       1.603   9.474  18.568  0.00  0.00    +0.000 C 
ATOM      9  C   UNL     1       0.092  11.484  19.147  0.00  0.00    +0.000 A 
ATOM     10  C   UNL     1       0.367  12.800  19.347  0.00  0.00    +0.000 A 
ATOM     11  C   UNL     1      -0.717  13.494  19.932  0.00  0.00    +0.000 C 
ATOM     12  O   UNL     1      -0.800  14.694  20.138  0.00  0.00    +0.000 OA
ATOM     13  N   UNL     1      -1.684  12.471  20.185  0.00  0.00    +0.000 N 
ATOM     14  C   UNL     1      -1.283  11.170  19.561  0.00  0.00    +0.000 C 
ATOM     15  H   UNL     1       2.940  13.645  16.956  0.00  0.00    +0.000 HD
ENDROOT
BRANCH  13  16
ATOM     16  C   UNL     1      -2.861  12.617  20.916  0.00  0.00    +0.000 A 
ATOM     17  C   UNL     1      -4.110  12.865  20.211  0.00  0.00    +0.000 A 
ATOM     18  C   UNL     1      -5.295  12.939  20.836  0.00  0.00    +0.000 A 
ATOM     19  C   UNL     1      -6.590  13.141  20.116  0.00  0.00    +0.000 C 
ATOM     20  C   UNL     1      -5.348  12.809  22.322  0.00  0.00    +0.000 A 
ATOM     21  O   UNL     1      -6.426  12.897  22.904  0.00  0.00    +0.000 OA
ATOM     22  N   UNL     1      -4.126  12.594  22.952  0.00  0.00    +0.000 N 
ATOM     23  C   UNL     1      -4.090  12.445  24.400  0.00  0.00    +0.000 C 
ATOM     24  C   UNL     1      -2.930  12.497  22.255  0.00  0.00    +0.000 A 
ENDBRANCH  13  16
BRANCH  14  25
ATOM     25  C   UNL     1      -2.013  10.865  18.254  0.00  0.00    +0.000 A 
ATOM     26  C   UNL     1      -2.941  11.766  17.684  0.00  0.00    +0.000 A 
ATOM     27  C   UNL     1      -3.532  11.510  16.445  0.00  0.00    +0.000 A 
ATOM     28  C   UNL     1      -3.211  10.347  15.757  0.00  0.00    +0.000 A 
ATOM     29 CL   UNL     1      -3.902  10.053  14.209  0.00  0.00    +0.000 Cl
ATOM     30  C   UNL     1      -2.323   9.426  16.310  0.00  0.00    +0.000 A 
ATOM     31  C   UNL     1      -1.729   9.681  17.552  0.00  0.00    +0.000 A 
ENDBRANCH  14  25
TORSDOF 2
ENDMDL
MODEL 3
REMARK VINA RESULT:      -7.8      2.466      6.763
REMARK  Name = 
REMARK  6 active torsions:
REMARK  status: ('A' for Active; 'I' for Inactive)
REMARK    1  A    between atoms: C_1  and  N_2
REMARK    2  A    between atoms: C_7  and  C_8
REMARK    3  A    between atoms: N_13  and  C_14
REMARK    4  A    between atoms: C_16  and  C_17
REMARK    5  A    between atoms: N_20  and  C_21
REMARK    6  A    between atoms: C_23  and  C_24
REMARK                            x       y       z     vdW  Elec       q    Type
REMARK                         _______ _______ _______ _____ _____    ______ ____
ROOT
ATOM      1  C   UNL     1      -6.362  12.385  21.669  0.00  0.00    +0.000 C 
ATOM      2  N   UNL     1      -5.317  12.024  20.750  0.00  0.00    +0.000 N 
ATOM      3  C   UNL     1      -4.422  12.964  20.296  0.00  0.00    +0.000 C 
ATOM      4  O   UNL     1      -4.375  14.153  20.565  0.00  0.00    +0.000 OA
ATOM      5  N   UNL     1      -3.441  12.374  19.481  0.00  0.00    +0.000 N 
ATOM      6  N   UNL     1      -3.750  11.357  18.583  0.00  0.00    +0.000 NA
ATOM      7  C   UNL     1      -2.599  11.138  17.910  0.00  0.00    +0.000 A 
ATOM      8  C   UNL     1      -2.547  10.307  16.683  0.00  0.00    +0.000 C 
ATOM      9  C   UNL     1      -1.545  11.804  18.530  0.00  0.00    +0.000 A 
ATOM     10  C   UNL     1      -2.120  12.649  19.426  0.00  0.00    +0.000 A 
ATOM     11  C   UNL     1      -1.173  13.490  20.058  0.00  0.00    +0.000 C 
ATOM     12  O   UNL     1      -1.377  14.276  20.968  0.00  0.00    +0.000 OA
ATOM     13  N   UNL     1       0.059  13.172  19.405  0.00  0.00    +0.000 N 
ATOM     14  C   UNL     1      -0.085  11.979  18.510  0.00  0.00    +0.000 C 
ATOM     15  H   UNL     1      -5.199  11.060  20.448  0.00  0.00    +0.000 HD
ENDROOT
BRANCH  13  16
ATOM     16  C   UNL     1       1.263  13.857  19.546  0.00  0.00    +0.000 A 
ATOM     17  C   UNL     1       1.613  14.886  18.578  0.00  0.00    +0.000 A 
ATOM     18  C   UNL     1       2.715  15.644  18.688  0.00  0.00    +0.000 A 
ATOM     19  C   UNL     1       3.057  16.738  17.729  0.00  0.00    +0.000 C 
ATOM     20  C   UNL     1       3.657  15.405  19.822  0.00  0.00    +0.000 A 
ATOM     21  O   UNL     1       4.678  16.080  19.919  0.00  0.00    +0.000 OA
ATOM     22  N   UNL     1       3.288  14.398  20.709  0.00  0.00    +0.000 N 
ATOM     23  C   UNL     1       4.146  14.107  21.849  0.00  0.00    +0.000 C 
ATOM     24  C   UNL     1       2.121  13.661  20.564  0.00  0.00    +0.000 A 
ENDBRANCH  13  16
BRANCH  14  25
ATOM     25  C   UNL     1       0.461  10.688  19.116  0.00  0.00    +0.000 A 
ATOM     26  C   UNL     1       0.176  10.303  20.445  0.00  0.00    +0.000 A 
ATOM     27  C   UNL     1       0.611   9.077  20.953  0.00  0.00    +0.000 A 
ATOM     28  C   UNL     1       1.343   8.218  20.145  0.00  0.00    +0.000 A 
ATOM     29 CL   UNL     1       1.839   6.687  20.755  0.00  0.00    +0.000 Cl
ATOM     30  C   UNL     1       1.664   8.585  18.840  0.00  0.00    +0.000 A 
ATOM     31  C   UNL     1       1.229   9.814  18.327  0.00  0.00    +0.000 A 
ENDBRANCH  14  25
TORSDOF 2
ENDMDL
MODEL 4
REMARK VINA RESULT:      -7.8      2.402      6.702
REMARK  Name = 
REMARK  6 active torsions:
REMARK  status: ('A' for Active; 'I' for Inactive)
REMARK    1  A    between atoms: C_1  and  N_2
REMARK    2  A    between atoms: C_7  and  C_8
REMARK    3  A    between atoms: N_13  and  C_14
REMARK    4  A    between atoms: C_16  and  C_17
REMARK    5  A    between atoms: N_20  and  C_21
REMARK    6  A    between atoms: C_23  and  C_24
REMARK                            x       y       z     vdW  Elec       q    Type
REMARK                         _______ _______ _______ _____ _____    ______ ____
ROOT
ATOM      1  C   UNL     1      -5.866  12.657  22.184  0.00  0.00    +0.000 C 
ATOM      2  N   UNL     1      -4.909  12.283  21.179  0.00  0.00    +0.000 N 
ATOM      3  C   UNL     1      -4.004  13.196  20.693  0.00  0.00    +0.000 C 
ATOM      4  O   UNL     1      -3.877  14.370  21.001  0.00  0.00    +0.000 OA
ATOM      5  N   UNL     1      -3.114  12.593  19.788  0.00  0.00    +0.000 N 
ATOM      6  N   UNL     1      -3.537  11.628  18.880  0.00  0.00    +0.000 NA
ATOM      7  C   UNL     1      -2.451  11.381  18.117  0.00  0.00    +0.000 A 
ATOM      8  C   UNL     1      -2.528  10.597  16.860  0.00  0.00    +0.000 C 
ATOM      9  C   UNL     1      -1.322  11.971  18.681  0.00  0.00    +0.000 A 
ATOM     10  C   UNL     1      -1.788  12.807  19.646  0.00  0.00    +0.000 A 
ATOM     11  C   UNL     1      -0.758  13.576  20.236  0.00  0.00    +0.000 C 
ATOM     12  O   UNL     1      -0.855  14.334  21.186  0.00  0.00    +0.000 OA
ATOM     13  N   UNL     1       0.407  13.226  19.483  0.00  0.00    +0.000 N 
ATOM     14  C   UNL     1       0.139  12.077  18.559  0.00  0.00    +0.000 C 
ATOM     15  H   UNL     1      -4.862  11.327  20.835  0.00  0.00    +0.000 HD
ENDROOT
BRANCH  13  16
ATOM     16  C   UNL     1       1.651  13.847  19.560  0.00  0.00    +0.000 A 
ATOM     17  C   UNL     1       2.418  13.752  20.793  0.00  0.00    +0.000 A 
ATOM     18  C   UNL     1       3.655  14.255  20.921  0.00  0.00    +0.000 A 
ATOM     19  C   UNL     1       4.471  14.118  22.166  0.00  0.00    +0.000 C 
ATOM     20  C   UNL     1       4.269  14.987  19.773  0.00  0.00    +0.000 A 
ATOM     21  O   UNL     1       5.393  15.468  19.889  0.00  0.00    +0.000 OA
ATOM     22  N   UNL     1       3.490  15.068  18.624  0.00  0.00    +0.000 N 
ATOM     23  C   UNL     1       4.018  15.755  17.454  0.00  0.00    +0.000 C 
ATOM     24  C   UNL     1       2.224  14.505  18.535  0.00  0.00    +0.000 A 
ENDBRANCH  13  16
BRANCH  14  25
ATOM     25  C   UNL     1       0.662  10.739  19.077  0.00  0.00    +0.000 A 
ATOM     26  C   UNL     1       0.378  10.275  20.381  0.00  0.00    +0.000 A 
ATOM     27  C   UNL     1       0.790   9.011  20.806  0.00  0.00    +0.000 A 
ATOM     28  C   UNL     1       1.498   8.190  19.938  0.00  0.00    +0.000 A 
ATOM     29 CL   UNL     1       1.965   6.613  20.445  0.00  0.00    +0.000 Cl
ATOM     30  C   UNL     1       1.818   8.633  18.657  0.00  0.00    +0.000 A 
ATOM     31  C   UNL     1       1.405   9.901  18.228  0.00  0.00    +0.000 A 
ENDBRANCH  14  25
TORSDOF 2
ENDMDL
MODEL 5
REMARK VINA RESULT:      -7.6      2.659      7.107
REMARK  Name = 
REMARK  6 active torsions:
REMARK  status: ('A' for Active; 'I' for Inactive)
REMARK    1  A    between atoms: C_1  and  N_2
REMARK    2  A    between atoms: C_7  and  C_8
REMARK    3  A    between atoms: N_13  and  C_14
REMARK    4  A    between atoms: C_16  and  C_17
REMARK    5  A    between atoms: N_20  and  C_21
REMARK    6  A    between atoms: C_23  and  C_24
REMARK                            x       y       z     vdW  Elec       q    Type
REMARK                         _______ _______ _______ _____ _____    ______ ____
ROOT
ATOM      1  C   UNL     1      -4.519  12.488  24.547  0.00  0.00    +0.000 C 
ATOM      2  N   UNL     1      -3.907  12.308  23.259  0.00  0.00    +0.000 N 
ATOM      3  C   UNL     1      -3.042  13.249  22.752  0.00  0.00    +0.000 C 
ATOM      4  O   UNL     1      -2.689  14.300  23.259  0.00  0.00    +0.000 OA
ATOM      5  N   UNL     1      -2.499  12.826  21.526  0.00  0.00    +0.000 N 
ATOM      6  N   UNL     1      -3.262  12.144  20.584  0.00  0.00    +0.000 NA
ATOM      7  C   UNL     1      -2.447  12.018  19.514  0.00  0.00    +0.000 A 
ATOM      8  C   UNL     1      -2.943  11.573  18.190  0.00  0.00    +0.000 C 
ATOM      9  C   UNL     1      -1.145  12.375  19.857  0.00  0.00    +0.000 A 
ATOM     10  C   UNL     1      -1.237  12.978  21.071  0.00  0.00    +0.000 A 
ATOM     11  C   UNL     1       0.002  13.508  21.504  0.00  0.00    +0.000 C 
ATOM     12  O   UNL     1       0.249  14.016  22.585  0.00  0.00    +0.000 OA
ATOM     13  N   UNL     1       0.880  13.275  20.400  0.00  0.00    +0.000 N 
ATOM     14  C   UNL     1       0.238  12.409  19.360  0.00  0.00    +0.000 C 
ATOM     15  H   UNL     1      -4.075  11.464  22.716  0.00  0.00    +0.000 HD
ENDROOT
BRANCH  13  16
ATOM     16  C   UNL     1       2.173  13.773  20.261  0.00  0.00    +0.000 A 
ATOM     17  C   UNL     1       2.573  14.371  18.995  0.00  0.00    +0.000 A 
ATOM     18  C   UNL     1       3.772  14.942  18.808  0.00  0.00    +0.000 A 
ATOM     19  C   UNL     1       4.173  15.606  17.529  0.00  0.00    +0.000 C 
ATOM     20  C   UNL     1       4.769  14.934  19.920  0.00  0.00    +0.000 A 
ATOM     21  O   UNL     1       5.876  15.436  19.750  0.00  0.00    +0.000 OA
ATOM     22  N   UNL     1       4.347  14.334  21.102  0.00  0.00    +0.000 N 
ATOM     23  C   UNL     1       5.254  14.292  22.240  0.00  0.00    +0.000 C 
ATOM     24  C   UNL     1       3.083  13.781  21.253  0.00  0.00    +0.000 A 
ENDBRANCH  13  16
BRANCH  14  25
ATOM     25  C   UNL     1       0.695  10.952  19.408  0.00  0.00    +0.000 A 
ATOM     26  C   UNL     1       1.279  10.311  18.293  0.00  0.00    +0.000 A 
ATOM     27  C   UNL     1       1.770   9.006  18.383  0.00  0.00    +0.000 A 
ATOM     28  C   UNL     1       1.680   8.318  19.586  0.00  0.00    +0.000 A 
ATOM     29 CL   UNL     1       2.328   6.729  19.710  0.00  0.00    +0.000 Cl
ATOM     30  C   UNL     1       1.081   8.915  20.693  0.00  0.00    +0.000 A 
ATOM     31  C   UNL     1       0.588  10.223  20.606  0.00  0.00    +0.000 A 
ENDBRANCH  14  25
TORSDOF 2
ENDMDL
MODEL 6
REMARK VINA RESULT:      -7.5      2.863      6.398
REMARK  Name = 
REMARK  6 active torsions:
REMARK  status: ('A' for Active; 'I' for Inactive)
REMARK    1  A    between atoms: C_1  and  N_2
REMARK    2  A    between atoms: C_7  and  C_8
REMARK    3  A    between atoms: N_13  and  C_14
REMARK    4  A    between atoms: C_16  and  C_17
REMARK    5  A    between atoms: N_20  and  C_21
REMARK    6  A    between atoms: C_23  and  C_24
REMARK                            x       y       z     vdW  Elec       q    Type
REMARK                         _______ _______ _______ _____ _____    ______ ____
ROOT
ATOM      1  C   UNL     1      -7.624  10.359  20.446  0.00  0.00    +0.000 C 
ATOM      2  N   UNL     1      -6.395  10.415  19.703  0.00  0.00    +0.000 N 
ATOM      3  C   UNL     1      -5.749  11.611  19.498  0.00  0.00    +0.000 C 
ATOM      4  O   UNL     1      -6.083  12.723  19.873  0.00  0.00    +0.000 OA
ATOM      5  N   UNL     1      -4.530  11.417  18.825  0.00  0.00    +0.000 N 
ATOM      6  N   UNL     1      -4.399  10.483  17.803  0.00  0.00    +0.000 NA
ATOM      7  C   UNL     1      -3.147  10.669  17.332  0.00  0.00    +0.000 A 
ATOM      8  C   UNL     1      -2.678  10.053  16.067  0.00  0.00    +0.000 C 
ATOM      9  C   UNL     1      -2.430  11.504  18.186  0.00  0.00    +0.000 A 
ATOM     10  C   UNL     1      -3.349  12.039  19.033  0.00  0.00    +0.000 A 
ATOM     11  C   UNL     1      -2.786  13.010  19.894  0.00  0.00    +0.000 C 
ATOM     12  O   UNL     1      -3.338  13.586  20.817  0.00  0.00    +0.000 OA
ATOM     13  N   UNL     1      -1.432  13.122  19.448  0.00  0.00    +0.000 N 
ATOM     14  C   UNL     1      -1.096  12.063  18.443  0.00  0.00    +0.000 C 
ATOM     15  H   UNL     1      -5.964   9.566  19.345  0.00  0.00    +0.000 HD
ENDROOT
BRANCH  13  16
ATOM     16  C   UNL     1      -0.508  14.078  19.862  0.00  0.00    +0.000 A 
ATOM     17  C   UNL     1       0.444  14.611  18.898  0.00  0.00    +0.000 A 
ATOM     18  C   UNL     1       1.312  15.589  19.198  0.00  0.00    +0.000 A 
ATOM     19  C   UNL     1       2.258  16.178  18.202  0.00  0.00    +0.000 C 
ATOM     20  C   UNL     1       1.347  16.136  20.587  0.00  0.00    +0.000 A 
ATOM     21  O   UNL     1       2.153  17.017  20.876  0.00  0.00    +0.000 OA
ATOM     22  N   UNL     1       0.432  15.581  21.476  0.00  0.00    +0.000 N 
ATOM     23  C   UNL     1       0.392  16.065  22.848  0.00  0.00    +0.000 C 
ATOM     24  C   UNL     1      -0.465  14.588  21.107  0.00  0.00    +0.000 A 
ENDBRANCH  13  16
BRANCH  14  25
ATOM     25  C   UNL     1      -0.300  10.896  19.024  0.00  0.00    +0.000 A 
ATOM     26  C   UNL     1      -0.485  10.449  20.352  0.00  0.00    +0.000 A 
ATOM     27  C   UNL     1       0.188   9.326  20.838  0.00  0.00    +0.000 A 
ATOM     28  C   UNL     1       1.060   8.633  20.008  0.00  0.00    +0.000 A 
ATOM     29 CL   UNL     1       1.852   7.221  20.591  0.00  0.00    +0.000 Cl
ATOM     30  C   UNL     1       1.283   9.069  18.704  0.00  0.00    +0.000 A 
ATOM     31  C   UNL     1       0.610  10.196  18.214  0.00  0.00    +0.000 A 
ENDBRANCH  14  25
TORSDOF 2
ENDMDL
MODEL 7
REMARK VINA RESULT:      -7.5      2.413      6.629
REMARK  Name = 
REMARK  6 active torsions:
REMARK  status: ('A' for Active; 'I' for Inactive)
REMARK    1  A    between atoms: C_1  and  N_2
REMARK    2  A    between atoms: C_7  and  C_8
REMARK    3  A    between atoms: N_13  and  C_14
REMARK    4  A    between atoms: C_16  and  C_17
REMARK    5  A    between atoms: N_20  and  C_21
REMARK    6  A    between atoms: C_23  and  C_24
REMARK                            x       y       z     vdW  Elec       q    Type
REMARK                         _______ _______ _______ _____ _____    ______ ____
ROOT
ATOM      1  C   UNL     1      -6.409  12.504  21.947  0.00  0.00    +0.000 C 
ATOM      2  N   UNL     1      -5.415  12.185  20.959  0.00  0.00    +0.000 N 
ATOM      3  C   UNL     1      -4.521  13.135  20.526  0.00  0.00    +0.000 C 
ATOM      4  O   UNL     1      -4.433  14.302  20.872  0.00  0.00    +0.000 OA
ATOM      5  N   UNL     1      -3.591  12.582  19.629  0.00  0.00    +0.000 N 
ATOM      6  N   UNL     1      -3.965  11.635  18.681  0.00  0.00    +0.000 NA
ATOM      7  C   UNL     1      -2.851  11.439  17.941  0.00  0.00    +0.000 A 
ATOM      8  C   UNL     1      -2.874  10.692  16.660  0.00  0.00    +0.000 C 
ATOM      9  C   UNL     1      -1.754  12.039  18.555  0.00  0.00    +0.000 A 
ATOM     10  C   UNL     1      -2.268  12.833  19.531  0.00  0.00    +0.000 A 
ATOM     11  C   UNL     1      -1.274  13.609  20.172  0.00  0.00    +0.000 C 
ATOM     12  O   UNL     1      -1.417  14.335  21.142  0.00  0.00    +0.000 OA
ATOM     13  N   UNL     1      -0.081  13.311  19.442  0.00  0.00    +0.000 N 
ATOM     14  C   UNL     1      -0.293  12.186  18.477  0.00  0.00    +0.000 C 
ATOM     15  H   UNL     1      -5.334  11.242  20.587  0.00  0.00    +0.000 HD
ENDROOT
BRANCH  13  16
ATOM     16  C   UNL     1       1.144  13.961  19.573  0.00  0.00    +0.000 A 
ATOM     17  C   UNL     1       1.991  13.657  20.717  0.00  0.00    +0.000 A 
ATOM     18  C   UNL     1       3.216  14.181  20.874  0.00  0.00    +0.000 A 
ATOM     19  C   UNL     1       4.115  13.836  22.019  0.00  0.00    +0.000 C 
ATOM     20  C   UNL     1       3.732  15.153  19.865  0.00  0.00    +0.000 A 
ATOM     21  O   UNL     1       4.844  15.652  20.012  0.00  0.00    +0.000 OA
ATOM     22  N   UNL     1       2.878  15.425  18.801  0.00  0.00    +0.000 N 
ATOM     23  C   UNL     1       3.308  16.354  17.766  0.00  0.00    +0.000 C 
ATOM     24  C   UNL     1       1.629  14.834  18.671  0.00  0.00    +0.000 A 
ENDBRANCH  13  16
BRANCH  14  25
ATOM     25  C   UNL     1       0.249  10.845  18.969  0.00  0.00    +0.000 A 
ATOM     26  C   UNL     1       1.105  10.046  18.179  0.00  0.00    +0.000 A 
ATOM     27  C   UNL     1       1.660   8.866  18.680  0.00  0.00    +0.000 A 
ATOM     28  C   UNL     1       1.366   8.462  19.975  0.00  0.00    +0.000 A 
ATOM     29 CL   UNL     1       2.088   7.034  20.608  0.00  0.00    +0.000 Cl
ATOM     30  C   UNL     1       0.501   9.215  20.765  0.00  0.00    +0.000 A 
ATOM     31  C   UNL     1      -0.058  10.399  20.266  0.00  0.00    +0.000 A 
ENDBRANCH  14  25
TORSDOF 2
ENDMDL
MODEL 8
REMARK VINA RESULT:      -7.5      2.671      6.504
REMARK  Name = 
REMARK  6 active torsions:
REMARK  status: ('A' for Active; 'I' for Inactive)
REMARK    1  A    between atoms: C_1  and  N_2
REMARK    2  A    between atoms: C_7  and  C_8
REMARK    3  A    between atoms: N_13  and  C_14
REMARK    4  A    between atoms: C_16  and  C_17
REMARK    5  A    between atoms: N_20  and  C_21
REMARK    6  A    between atoms: C_23  and  C_24
REMARK                            x       y       z     vdW  Elec       q    Type
REMARK                         _______ _______ _______ _____ _____    ______ ____
ROOT
ATOM      1  C   UNL     1      -7.310  11.609  21.384  0.00  0.00    +0.000 C 
ATOM      2  N   UNL     1      -6.206  11.401  20.488  0.00  0.00    +0.000 N 
ATOM      3  C   UNL     1      -5.435  12.457  20.061  0.00  0.00    +0.000 C 
ATOM      4  O   UNL     1      -5.554  13.638  20.340  0.00  0.00    +0.000 OA
ATOM      5  N   UNL     1      -4.366  12.012  19.265  0.00  0.00    +0.000 N 
ATOM      6  N   UNL     1      -4.516  10.972  18.353  0.00  0.00    +0.000 NA
ATOM      7  C   UNL     1      -3.331  10.916  17.706  0.00  0.00    +0.000 A 
ATOM      8  C   UNL     1      -3.140  10.113  16.474  0.00  0.00    +0.000 C 
ATOM      9  C   UNL     1      -2.390  11.710  18.356  0.00  0.00    +0.000 A 
ATOM     10  C   UNL     1      -3.093  12.462  19.243  0.00  0.00    +0.000 A 
ATOM     11  C   UNL     1      -2.281  13.415  19.904  0.00  0.00    +0.000 C 
ATOM     12  O   UNL     1      -2.609  14.157  20.815  0.00  0.00    +0.000 OA
ATOM     13  N   UNL     1      -1.004  13.271  19.277  0.00  0.00    +0.000 N 
ATOM     14  C   UNL     1      -0.967  12.080  18.371  0.00  0.00    +0.000 C 
ATOM     15  H   UNL     1      -5.954  10.465  20.181  0.00  0.00    +0.000 HD
ENDROOT
BRANCH  13  16
ATOM     16  C   UNL     1       0.094  14.110  19.452  0.00  0.00    +0.000 A 
ATOM     17  C   UNL     1       1.193  13.674  20.302  0.00  0.00    +0.000 A 
ATOM     18  C   UNL     1       2.318  14.389  20.459  0.00  0.00    +0.000 A 
ATOM     19  C   UNL     1       3.474  13.926  21.287  0.00  0.00    +0.000 C 
ATOM     20  C   UNL     1       2.447  15.711  19.776  0.00  0.00    +0.000 A 
ATOM     21  O   UNL     1       3.464  16.380  19.931  0.00  0.00    +0.000 OA
ATOM     22  N   UNL     1       1.362  16.092  18.992  0.00  0.00    +0.000 N 
ATOM     23  C   UNL     1       1.411  17.362  18.283  0.00  0.00    +0.000 C 
ATOM     24  C   UNL     1       0.232  15.301  18.841  0.00  0.00    +0.000 A 
ENDBRANCH  13  16
BRANCH  14  25
ATOM     25  C   UNL     1      -0.266  10.867  18.980  0.00  0.00    +0.000 A 
ATOM     26  C   UNL     1       0.773  10.184  18.308  0.00  0.00    +0.000 A 
ATOM     27  C   UNL     1       1.460   9.132  18.918  0.00  0.00    +0.000 A 
ATOM     28  C   UNL     1       1.118   8.740  20.205  0.00  0.00    +0.000 A 
ATOM     29 CL   UNL     1       1.995   7.476  20.975  0.00  0.00    +0.000 Cl
ATOM     30  C   UNL     1       0.077   9.376  20.879  0.00  0.00    +0.000 A 
ATOM     31  C   UNL     1      -0.614  10.431  20.270  0.00  0.00    +0.000 A 
ENDBRANCH  14  25
TORSDOF 2
ENDMDL
MODEL 9
REMARK VINA RESULT:      -7.4      2.492      6.786
REMARK  Name = 
REMARK  6 active torsions:
REMARK  status: ('A' for Active; 'I' for Inactive)
REMARK    1  A    between atoms: C_1  and  N_2
REMARK    2  A    between atoms: C_7  and  C_8
REMARK    3  A    between atoms: N_13  and  C_14
REMARK    4  A    between atoms: C_16  and  C_17
REMARK    5  A    between atoms: N_20  and  C_21
REMARK    6  A    between atoms: C_23  and  C_24
REMARK                            x       y       z     vdW  Elec       q    Type
REMARK                         _______ _______ _______ _____ _____    ______ ____
ROOT
ATOM      1  C   UNL     1      -6.458  12.792  23.882  0.00  0.00    +0.000 C 
ATOM      2  N   UNL     1      -5.729  12.508  22.677  0.00  0.00    +0.000 N 
ATOM      3  C   UNL     1      -5.056  13.503  22.008  0.00  0.00    +0.000 C 
ATOM      4  O   UNL     1      -4.978  14.686  22.297  0.00  0.00    +0.000 OA
ATOM      5  N   UNL     1      -4.346  12.983  20.912  0.00  0.00    +0.000 N 
ATOM      6  N   UNL     1      -4.872  11.974  20.112  0.00  0.00    +0.000 NA
ATOM      7  C   UNL     1      -3.974  11.830  19.113  0.00  0.00    +0.000 A 
ATOM      8  C   UNL     1      -4.264  11.033  17.897  0.00  0.00    +0.000 C 
ATOM      9  C   UNL     1      -2.809  12.534  19.409  0.00  0.00    +0.000 A 
ATOM     10  C   UNL     1      -3.118  13.327  20.469  0.00  0.00    +0.000 A 
ATOM     11  C   UNL     1      -2.059  14.199  20.816  0.00  0.00    +0.000 C 
ATOM     12  O   UNL     1      -2.007  14.951  21.775  0.00  0.00    +0.000 OA
ATOM     13  N   UNL     1      -1.073  13.960  19.807  0.00  0.00    +0.000 N 
ATOM     14  C   UNL     1      -1.434  12.784  18.953  0.00  0.00    +0.000 C 
ATOM     15  H   UNL     1      -5.670  11.559  22.316  0.00  0.00    +0.000 HD
ENDROOT
BRANCH  13  16
ATOM     16  C   UNL     1       0.088  14.702  19.603  0.00  0.00    +0.000 A 
ATOM     17  C   UNL     1       0.051  15.844  18.701  0.00  0.00    +0.000 A 
ATOM     18  C   UNL     1       1.103  16.655  18.512  0.00  0.00    +0.000 A 
ATOM     19  C   UNL     1       1.061  17.860  17.628  0.00  0.00    +0.000 C 
ATOM     20  C   UNL     1       2.389  16.362  19.213  0.00  0.00    +0.000 A 
ATOM     21  O   UNL     1       3.363  17.087  19.029  0.00  0.00    +0.000 OA
ATOM     22  N   UNL     1       2.379  15.249  20.048  0.00  0.00    +0.000 N 
ATOM     23  C   UNL     1       3.589  14.900  20.779  0.00  0.00    +0.000 C 
ATOM     24  C   UNL     1       1.253  14.459  20.231  0.00  0.00    +0.000 A 
ENDBRANCH  13  16
BRANCH  14  25
ATOM     25  C   UNL     1      -0.676  11.508  19.315  0.00  0.00    +0.000 A 
ATOM     26  C   UNL     1       0.036  10.759  18.351  0.00  0.00    +0.000 A 
ATOM     27  C   UNL     1       0.794   9.645  18.716  0.00  0.00    +0.000 A 
ATOM     28  C   UNL     1       0.850   9.255  20.048  0.00  0.00    +0.000 A 
ATOM     29 CL   UNL     1       1.822   7.911  20.505  0.00  0.00    +0.000 Cl
ATOM     30  C   UNL     1       0.132   9.957  21.014  0.00  0.00    +0.000 A 
ATOM     31  C   UNL     1      -0.629  11.075  20.651  0.00  0.00    +0.000 A 
ENDBRANCH  14  25
TORSDOF 2
ENDMDL
