MODEL 1
REMARK VINA RESULT:      -9.2      0.000      0.000
REMARK  Name = 
REMARK  4 active torsions:
REMARK  status: ('A' for Active; 'I' for Inactive)
REMARK    1  A    between atoms: C_2  and  C_11
REMARK    2  A    between atoms: N_3  and  C_4
REMARK    3  A    between atoms: C_13  and  S_14
REMARK    4  A    between atoms: S_14  and  N_17
REMARK                            x       y       z     vdW  Elec       q    Type
REMARK                         _______ _______ _______ _____ _____    ______ ____
ROOT
ATOM      1  C   UNL     1       3.364   5.863  19.083  0.00  0.00    +0.000 A 
ATOM      2  C   UNL     1       4.601   6.170  18.477  0.00  0.00    +0.000 A 
ATOM      3  C   UNL     1       5.610   5.205  18.389  0.00  0.00    +0.000 A 
ATOM      4  C   UNL     1       5.396   3.914  18.866  0.00  0.00    +0.000 A 
ATOM      5  C   UNL     1       4.174   3.599  19.460  0.00  0.00    +0.000 A 
ATOM      6  C   UNL     1       3.161   4.564  19.575  0.00  0.00    +0.000 A 
ATOM      7 CL   UNL     1       1.717   4.046  20.375  0.00  0.00    +0.000 Cl
ENDROOT
BRANCH   1   9
ATOM      8  O   UNL     1       1.937   7.450  18.159  0.00  0.00    +0.000 OA
ATOM      9  C   UNL     1       2.401   7.003  19.203  0.00  0.00    +0.000 C 
ATOM     10  N   UNL     1       2.120   7.474  20.472  0.00  0.00    +0.000 N 
ATOM     11  H   UNL     1       2.646   7.074  21.242  0.00  0.00    +0.000 HD
BRANCH  10  12
ATOM     12  C   UNL     1       1.296   8.572  20.803  0.00  0.00    +0.000 A 
ATOM     13  C   UNL     1       0.930   9.567  19.893  0.00  0.00    +0.000 A 
ATOM     14  C   UNL     1       0.144  10.651  20.299  0.00  0.00    +0.000 A 
ATOM     15  C   UNL     1      -0.277  10.745  21.619  0.00  0.00    +0.000 A 
ATOM     16 BR   UNL     1      -1.314  12.226  22.172  0.00  0.00    +0.000 Br
ATOM     17  C   UNL     1       0.062   9.753  22.536  0.00  0.00    +0.000 A 
ATOM     18  C   UNL     1       0.839   8.664  22.124  0.00  0.00    +0.000 A 
ENDBRANCH  10  12
ENDBRANCH   1   9
BRANCH   3  19
ATOM     19  S   UNL     1       7.163   5.613  17.604  0.00  0.00    +0.000 S 
ATOM     20  O   UNL     1       7.837   6.581  18.443  0.00  0.00    +0.000 OA
ATOM     21  O   UNL     1       7.795   4.357  17.261  0.00  0.00    +0.000 OA
BRANCH  19  22
ATOM     22  N   UNL     1       6.705   6.341  16.158  0.00  0.00    +0.000 N 
ATOM     23  C   UNL     1       6.571   5.482  15.052  0.00  0.00    +0.000 A 
ATOM     24  C   UNL     1       5.435   4.721  14.835  0.00  0.00    +0.000 A 
ATOM     25  C   UNL     1       5.402   3.915  13.702  0.00  0.00    +0.000 A 
ATOM     26  C   UNL     1       6.507   3.884  12.855  0.00  0.00    +0.000 A 
ATOM     27  C   UNL     1       7.603   4.668  13.181  0.00  0.00    +0.000 A 
ATOM     28  N   UNL     1       7.661   5.471  14.266  0.00  0.00    +0.000 NA
ATOM     29  H   UNL     1       7.339   7.105  15.930  0.00  0.00    +0.000 HD
ENDBRANCH  19  22
ENDBRANCH   3  19
TORSDOF 4
ENDMDL
MODEL 2
REMARK VINA RESULT:      -9.1      1.133      1.465
REMARK  Name = 
REMARK  4 active torsions:
REMARK  status: ('A' for Active; 'I' for Inactive)
REMARK    1  A    between atoms: C_2  and  C_11
REMARK    2  A    between atoms: N_3  and  C_4
REMARK    3  A    between atoms: C_13  and  S_14
REMARK    4  A    between atoms: S_14  and  N_17
REMARK                            x       y       z     vdW  Elec       q    Type
REMARK                         _______ _______ _______ _____ _____    ______ ____
ROOT
ATOM      1  C   UNL     1       3.018   5.145  18.954  0.00  0.00    +0.000 A 
ATOM      2  C   UNL     1       4.264   5.614  18.485  0.00  0.00    +0.000 A 
ATOM      3  C   UNL     1       5.061   4.815  17.659  0.00  0.00    +0.000 A 
ATOM      4  C   UNL     1       4.621   3.558  17.254  0.00  0.00    +0.000 A 
ATOM      5  C   UNL     1       3.387   3.088  17.705  0.00  0.00    +0.000 A 
ATOM      6  C   UNL     1       2.587   3.870  18.554  0.00  0.00    +0.000 A 
ATOM      7 CL   UNL     1       1.106   3.142  19.071  0.00  0.00    +0.000 Cl
ENDROOT
BRANCH   1   9
ATOM      8  O   UNL     1       1.854   5.538  20.928  0.00  0.00    +0.000 OA
ATOM      9  C   UNL     1       2.301   6.050  19.907  0.00  0.00    +0.000 C 
ATOM     10  N   UNL     1       2.186   7.384  19.561  0.00  0.00    +0.000 N 
ATOM     11  H   UNL     1       2.520   7.655  18.642  0.00  0.00    +0.000 HD
BRANCH  10  12
ATOM     12  C   UNL     1       1.500   8.387  20.280  0.00  0.00    +0.000 A 
ATOM     13  C   UNL     1       1.354   8.382  21.669  0.00  0.00    +0.000 A 
ATOM     14  C   UNL     1       0.625   9.387  22.314  0.00  0.00    +0.000 A 
ATOM     15  C   UNL     1       0.034  10.400  21.569  0.00  0.00    +0.000 A 
ATOM     16 BR   UNL     1      -0.975  11.740  22.440  0.00  0.00    +0.000 Br
ATOM     17  C   UNL     1       0.184  10.432  20.185  0.00  0.00    +0.000 A 
ATOM     18  C   UNL     1       0.925   9.432  19.544  0.00  0.00    +0.000 A 
ENDBRANCH  10  12
ENDBRANCH   1   9
BRANCH   3  19
ATOM     19  S   UNL     1       6.629   5.437  17.067  0.00  0.00    +0.000 S 
ATOM     20  O   UNL     1       7.062   6.473  17.980  0.00  0.00    +0.000 OA
ATOM     21  O   UNL     1       7.458   4.281  16.803  0.00  0.00    +0.000 OA
BRANCH  19  22
ATOM     22  N   UNL     1       6.254   6.120  15.576  0.00  0.00    +0.000 N 
ATOM     23  C   UNL     1       6.440   5.291  14.454  0.00  0.00    +0.000 A 
ATOM     24  C   UNL     1       5.508   4.345  14.066  0.00  0.00    +0.000 A 
ATOM     25  C   UNL     1       5.786   3.587  12.933  0.00  0.00    +0.000 A 
ATOM     26  C   UNL     1       6.986   3.788  12.258  0.00  0.00    +0.000 A 
ATOM     27  C   UNL     1       7.861   4.746  12.747  0.00  0.00    +0.000 A 
ATOM     28  N   UNL     1       7.614   5.508  13.836  0.00  0.00    +0.000 NA
ATOM     29  H   UNL     1       6.762   6.995  15.449  0.00  0.00    +0.000 HD
ENDBRANCH  19  22
ENDBRANCH   3  19
TORSDOF 4
ENDMDL
MODEL 3
REMARK VINA RESULT:      -8.8      1.126      1.162
REMARK  Name = 
REMARK  4 active torsions:
REMARK  status: ('A' for Active; 'I' for Inactive)
REMARK    1  A    between atoms: C_2  and  C_11
REMARK    2  A    between atoms: N_3  and  C_4
REMARK    3  A    between atoms: C_13  and  S_14
REMARK    4  A    between atoms: S_14  and  N_17
REMARK                            x       y       z     vdW  Elec       q    Type
REMARK                         _______ _______ _______ _____ _____    ______ ____
ROOT
ATOM      1  C   UNL     1       2.923   4.947  19.889  0.00  0.00    +0.000 A 
ATOM      2  C   UNL     1       4.182   5.461  19.512  0.00  0.00    +0.000 A 
ATOM      3  C   UNL     1       5.228   4.599  19.166  0.00  0.00    +0.000 A 
ATOM      4  C   UNL     1       5.032   3.221  19.152  0.00  0.00    +0.000 A 
ATOM      5  C   UNL     1       3.788   2.703  19.515  0.00  0.00    +0.000 A 
ATOM      6  C   UNL     1       2.737   3.556  19.887  0.00  0.00    +0.000 A 
ATOM      7 CL   UNL     1       1.267   2.774  20.358  0.00  0.00    +0.000 Cl
ENDROOT
BRANCH   1   9
ATOM      8  O   UNL     1       0.819   5.539  20.685  0.00  0.00    +0.000 OA
ATOM      9  C   UNL     1       1.914   5.963  20.330  0.00  0.00    +0.000 C 
ATOM     10  N   UNL     1       2.286   7.294  20.290  0.00  0.00    +0.000 N 
ATOM     11  H   UNL     1       3.190   7.511  19.886  0.00  0.00    +0.000 HD
BRANCH  10  12
ATOM     12  C   UNL     1       1.473   8.407  20.599  0.00  0.00    +0.000 A 
ATOM     13  C   UNL     1       0.995   9.306  19.642  0.00  0.00    +0.000 A 
ATOM     14  C   UNL     1       0.227  10.412  20.024  0.00  0.00    +0.000 A 
ATOM     15  C   UNL     1      -0.061  10.626  21.365  0.00  0.00    +0.000 A 
ATOM     16 BR   UNL     1      -1.073  12.137  21.880  0.00  0.00    +0.000 Br
ATOM     17  C   UNL     1       0.391   9.730  22.331  0.00  0.00    +0.000 A 
ATOM     18  C   UNL     1       1.148   8.618  21.946  0.00  0.00    +0.000 A 
ENDBRANCH  10  12
ENDBRANCH   1   9
BRANCH   3  19
ATOM     19  S   UNL     1       6.809   5.273  18.678  0.00  0.00    +0.000 S 
ATOM     20  O   UNL     1       7.278   6.115  19.758  0.00  0.00    +0.000 OA
ATOM     21  O   UNL     1       7.603   4.161  18.201  0.00  0.00    +0.000 OA
BRANCH  19  22
ATOM     22  N   UNL     1       6.446   6.225  17.339  0.00  0.00    +0.000 N 
ATOM     23  C   UNL     1       6.346   5.546  16.111  0.00  0.00    +0.000 A 
ATOM     24  C   UNL     1       5.203   4.866  15.728  0.00  0.00    +0.000 A 
ATOM     25  C   UNL     1       5.206   4.240  14.485  0.00  0.00    +0.000 A 
ATOM     26  C   UNL     1       6.352   4.299  13.697  0.00  0.00    +0.000 A 
ATOM     27  C   UNL     1       7.451   4.986  14.188  0.00  0.00    +0.000 A 
ATOM     28  N   UNL     1       7.474   5.616  15.383  0.00  0.00    +0.000 NA
ATOM     29  H   UNL     1       7.112   6.993  17.259  0.00  0.00    +0.000 HD
ENDBRANCH  19  22
ENDBRANCH   3  19
TORSDOF 4
ENDMDL
MODEL 4
REMARK VINA RESULT:      -8.8      1.485      1.977
REMARK  Name = 
REMARK  4 active torsions:
REMARK  status: ('A' for Active; 'I' for Inactive)
REMARK    1  A    between atoms: C_2  and  C_11
REMARK    2  A    between atoms: N_3  and  C_4
REMARK    3  A    between atoms: C_13  and  S_14
REMARK    4  A    between atoms: S_14  and  N_17
REMARK                            x       y       z     vdW  Elec       q    Type
REMARK                         _______ _______ _______ _____ _____    ______ ____
ROOT
ATOM      1  C   UNL     1       2.844   5.331  18.968  0.00  0.00    +0.000 A 
ATOM      2  C   UNL     1       3.851   5.992  18.235  0.00  0.00    +0.000 A 
ATOM      3  C   UNL     1       4.698   5.276  17.381  0.00  0.00    +0.000 A 
ATOM      4  C   UNL     1       4.535   3.903  17.214  0.00  0.00    +0.000 A 
ATOM      5  C   UNL     1       3.537   3.241  17.929  0.00  0.00    +0.000 A 
ATOM      6  C   UNL     1       2.695   3.944  18.805  0.00  0.00    +0.000 A 
ATOM      7 CL   UNL     1       1.533   2.988  19.660  0.00  0.00    +0.000 Cl
ENDROOT
BRANCH   1   9
ATOM      8  O   UNL     1       1.454   5.611  20.812  0.00  0.00    +0.000 OA
ATOM      9  C   UNL     1       2.065   6.188  19.918  0.00  0.00    +0.000 C 
ATOM     10  N   UNL     1       2.083   7.554  19.710  0.00  0.00    +0.000 N 
ATOM     11  H   UNL     1       2.553   7.890  18.876  0.00  0.00    +0.000 HD
BRANCH  10  12
ATOM     12  C   UNL     1       1.372   8.530  20.444  0.00  0.00    +0.000 A 
ATOM     13  C   UNL     1       1.286   8.539  21.838  0.00  0.00    +0.000 A 
ATOM     14  C   UNL     1       0.529   9.513  22.498  0.00  0.00    +0.000 A 
ATOM     15  C   UNL     1      -0.148  10.479  21.766  0.00  0.00    +0.000 A 
ATOM     16 BR   UNL     1      -1.194  11.775  22.660  0.00  0.00    +0.000 Br
ATOM     17  C   UNL     1      -0.059  10.496  20.376  0.00  0.00    +0.000 A 
ATOM     18  C   UNL     1       0.709   9.529  19.718  0.00  0.00    +0.000 A 
ENDBRANCH  10  12
ENDBRANCH   1   9
BRANCH   3  19
ATOM     19  S   UNL     1       5.958   6.137  16.452  0.00  0.00    +0.000 S 
ATOM     20  O   UNL     1       5.314   6.765  15.318  0.00  0.00    +0.000 OA
ATOM     21  O   UNL     1       6.714   6.919  17.407  0.00  0.00    +0.000 OA
BRANCH  19  22
ATOM     22  N   UNL     1       6.974   4.908  15.914  0.00  0.00    +0.000 N 
ATOM     23  C   UNL     1       7.018   4.712  14.522  0.00  0.00    +0.000 A 
ATOM     24  C   UNL     1       7.796   5.493  13.685  0.00  0.00    +0.000 A 
ATOM     25  C   UNL     1       7.776   5.204  12.324  0.00  0.00    +0.000 A 
ATOM     26  C   UNL     1       6.966   4.172  11.859  0.00  0.00    +0.000 A 
ATOM     27  C   UNL     1       6.207   3.469  12.782  0.00  0.00    +0.000 A 
ATOM     28  N   UNL     1       6.215   3.715  14.110  0.00  0.00    +0.000 NA
ATOM     29  H   UNL     1       6.747   4.031  16.382  0.00  0.00    +0.000 HD
ENDBRANCH  19  22
ENDBRANCH   3  19
TORSDOF 4
ENDMDL
MODEL 5
REMARK VINA RESULT:      -8.8      1.010      1.469
REMARK  Name = 
REMARK  4 active torsions:
REMARK  status: ('A' for Active; 'I' for Inactive)
REMARK    1  A    between atoms: C_2  and  C_11
REMARK    2  A    between atoms: N_3  and  C_4
REMARK    3  A    between atoms: C_13  and  S_14
REMARK    4  A    between atoms: S_14  and  N_17
REMARK                            x       y       z     vdW  Elec       q    Type
REMARK                         _______ _______ _______ _____ _____    ______ ____
ROOT
ATOM      1  C   UNL     1       3.264   5.386  19.163  0.00  0.00    +0.000 A 
ATOM      2  C   UNL     1       4.500   5.845  18.660  0.00  0.00    +0.000 A 
ATOM      3  C   UNL     1       5.459   4.940  18.191  0.00  0.00    +0.000 A 
ATOM      4  C   UNL     1       5.193   3.574  18.178  0.00  0.00    +0.000 A 
ATOM      5  C   UNL     1       3.971   3.110  18.665  0.00  0.00    +0.000 A 
ATOM      6  C   UNL     1       3.009   4.005  19.160  0.00  0.00    +0.000 A 
ATOM      7 CL   UNL     1       1.560   3.287  19.776  0.00  0.00    +0.000 Cl
ENDROOT
BRANCH   1   9
ATOM      8  O   UNL     1       1.761   6.164  20.758  0.00  0.00    +0.000 OA
ATOM      9  C   UNL     1       2.361   6.440  19.724  0.00  0.00    +0.000 C 
ATOM     10  N   UNL     1       2.260   7.633  19.031  0.00  0.00    +0.000 N 
ATOM     11  H   UNL     1       2.739   7.692  18.139  0.00  0.00    +0.000 HD
BRANCH  10  12
ATOM     12  C   UNL     1       1.424   8.726  19.349  0.00  0.00    +0.000 A 
ATOM     13  C   UNL     1       1.011   9.033  20.647  0.00  0.00    +0.000 A 
ATOM     14  C   UNL     1       0.147  10.108  20.885  0.00  0.00    +0.000 A 
ATOM     15  C   UNL     1      -0.310  10.877  19.823  0.00  0.00    +0.000 A 
ATOM     16 BR   UNL     1      -1.501  12.310  20.144  0.00  0.00    +0.000 Br
ATOM     17  C   UNL     1       0.105  10.597  18.523  0.00  0.00    +0.000 A 
ATOM     18  C   UNL     1       0.979   9.529  18.290  0.00  0.00    +0.000 A 
ENDBRANCH  10  12
ENDBRANCH   1   9
BRANCH   3  19
ATOM     19  S   UNL     1       7.011   5.546  17.545  0.00  0.00    +0.000 S 
ATOM     20  O   UNL     1       7.505   6.550  18.464  0.00  0.00    +0.000 OA
ATOM     21  O   UNL     1       7.804   4.381  17.216  0.00  0.00    +0.000 OA
BRANCH  19  22
ATOM     22  N   UNL     1       6.585   6.275  16.090  0.00  0.00    +0.000 N 
ATOM     23  C   UNL     1       6.518   5.424  14.971  0.00  0.00    +0.000 A 
ATOM     24  C   UNL     1       5.415   4.632  14.705  0.00  0.00    +0.000 A 
ATOM     25  C   UNL     1       5.448   3.837  13.564  0.00  0.00    +0.000 A 
ATOM     26  C   UNL     1       6.584   3.848  12.759  0.00  0.00    +0.000 A 
ATOM     27  C   UNL     1       7.644   4.661  13.133  0.00  0.00    +0.000 A 
ATOM     28  N   UNL     1       7.637   5.454  14.226  0.00  0.00    +0.000 NA
ATOM     29  H   UNL     1       7.205   7.061  15.892  0.00  0.00    +0.000 HD
ENDBRANCH  19  22
ENDBRANCH   3  19
TORSDOF 4
ENDMDL
MODEL 6
REMARK VINA RESULT:      -8.8      1.336      1.628
REMARK  Name = 
REMARK  4 active torsions:
REMARK  status: ('A' for Active; 'I' for Inactive)
REMARK    1  A    between atoms: C_2  and  C_11
REMARK    2  A    between atoms: N_3  and  C_4
REMARK    3  A    between atoms: C_13  and  S_14
REMARK    4  A    between atoms: S_14  and  N_17
REMARK                            x       y       z     vdW  Elec       q    Type
REMARK                         _______ _______ _______ _____ _____    ______ ____
ROOT
ATOM      1  C   UNL     1       3.173   5.329  19.450  0.00  0.00    +0.000 A 
ATOM      2  C   UNL     1       3.969   5.979  18.484  0.00  0.00    +0.000 A 
ATOM      3  C   UNL     1       5.045   5.315  17.883  0.00  0.00    +0.000 A 
ATOM      4  C   UNL     1       5.322   3.989  18.202  0.00  0.00    +0.000 A 
ATOM      5  C   UNL     1       4.536   3.334  19.149  0.00  0.00    +0.000 A 
ATOM      6  C   UNL     1       3.468   3.995  19.777  0.00  0.00    +0.000 A 
ATOM      7 CL   UNL     1       2.609   3.077  20.965  0.00  0.00    +0.000 Cl
ENDROOT
BRANCH   1   9
ATOM      8  O   UNL     1       1.134   5.585  20.541  0.00  0.00    +0.000 OA
ATOM      9  C   UNL     1       2.113   6.171  20.091  0.00  0.00    +0.000 C 
ATOM     10  N   UNL     1       2.310   7.540  20.114  0.00  0.00    +0.000 N 
ATOM     11  H   UNL     1       3.120   7.900  19.621  0.00  0.00    +0.000 HD
BRANCH  10  12
ATOM     12  C   UNL     1       1.414   8.513  20.608  0.00  0.00    +0.000 A 
ATOM     13  C   UNL     1       0.715   9.407  19.793  0.00  0.00    +0.000 A 
ATOM     14  C   UNL     1      -0.127  10.374  20.353  0.00  0.00    +0.000 A 
ATOM     15  C   UNL     1      -0.268  10.455  21.732  0.00  0.00    +0.000 A 
ATOM     16 BR   UNL     1      -1.382  11.782  22.487  0.00  0.00    +0.000 Br
ATOM     17  C   UNL     1       0.407   9.560  22.560  0.00  0.00    +0.000 A 
ATOM     18  C   UNL     1       1.238   8.586  21.996  0.00  0.00    +0.000 A 
ENDBRANCH  10  12
ENDBRANCH   1   9
BRANCH   3  19
ATOM     19  S   UNL     1       6.031   6.156  16.652  0.00  0.00    +0.000 S 
ATOM     20  O   UNL     1       5.141   6.572  15.588  0.00  0.00    +0.000 OA
ATOM     21  O   UNL     1       6.846   7.117  17.362  0.00  0.00    +0.000 OA
BRANCH  19  22
ATOM     22  N   UNL     1       7.069   4.960  16.083  0.00  0.00    +0.000 N 
ATOM     23  C   UNL     1       7.045   4.734  14.694  0.00  0.00    +0.000 A 
ATOM     24  C   UNL     1       7.739   5.528  13.799  0.00  0.00    +0.000 A 
ATOM     25  C   UNL     1       7.656   5.207  12.447  0.00  0.00    +0.000 A 
ATOM     26  C   UNL     1       6.868   4.130  12.051  0.00  0.00    +0.000 A 
ATOM     27  C   UNL     1       6.195   3.415  13.030  0.00  0.00    +0.000 A 
ATOM     28  N   UNL     1       6.266   3.693  14.350  0.00  0.00    +0.000 NA
ATOM     29  H   UNL     1       6.910   4.085  16.581  0.00  0.00    +0.000 HD
ENDBRANCH  19  22
ENDBRANCH   3  19
TORSDOF 4
ENDMDL
MODEL 7
REMARK VINA RESULT:      -8.6      1.291      1.559
REMARK  Name = 
REMARK  4 active torsions:
REMARK  status: ('A' for Active; 'I' for Inactive)
REMARK    1  A    between atoms: C_2  and  C_11
REMARK    2  A    between atoms: N_3  and  C_4
REMARK    3  A    between atoms: C_13  and  S_14
REMARK    4  A    between atoms: S_14  and  N_17
REMARK                            x       y       z     vdW  Elec       q    Type
REMARK                         _______ _______ _______ _____ _____    ______ ____
ROOT
ATOM      1  C   UNL     1       2.931   6.054  19.651  0.00  0.00    +0.000 A 
ATOM      2  C   UNL     1       4.284   6.263  19.312  0.00  0.00    +0.000 A 
ATOM      3  C   UNL     1       5.178   5.188  19.251  0.00  0.00    +0.000 A 
ATOM      4  C   UNL     1       4.735   3.889  19.485  0.00  0.00    +0.000 A 
ATOM      5  C   UNL     1       3.397   3.670  19.813  0.00  0.00    +0.000 A 
ATOM      6  C   UNL     1       2.495   4.742  19.901  0.00  0.00    +0.000 A 
ATOM      7 CL   UNL     1       0.880   4.330  20.362  0.00  0.00    +0.000 Cl
ENDROOT
BRANCH   1   9
ATOM      8  O   UNL     1       1.881   7.924  18.750  0.00  0.00    +0.000 OA
ATOM      9  C   UNL     1       2.096   7.291  19.778  0.00  0.00    +0.000 C 
ATOM     10  N   UNL     1       1.645   7.632  21.040  0.00  0.00    +0.000 N 
ATOM     11  H   UNL     1       1.976   7.072  21.818  0.00  0.00    +0.000 HD
BRANCH  10  12
ATOM     12  C   UNL     1       0.904   8.783  21.389  0.00  0.00    +0.000 A 
ATOM     13  C   UNL     1       0.925   9.970  20.654  0.00  0.00    +0.000 A 
ATOM     14  C   UNL     1       0.197  11.086  21.081  0.00  0.00    +0.000 A 
ATOM     15  C   UNL     1      -0.551  11.020  22.249  0.00  0.00    +0.000 A 
ATOM     16 BR   UNL     1      -1.509  12.539  22.840  0.00  0.00    +0.000 Br
ATOM     17  C   UNL     1      -0.599   9.839  22.986  0.00  0.00    +0.000 A 
ATOM     18  C   UNL     1       0.120   8.720  22.549  0.00  0.00    +0.000 A 
ENDBRANCH  10  12
ENDBRANCH   1   9
BRANCH   3  19
ATOM     19  S   UNL     1       6.884   5.475  18.806  0.00  0.00    +0.000 S 
ATOM     20  O   UNL     1       6.937   6.705  18.044  0.00  0.00    +0.000 OA
ATOM     21  O   UNL     1       7.659   5.315  20.018  0.00  0.00    +0.000 OA
BRANCH  19  22
ATOM     22  N   UNL     1       7.265   4.176  17.807  0.00  0.00    +0.000 N 
ATOM     23  C   UNL     1       6.855   4.290  16.466  0.00  0.00    +0.000 A 
ATOM     24  C   UNL     1       7.575   5.007  15.527  0.00  0.00    +0.000 A 
ATOM     25  C   UNL     1       7.085   5.044  14.225  0.00  0.00    +0.000 A 
ATOM     26  C   UNL     1       5.894   4.388  13.927  0.00  0.00    +0.000 A 
ATOM     27  C   UNL     1       5.241   3.719  14.951  0.00  0.00    +0.000 A 
ATOM     28  N   UNL     1       5.697   3.653  16.221  0.00  0.00    +0.000 NA
ATOM     29  H   UNL     1       6.913   3.307  18.206  0.00  0.00    +0.000 HD
ENDBRANCH  19  22
ENDBRANCH   3  19
TORSDOF 4
ENDMDL
MODEL 8
REMARK VINA RESULT:      -8.4      1.549      2.124
REMARK  Name = 
REMARK  4 active torsions:
REMARK  status: ('A' for Active; 'I' for Inactive)
REMARK    1  A    between atoms: C_2  and  C_11
REMARK    2  A    between atoms: N_3  and  C_4
REMARK    3  A    between atoms: C_13  and  S_14
REMARK    4  A    between atoms: S_14  and  N_17
REMARK                            x       y       z     vdW  Elec       q    Type
REMARK                         _______ _______ _______ _____ _____    ______ ____
ROOT
ATOM      1  C   UNL     1       3.164   6.169  19.240  0.00  0.00    +0.000 A 
ATOM      2  C   UNL     1       4.006   6.630  18.206  0.00  0.00    +0.000 A 
ATOM      3  C   UNL     1       5.052   5.833  17.729  0.00  0.00    +0.000 A 
ATOM      4  C   UNL     1       5.256   4.555  18.242  0.00  0.00    +0.000 A 
ATOM      5  C   UNL     1       4.425   4.086  19.259  0.00  0.00    +0.000 A 
ATOM      6  C   UNL     1       3.385   4.884  19.763  0.00  0.00    +0.000 A 
ATOM      7 CL   UNL     1       2.465   4.193  21.054  0.00  0.00    +0.000 Cl
ENDROOT
BRANCH   1   9
ATOM      8  O   UNL     1       1.481   6.816  20.709  0.00  0.00    +0.000 OA
ATOM      9  C   UNL     1       2.143   7.148  19.730  0.00  0.00    +0.000 C 
ATOM     10  N   UNL     1       2.012   8.338  19.039  0.00  0.00    +0.000 N 
ATOM     11  H   UNL     1       2.557   8.443  18.190  0.00  0.00    +0.000 HD
BRANCH  10  12
ATOM     12  C   UNL     1       1.075   9.363  19.293  0.00  0.00    +0.000 A 
ATOM     13  C   UNL     1       0.941  10.003  20.527  0.00  0.00    +0.000 A 
ATOM     14  C   UNL     1      -0.038  10.983  20.720  0.00  0.00    +0.000 A 
ATOM     15  C   UNL     1      -0.892  11.324  19.679  0.00  0.00    +0.000 A 
ATOM     16 BR   UNL     1      -2.233  12.628  19.952  0.00  0.00    +0.000 Br
ATOM     17  C   UNL     1      -0.761  10.711  18.435  0.00  0.00    +0.000 A 
ATOM     18  C   UNL     1       0.227   9.740  18.241  0.00  0.00    +0.000 A 
ENDBRANCH  10  12
ENDBRANCH   1   9
BRANCH   3  19
ATOM     19  S   UNL     1       6.096   6.434  16.409  0.00  0.00    +0.000 S 
ATOM     20  O   UNL     1       5.234   6.835  15.317  0.00  0.00    +0.000 OA
ATOM     21  O   UNL     1       7.023   7.369  17.009  0.00  0.00    +0.000 OA
BRANCH  19  22
ATOM     22  N   UNL     1       6.990   5.083  15.955  0.00  0.00    +0.000 N 
ATOM     23  C   UNL     1       6.954   4.752  14.588  0.00  0.00    +0.000 A 
ATOM     24  C   UNL     1       7.748   5.385  13.648  0.00  0.00    +0.000 A 
ATOM     25  C   UNL     1       7.641   4.971  12.324  0.00  0.00    +0.000 A 
ATOM     26  C   UNL     1       6.735   3.966  11.996  0.00  0.00    +0.000 A 
ATOM     27  C   UNL     1       5.970   3.416  13.014  0.00  0.00    +0.000 A 
ATOM     28  N   UNL     1       6.060   3.787  14.310  0.00  0.00    +0.000 NA
ATOM     29  H   UNL     1       6.721   4.275  16.516  0.00  0.00    +0.000 HD
ENDBRANCH  19  22
ENDBRANCH   3  19
TORSDOF 4
ENDMDL
MODEL 9
REMARK VINA RESULT:      -8.4      1.394      1.732
REMARK  Name = 
REMARK  4 active torsions:
REMARK  status: ('A' for Active; 'I' for Inactive)
REMARK    1  A    between atoms: C_2  and  C_11
REMARK    2  A    between atoms: N_3  and  C_4
REMARK    3  A    between atoms: C_13  and  S_14
REMARK    4  A    between atoms: S_14  and  N_17
REMARK                            x       y       z     vdW  Elec       q    Type
REMARK                         _______ _______ _______ _____ _____    ______ ____
ROOT
ATOM      1  C   UNL     1       2.877   6.796  18.883  0.00  0.00    +0.000 A 
ATOM      2  C   UNL     1       3.815   7.072  17.865  0.00  0.00    +0.000 A 
ATOM      3  C   UNL     1       4.805   6.139  17.537  0.00  0.00    +0.000 A 
ATOM      4  C   UNL     1       4.858   4.908  18.184  0.00  0.00    +0.000 A 
ATOM      5  C   UNL     1       3.930   4.622  19.186  0.00  0.00    +0.000 A 
ATOM      6  C   UNL     1       2.946   5.557  19.541  0.00  0.00    +0.000 A 
ATOM      7 CL   UNL     1       1.894   5.087  20.832  0.00  0.00    +0.000 Cl
ENDROOT
BRANCH   1   9
ATOM      8  O   UNL     1       1.576   8.627  18.279  0.00  0.00    +0.000 OA
ATOM      9  C   UNL     1       1.928   7.907  19.209  0.00  0.00    +0.000 C 
ATOM     10  N   UNL     1       1.533   8.047  20.526  0.00  0.00    +0.000 N 
ATOM     11  H   UNL     1       1.975   7.441  21.209  0.00  0.00    +0.000 HD
BRANCH  10  12
ATOM     12  C   UNL     1       0.701   9.058  21.056  0.00  0.00    +0.000 A 
ATOM     13  C   UNL     1       0.150  10.088  20.289  0.00  0.00    +0.000 A 
ATOM     14  C   UNL     1      -0.633  11.081  20.887  0.00  0.00    +0.000 A 
ATOM     15  C   UNL     1      -0.863  11.051  22.256  0.00  0.00    +0.000 A 
ATOM     16 BR   UNL     1      -1.896  12.411  23.066  0.00  0.00    +0.000 Br
ATOM     17  C   UNL     1      -0.337  10.022  23.034  0.00  0.00    +0.000 A 
ATOM     18  C   UNL     1       0.435   9.023  22.431  0.00  0.00    +0.000 A 
ENDBRANCH  10  12
ENDBRANCH   1   9
BRANCH   3  19
ATOM     19  S   UNL     1       5.973   6.506  16.234  0.00  0.00    +0.000 S 
ATOM     20  O   UNL     1       5.218   6.953  15.083  0.00  0.00    +0.000 OA
ATOM     21  O   UNL     1       6.999   7.339  16.823  0.00  0.00    +0.000 OA
BRANCH  19  22
ATOM     22  N   UNL     1       6.683   5.018  15.900  0.00  0.00    +0.000 N 
ATOM     23  C   UNL     1       6.724   4.646  14.543  0.00  0.00    +0.000 A 
ATOM     24  C   UNL     1       7.691   5.116  13.672  0.00  0.00    +0.000 A 
ATOM     25  C   UNL     1       7.646   4.674  12.353  0.00  0.00    +0.000 A 
ATOM     26  C   UNL     1       6.628   3.809  11.960  0.00  0.00    +0.000 A 
ATOM     27  C   UNL     1       5.696   3.420  12.910  0.00  0.00    +0.000 A 
ATOM     28  N   UNL     1       5.721   3.820  14.200  0.00  0.00    +0.000 NA
ATOM     29  H   UNL     1       6.241   4.282  16.449  0.00  0.00    +0.000 HD
ENDBRANCH  19  22
ENDBRANCH   3  19
TORSDOF 4
ENDMDL
