MODEL 1
REMARK VINA RESULT:      -7.9      0.000      0.000
REMARK  Name = 
REMARK  4 active torsions:
REMARK  status: ('A' for Active; 'I' for Inactive)
REMARK    1  A    between atoms: C_2  and  C_12
REMARK    2  A    between atoms: N_3  and  C_4
REMARK    3  A    between atoms: C_14  and  O_15
REMARK    4  A    between atoms: C_22  and  O_23
REMARK                            x       y       z     vdW  Elec       q    Type
REMARK                         _______ _______ _______ _____ _____    ______ ____
ROOT
ATOM      1  C   UNL     1       3.168   5.853  19.146  0.00  0.00    +0.000 A 
ATOM      2  N   UNL     1       3.710   4.709  19.647  0.00  0.00    +0.000 NA
ATOM      3  C   UNL     1       4.685   4.174  18.890  0.00  0.00    +0.000 A 
ATOM      4  C   UNL     1       5.164   4.664  17.664  0.00  0.00    +0.000 A 
ATOM      5  C   UNL     1       6.182   4.029  16.920  0.00  0.00    +0.000 A 
ATOM      6  C   UNL     1       6.615   4.543  15.699  0.00  0.00    +0.000 A 
ATOM      7  C   UNL     1       6.049   5.711  15.206  0.00  0.00    +0.000 A 
ATOM      8  C   UNL     1       5.043   6.353  15.926  0.00  0.00    +0.000 A 
ATOM      9  C   UNL     1       4.573   5.843  17.163  0.00  0.00    +0.000 A 
ATOM     10  C   UNL     1       3.540   6.435  17.923  0.00  0.00    +0.000 A 
ENDROOT
BRANCH   1  12
ATOM     11  O   UNL     1       1.413   5.880  20.723  0.00  0.00    +0.000 OA
ATOM     12  C   UNL     1       2.170   6.544  20.028  0.00  0.00    +0.000 C 
ATOM     13  N   UNL     1       2.132   7.932  19.916  0.00  0.00    +0.000 N 
ATOM     14  H   UNL     1       2.634   8.325  19.126  0.00  0.00    +0.000 HD
BRANCH  13  15
ATOM     15  C   UNL     1       1.295   8.769  20.691  0.00  0.00    +0.000 A 
ATOM     16  C   UNL     1       1.267   8.711  22.088  0.00  0.00    +0.000 A 
ATOM     17  C   UNL     1       0.371   9.482  22.826  0.00  0.00    +0.000 A 
ATOM     18  C   UNL     1      -0.508  10.342  22.173  0.00  0.00    +0.000 A 
ATOM     19 CL   UNL     1      -1.632  11.228  23.139  0.00  0.00    +0.000 Cl
ATOM     20  C   UNL     1      -0.454  10.451  20.778  0.00  0.00    +0.000 A 
ATOM     21 CL   UNL     1      -1.510  11.504  19.900  0.00  0.00    +0.000 Cl
ATOM     22  C   UNL     1       0.459   9.679  20.040  0.00  0.00    +0.000 A 
ENDBRANCH  13  15
ENDBRANCH   1  12
BRANCH   3  23
ATOM     23  O   UNL     1       5.225   3.049  19.440  0.00  0.00    +0.000 OA
ATOM     24  H   UNL     1       5.603   3.402  20.262  0.00  0.00    +0.000 HD
ENDBRANCH   3  23
BRANCH  10  25
ATOM     25  O   UNL     1       2.847   7.517  17.452  0.00  0.00    +0.000 OA
ATOM     26  H   UNL     1       1.910   7.306  17.336  0.00  0.00    +0.000 HD
ENDBRANCH  10  25
TORSDOF 4
ENDMDL
MODEL 2
REMARK VINA RESULT:      -7.7      3.880      8.199
REMARK  Name = 
REMARK  4 active torsions:
REMARK  status: ('A' for Active; 'I' for Inactive)
REMARK    1  A    between atoms: C_2  and  C_12
REMARK    2  A    between atoms: N_3  and  C_4
REMARK    3  A    between atoms: C_14  and  O_15
REMARK    4  A    between atoms: C_22  and  O_23
REMARK                            x       y       z     vdW  Elec       q    Type
REMARK                         _______ _______ _______ _____ _____    ______ ____
ROOT
ATOM      1  C   UNL     1       0.940   9.633  19.695  0.00  0.00    +0.000 A 
ATOM      2  N   UNL     1       1.243   9.415  21.004  0.00  0.00    +0.000 NA
ATOM      3  C   UNL     1       0.450  10.063  21.877  0.00  0.00    +0.000 A 
ATOM      4  C   UNL     1      -0.613  10.927  21.567  0.00  0.00    +0.000 A 
ATOM      5  C   UNL     1      -1.388  11.585  22.548  0.00  0.00    +0.000 A 
ATOM      6  C   UNL     1      -2.424  12.447  22.193  0.00  0.00    +0.000 A 
ATOM      7  C   UNL     1      -2.716  12.656  20.852  0.00  0.00    +0.000 A 
ATOM      8  C   UNL     1      -1.963  12.015  19.869  0.00  0.00    +0.000 A 
ATOM      9  C   UNL     1      -0.894  11.145  20.201  0.00  0.00    +0.000 A 
ATOM     10  C   UNL     1      -0.080  10.489  19.250  0.00  0.00    +0.000 A 
ENDROOT
BRANCH   1  12
ATOM     11  O   UNL     1       1.839   9.229  17.550  0.00  0.00    +0.000 OA
ATOM     12  C   UNL     1       1.722   8.826  18.700  0.00  0.00    +0.000 C 
ATOM     13  N   UNL     1       2.197   7.602  19.164  0.00  0.00    +0.000 N 
ATOM     14  H   UNL     1       1.815   7.287  20.050  0.00  0.00    +0.000 HD
BRANCH  13  15
ATOM     15  C   UNL     1       2.993   6.716  18.398  0.00  0.00    +0.000 A 
ATOM     16  C   UNL     1       4.153   7.134  17.739  0.00  0.00    +0.000 A 
ATOM     17  C   UNL     1       4.871   6.265  16.918  0.00  0.00    +0.000 A 
ATOM     18  C   UNL     1       4.444   4.950  16.756  0.00  0.00    +0.000 A 
ATOM     19 CL   UNL     1       5.343   3.940  15.683  0.00  0.00    +0.000 Cl
ATOM     20  C   UNL     1       3.314   4.503  17.454  0.00  0.00    +0.000 A 
ATOM     21 CL   UNL     1       2.731   2.880  17.307  0.00  0.00    +0.000 Cl
ATOM     22  C   UNL     1       2.601   5.380  18.288  0.00  0.00    +0.000 A 
ENDBRANCH  13  15
ENDBRANCH   1  12
BRANCH   3  23
ATOM     23  O   UNL     1       0.763   9.794  23.176  0.00  0.00    +0.000 OA
ATOM     24  H   UNL     1       0.805   8.824  23.164  0.00  0.00    +0.000 HD
ENDBRANCH   3  23
BRANCH  10  25
ATOM     25  O   UNL     1      -0.222  10.733  17.912  0.00  0.00    +0.000 OA
ATOM     26  H   UNL     1      -0.247   9.906  17.409  0.00  0.00    +0.000 HD
ENDBRANCH  10  25
TORSDOF 4
ENDMDL
MODEL 3
REMARK VINA RESULT:      -7.5      3.902      8.172
REMARK  Name = 
REMARK  4 active torsions:
REMARK  status: ('A' for Active; 'I' for Inactive)
REMARK    1  A    between atoms: C_2  and  C_12
REMARK    2  A    between atoms: N_3  and  C_4
REMARK    3  A    between atoms: C_14  and  O_15
REMARK    4  A    between atoms: C_22  and  O_23
REMARK                            x       y       z     vdW  Elec       q    Type
REMARK                         _______ _______ _______ _____ _____    ______ ____
ROOT
ATOM      1  C   UNL     1       0.955   9.571  19.734  0.00  0.00    +0.000 A 
ATOM      2  N   UNL     1       1.269   9.333  21.038  0.00  0.00    +0.000 NA
ATOM      3  C   UNL     1       0.500   9.988  21.927  0.00  0.00    +0.000 A 
ATOM      4  C   UNL     1      -0.550  10.876  21.639  0.00  0.00    +0.000 A 
ATOM      5  C   UNL     1      -1.299  11.538  22.636  0.00  0.00    +0.000 A 
ATOM      6  C   UNL     1      -2.323  12.424  22.304  0.00  0.00    +0.000 A 
ATOM      7  C   UNL     1      -2.627  12.652  20.968  0.00  0.00    +0.000 A 
ATOM      8  C   UNL     1      -1.899  12.007  19.970  0.00  0.00    +0.000 A 
ATOM      9  C   UNL     1      -0.843  11.113  20.280  0.00  0.00    +0.000 A 
ATOM     10  C   UNL     1      -0.054  10.452  19.312  0.00  0.00    +0.000 A 
ENDROOT
BRANCH   1  12
ATOM     11  O   UNL     1       1.844   9.186  17.582  0.00  0.00    +0.000 OA
ATOM     12  C   UNL     1       1.708   8.760  18.722  0.00  0.00    +0.000 C 
ATOM     13  N   UNL     1       2.134   7.507  19.156  0.00  0.00    +0.000 N 
ATOM     14  H   UNL     1       1.736   7.185  20.033  0.00  0.00    +0.000 HD
BRANCH  13  15
ATOM     15  C   UNL     1       2.897   6.610  18.370  0.00  0.00    +0.000 A 
ATOM     16  C   UNL     1       2.423   5.346  18.007  0.00  0.00    +0.000 A 
ATOM     17  C   UNL     1       3.227   4.446  17.309  0.00  0.00    +0.000 A 
ATOM     18  C   UNL     1       4.521   4.806  16.945  0.00  0.00    +0.000 A 
ATOM     19 CL   UNL     1       5.486   3.628  16.132  0.00  0.00    +0.000 Cl
ATOM     20  C   UNL     1       4.989   6.090  17.254  0.00  0.00    +0.000 A 
ATOM     21 CL   UNL     1       6.584   6.611  16.828  0.00  0.00    +0.000 Cl
ATOM     22  C   UNL     1       4.171   6.996  17.949  0.00  0.00    +0.000 A 
ENDBRANCH  13  15
ENDBRANCH   1  12
BRANCH   3  23
ATOM     23  O   UNL     1       0.823   9.698  23.220  0.00  0.00    +0.000 OA
ATOM     24  H   UNL     1       1.766   9.486  23.137  0.00  0.00    +0.000 HD
ENDBRANCH   3  23
BRANCH  10  25
ATOM     25  O   UNL     1      -0.208  10.713  17.977  0.00  0.00    +0.000 OA
ATOM     26  H   UNL     1      -0.855  10.114  17.579  0.00  0.00    +0.000 HD
ENDBRANCH  10  25
TORSDOF 4
ENDMDL
MODEL 4
REMARK VINA RESULT:      -7.5      3.817      8.273
REMARK  Name = 
REMARK  4 active torsions:
REMARK  status: ('A' for Active; 'I' for Inactive)
REMARK    1  A    between atoms: C_2  and  C_12
REMARK    2  A    between atoms: N_3  and  C_4
REMARK    3  A    between atoms: C_14  and  O_15
REMARK    4  A    between atoms: C_22  and  O_23
REMARK                            x       y       z     vdW  Elec       q    Type
REMARK                         _______ _______ _______ _____ _____    ______ ____
ROOT
ATOM      1  C   UNL     1       1.206   9.245  19.063  0.00  0.00    +0.000 A 
ATOM      2  N   UNL     1       0.551  10.285  18.476  0.00  0.00    +0.000 NA
ATOM      3  C   UNL     1      -0.203  11.016  19.316  0.00  0.00    +0.000 A 
ATOM      4  C   UNL     1      -0.382  10.800  20.693  0.00  0.00    +0.000 A 
ATOM      5  C   UNL     1      -1.210  11.608  21.503  0.00  0.00    +0.000 A 
ATOM      6  C   UNL     1      -1.371  11.345  22.862  0.00  0.00    +0.000 A 
ATOM      7  C   UNL     1      -0.694  10.280  23.441  0.00  0.00    +0.000 A 
ATOM      8  C   UNL     1       0.128   9.472  22.658  0.00  0.00    +0.000 A 
ATOM      9  C   UNL     1       0.297   9.706  21.270  0.00  0.00    +0.000 A 
ATOM     10  C   UNL     1       1.095   8.906  20.422  0.00  0.00    +0.000 A 
ENDROOT
BRANCH   1  12
ATOM     11  O   UNL     1       2.537   8.989  17.132  0.00  0.00    +0.000 OA
ATOM     12  C   UNL     1       2.154   8.488  18.182  0.00  0.00    +0.000 C 
ATOM     13  N   UNL     1       2.468   7.199  18.606  0.00  0.00    +0.000 N 
ATOM     14  H   UNL     1       1.888   6.827  19.351  0.00  0.00    +0.000 HD
BRANCH  13  15
ATOM     15  C   UNL     1       3.376   6.342  17.941  0.00  0.00    +0.000 A 
ATOM     16  C   UNL     1       4.433   6.830  17.166  0.00  0.00    +0.000 A 
ATOM     17  C   UNL     1       5.261   5.968  16.448  0.00  0.00    +0.000 A 
ATOM     18  C   UNL     1       5.053   4.593  16.508  0.00  0.00    +0.000 A 
ATOM     19 CL   UNL     1       6.076   3.583  15.552  0.00  0.00    +0.000 Cl
ATOM     20  C   UNL     1       4.032   4.087  17.324  0.00  0.00    +0.000 A 
ATOM     21 CL   UNL     1       3.720   2.390  17.453  0.00  0.00    +0.000 Cl
ATOM     22  C   UNL     1       3.207   4.960  18.053  0.00  0.00    +0.000 A 
ENDBRANCH  13  15
ENDBRANCH   1  12
BRANCH   3  23
ATOM     23  O   UNL     1      -0.815  12.067  18.699  0.00  0.00    +0.000 OA
ATOM     24  H   UNL     1      -1.751  11.842  18.824  0.00  0.00    +0.000 HD
ENDBRANCH   3  23
BRANCH  10  25
ATOM     25  O   UNL     1       1.698   7.769  20.886  0.00  0.00    +0.000 OA
ATOM     26  H   UNL     1       1.859   7.143  20.166  0.00  0.00    +0.000 HD
ENDBRANCH  10  25
TORSDOF 4
ENDMDL
MODEL 5
REMARK VINA RESULT:      -7.5      4.004      7.982
REMARK  Name = 
REMARK  4 active torsions:
REMARK  status: ('A' for Active; 'I' for Inactive)
REMARK    1  A    between atoms: C_2  and  C_12
REMARK    2  A    between atoms: N_3  and  C_4
REMARK    3  A    between atoms: C_14  and  O_15
REMARK    4  A    between atoms: C_22  and  O_23
REMARK                            x       y       z     vdW  Elec       q    Type
REMARK                         _______ _______ _______ _____ _____    ______ ____
ROOT
ATOM      1  C   UNL     1       1.065   8.874  20.745  0.00  0.00    +0.000 A 
ATOM      2  N   UNL     1       1.087   8.815  22.106  0.00  0.00    +0.000 NA
ATOM      3  C   UNL     1       0.392   9.790  22.719  0.00  0.00    +0.000 A 
ATOM      4  C   UNL     1      -0.315  10.835  22.102  0.00  0.00    +0.000 A 
ATOM      5  C   UNL     1      -1.007  11.833  22.823  0.00  0.00    +0.000 A 
ATOM      6  C   UNL     1      -1.682  12.862  22.169  0.00  0.00    +0.000 A 
ATOM      7  C   UNL     1      -1.692  12.904  20.781  0.00  0.00    +0.000 A 
ATOM      8  C   UNL     1      -1.016  11.928  20.052  0.00  0.00    +0.000 A 
ATOM      9  C   UNL     1      -0.308  10.879  20.692  0.00  0.00    +0.000 A 
ATOM     10  C   UNL     1       0.417   9.878  20.007  0.00  0.00    +0.000 A 
ENDROOT
BRANCH   1  12
ATOM     11  O   UNL     1       2.299   7.929  18.969  0.00  0.00    +0.000 OA
ATOM     12  C   UNL     1       1.722   7.730  20.031  0.00  0.00    +0.000 C 
ATOM     13  N   UNL     1       1.546   6.478  20.615  0.00  0.00    +0.000 N 
ATOM     14  H   UNL     1       0.843   6.427  21.345  0.00  0.00    +0.000 HD
BRANCH  13  15
ATOM     15  C   UNL     1       2.122   5.283  20.122  0.00  0.00    +0.000 A 
ATOM     16  C   UNL     1       3.502   5.132  19.955  0.00  0.00    +0.000 A 
ATOM     17  C   UNL     1       4.039   3.979  19.385  0.00  0.00    +0.000 A 
ATOM     18  C   UNL     1       3.198   2.944  18.985  0.00  0.00    +0.000 A 
ATOM     19 CL   UNL     1       3.920   1.567  18.235  0.00  0.00    +0.000 Cl
ATOM     20  C   UNL     1       1.818   3.059  19.197  0.00  0.00    +0.000 A 
ATOM     21 CL   UNL     1       0.714   1.810  18.733  0.00  0.00    +0.000 Cl
ATOM     22  C   UNL     1       1.284   4.219  19.782  0.00  0.00    +0.000 A 
ENDBRANCH  13  15
ENDBRANCH   1  12
BRANCH   3  23
ATOM     23  O   UNL     1       0.410   9.678  24.078  0.00  0.00    +0.000 OA
ATOM     24  H   UNL     1       1.187   9.112  24.211  0.00  0.00    +0.000 HD
ENDBRANCH   3  23
BRANCH  10  25
ATOM     25  O   UNL     1       0.558   9.914  18.647  0.00  0.00    +0.000 OA
ATOM     26  H   UNL     1       0.307  10.780  18.295  0.00  0.00    +0.000 HD
ENDBRANCH  10  25
TORSDOF 4
ENDMDL
MODEL 6
REMARK VINA RESULT:      -7.5      2.548      3.562
REMARK  Name = 
REMARK  4 active torsions:
REMARK  status: ('A' for Active; 'I' for Inactive)
REMARK    1  A    between atoms: C_2  and  C_12
REMARK    2  A    between atoms: N_3  and  C_4
REMARK    3  A    between atoms: C_14  and  O_15
REMARK    4  A    between atoms: C_22  and  O_23
REMARK                            x       y       z     vdW  Elec       q    Type
REMARK                         _______ _______ _______ _____ _____    ______ ____
ROOT
ATOM      1  C   UNL     1       2.574   6.684  18.874  0.00  0.00    +0.000 A 
ATOM      2  N   UNL     1       3.474   6.692  17.852  0.00  0.00    +0.000 NA
ATOM      3  C   UNL     1       3.874   5.473  17.450  0.00  0.00    +0.000 A 
ATOM      4  C   UNL     1       3.473   4.236  17.982  0.00  0.00    +0.000 A 
ATOM      5  C   UNL     1       3.957   2.996  17.512  0.00  0.00    +0.000 A 
ATOM      6  C   UNL     1       3.542   1.794  18.082  0.00  0.00    +0.000 A 
ATOM      7  C   UNL     1       2.623   1.807  19.123  0.00  0.00    +0.000 A 
ATOM      8  C   UNL     1       2.133   3.021  19.601  0.00  0.00    +0.000 A 
ATOM      9  C   UNL     1       2.550   4.260  19.050  0.00  0.00    +0.000 A 
ATOM     10  C   UNL     1       2.109   5.521  19.510  0.00  0.00    +0.000 A 
ENDROOT
BRANCH   1  12
ATOM     11  O   UNL     1       1.822   8.280  20.442  0.00  0.00    +0.000 OA
ATOM     12  C   UNL     1       2.011   8.020  19.260  0.00  0.00    +0.000 C 
ATOM     13  N   UNL     1       1.662   8.852  18.199  0.00  0.00    +0.000 N 
ATOM     14  H   UNL     1       1.638   8.413  17.284  0.00  0.00    +0.000 HD
BRANCH  13  15
ATOM     15  C   UNL     1       1.159  10.166  18.352  0.00  0.00    +0.000 A 
ATOM     16  C   UNL     1       1.994  11.286  18.395  0.00  0.00    +0.000 A 
ATOM     17  C   UNL     1       1.484  12.560  18.635  0.00  0.00    +0.000 A 
ATOM     18  C   UNL     1       0.116  12.738  18.821  0.00  0.00    +0.000 A 
ATOM     19 CL   UNL     1      -0.448  14.332  19.170  0.00  0.00    +0.000 Cl
ATOM     20  C   UNL     1      -0.740  11.632  18.726  0.00  0.00    +0.000 A 
ATOM     21 CL   UNL     1      -2.451  11.778  18.938  0.00  0.00    +0.000 Cl
ATOM     22  C   UNL     1      -0.220  10.352  18.474  0.00  0.00    +0.000 A 
ENDBRANCH  13  15
ENDBRANCH   1  12
BRANCH   3  23
ATOM     23  O   UNL     1       4.749   5.521  16.405  0.00  0.00    +0.000 OA
ATOM     24  H   UNL     1       5.578   5.263  16.839  0.00  0.00    +0.000 HD
ENDBRANCH   3  23
BRANCH  10  25
ATOM     25  O   UNL     1       1.298   5.629  20.607  0.00  0.00    +0.000 OA
ATOM     26  H   UNL     1       1.063   6.552  20.775  0.00  0.00    +0.000 HD
ENDBRANCH  10  25
TORSDOF 4
ENDMDL
MODEL 7
REMARK VINA RESULT:      -7.4      2.708      3.778
REMARK  Name = 
REMARK  4 active torsions:
REMARK  status: ('A' for Active; 'I' for Inactive)
REMARK    1  A    between atoms: C_2  and  C_12
REMARK    2  A    between atoms: N_3  and  C_4
REMARK    3  A    between atoms: C_14  and  O_15
REMARK    4  A    between atoms: C_22  and  O_23
REMARK                            x       y       z     vdW  Elec       q    Type
REMARK                         _______ _______ _______ _____ _____    ______ ____
ROOT
ATOM      1  C   UNL     1       2.581   6.681  18.916  0.00  0.00    +0.000 A 
ATOM      2  N   UNL     1       3.480   6.692  17.893  0.00  0.00    +0.000 NA
ATOM      3  C   UNL     1       3.860   5.473  17.469  0.00  0.00    +0.000 A 
ATOM      4  C   UNL     1       3.440   4.234  17.982  0.00  0.00    +0.000 A 
ATOM      5  C   UNL     1       3.903   2.995  17.489  0.00  0.00    +0.000 A 
ATOM      6  C   UNL     1       3.471   1.790  18.040  0.00  0.00    +0.000 A 
ATOM      7  C   UNL     1       2.554   1.800  19.083  0.00  0.00    +0.000 A 
ATOM      8  C   UNL     1       2.084   3.014  19.582  0.00  0.00    +0.000 A 
ATOM      9  C   UNL     1       2.519   4.255  19.051  0.00  0.00    +0.000 A 
ATOM     10  C   UNL     1       2.099   5.515  19.532  0.00  0.00    +0.000 A 
ENDROOT
BRANCH   1  12
ATOM     11  O   UNL     1       1.844   8.257  20.510  0.00  0.00    +0.000 OA
ATOM     12  C   UNL     1       2.041   8.019  19.325  0.00  0.00    +0.000 C 
ATOM     13  N   UNL     1       1.719   8.881  18.279  0.00  0.00    +0.000 N 
ATOM     14  H   UNL     1       1.697   8.463  17.354  0.00  0.00    +0.000 HD
BRANCH  13  15
ATOM     15  C   UNL     1       1.240  10.201  18.455  0.00  0.00    +0.000 A 
ATOM     16  C   UNL     1      -0.108  10.480  18.697  0.00  0.00    +0.000 A 
ATOM     17  C   UNL     1      -0.571  11.793  18.779  0.00  0.00    +0.000 A 
ATOM     18  C   UNL     1       0.318  12.854  18.634  0.00  0.00    +0.000 A 
ATOM     19 CL   UNL     1      -0.326  14.455  18.688  0.00  0.00    +0.000 Cl
ATOM     20  C   UNL     1       1.680  12.588  18.445  0.00  0.00    +0.000 A 
ATOM     21 CL   UNL     1       2.844  13.857  18.265  0.00  0.00    +0.000 Cl
ATOM     22  C   UNL     1       2.143  11.264  18.374  0.00  0.00    +0.000 A 
ENDBRANCH  13  15
ENDBRANCH   1  12
BRANCH   3  23
ATOM     23  O   UNL     1       4.734   5.525  16.423  0.00  0.00    +0.000 OA
ATOM     24  H   UNL     1       4.354   4.861  15.826  0.00  0.00    +0.000 HD
ENDBRANCH   3  23
BRANCH  10  25
ATOM     25  O   UNL     1       1.292   5.617  20.633  0.00  0.00    +0.000 OA
ATOM     26  H   UNL     1       1.225   4.769  21.094  0.00  0.00    +0.000 HD
ENDBRANCH  10  25
TORSDOF 4
ENDMDL
MODEL 8
REMARK VINA RESULT:      -7.4      4.031      8.010
REMARK  Name = 
REMARK  4 active torsions:
REMARK  status: ('A' for Active; 'I' for Inactive)
REMARK    1  A    between atoms: C_2  and  C_12
REMARK    2  A    between atoms: N_3  and  C_4
REMARK    3  A    between atoms: C_14  and  O_15
REMARK    4  A    between atoms: C_22  and  O_23
REMARK                            x       y       z     vdW  Elec       q    Type
REMARK                         _______ _______ _______ _____ _____    ______ ____
ROOT
ATOM      1  C   UNL     1       1.046   8.830  20.806  0.00  0.00    +0.000 A 
ATOM      2  N   UNL     1       1.071   8.798  22.168  0.00  0.00    +0.000 NA
ATOM      3  C   UNL     1       0.352   9.766  22.763  0.00  0.00    +0.000 A 
ATOM      4  C   UNL     1      -0.383  10.781  22.128  0.00  0.00    +0.000 A 
ATOM      5  C   UNL     1      -1.100  11.775  22.831  0.00  0.00    +0.000 A 
ATOM      6  C   UNL     1      -1.803  12.773  22.158  0.00  0.00    +0.000 A 
ATOM      7  C   UNL     1      -1.816  12.788  20.769  0.00  0.00    +0.000 A 
ATOM      8  C   UNL     1      -1.115  11.815  20.058  0.00  0.00    +0.000 A 
ATOM      9  C   UNL     1      -0.379  10.797  20.717  0.00  0.00    +0.000 A 
ATOM     10  C   UNL     1       0.371   9.803  20.050  0.00  0.00    +0.000 A 
ENDROOT
BRANCH   1  12
ATOM     11  O   UNL     1       2.336   7.892  19.067  0.00  0.00    +0.000 OA
ATOM     12  C   UNL     1       1.732   7.691  20.113  0.00  0.00    +0.000 C 
ATOM     13  N   UNL     1       1.549   6.439  20.695  0.00  0.00    +0.000 N 
ATOM     14  H   UNL     1       0.826   6.384  21.405  0.00  0.00    +0.000 HD
BRANCH  13  15
ATOM     15  C   UNL     1       2.148   5.247  20.221  0.00  0.00    +0.000 A 
ATOM     16  C   UNL     1       1.500   4.010  20.282  0.00  0.00    +0.000 A 
ATOM     17  C   UNL     1       2.143   2.836  19.891  0.00  0.00    +0.000 A 
ATOM     18  C   UNL     1       3.450   2.885  19.415  0.00  0.00    +0.000 A 
ATOM     19 CL   UNL     1       4.211   1.392  19.001  0.00  0.00    +0.000 Cl
ATOM     20  C   UNL     1       4.092   4.125  19.298  0.00  0.00    +0.000 A 
ATOM     21 CL   UNL     1       5.713   4.263  18.707  0.00  0.00    +0.000 Cl
ATOM     22  C   UNL     1       3.435   5.305  19.683  0.00  0.00    +0.000 A 
ENDBRANCH  13  15
ENDBRANCH   1  12
BRANCH   3  23
ATOM     23  O   UNL     1       0.374   9.681  24.124  0.00  0.00    +0.000 OA
ATOM     24  H   UNL     1      -0.255   8.958  24.279  0.00  0.00    +0.000 HD
ENDBRANCH   3  23
BRANCH  10  25
ATOM     25  O   UNL     1       0.510   9.816  18.689  0.00  0.00    +0.000 OA
ATOM     26  H   UNL     1       0.956   9.016  18.378  0.00  0.00    +0.000 HD
ENDBRANCH  10  25
TORSDOF 4
ENDMDL
MODEL 9
REMARK VINA RESULT:      -7.4      3.863      8.127
REMARK  Name = 
REMARK  4 active torsions:
REMARK  status: ('A' for Active; 'I' for Inactive)
REMARK    1  A    between atoms: C_2  and  C_12
REMARK    2  A    between atoms: N_3  and  C_4
REMARK    3  A    between atoms: C_14  and  O_15
REMARK    4  A    between atoms: C_22  and  O_23
REMARK                            x       y       z     vdW  Elec       q    Type
REMARK                         _______ _______ _______ _____ _____    ______ ____
ROOT
ATOM      1  C   UNL     1       0.967   9.314  20.087  0.00  0.00    +0.000 A 
ATOM      2  N   UNL     1       0.406   8.571  21.081  0.00  0.00    +0.000 NA
ATOM      3  C   UNL     1      -0.284   9.284  21.989  0.00  0.00    +0.000 A 
ATOM      4  C   UNL     1      -0.456  10.678  22.013  0.00  0.00    +0.000 A 
ATOM      5  C   UNL     1      -1.183  11.353  23.018  0.00  0.00    +0.000 A 
ATOM      6  C   UNL     1      -1.314  12.740  23.009  0.00  0.00    +0.000 A 
ATOM      7  C   UNL     1      -0.734  13.479  21.986  0.00  0.00    +0.000 A 
ATOM      8  C   UNL     1      -0.012  12.831  20.985  0.00  0.00    +0.000 A 
ATOM      9  C   UNL     1       0.150  11.422  20.978  0.00  0.00    +0.000 A 
ATOM     10  C   UNL     1       0.891  10.714  20.005  0.00  0.00    +0.000 A 
ENDROOT
BRANCH   1  12
ATOM     11  O   UNL     1       1.535   8.922  17.830  0.00  0.00    +0.000 OA
ATOM     12  C   UNL     1       1.634   8.539  18.989  0.00  0.00    +0.000 C 
ATOM     13  N   UNL     1       2.263   7.361  19.384  0.00  0.00    +0.000 N 
ATOM     14  H   UNL     1       2.051   7.042  20.325  0.00  0.00    +0.000 HD
BRANCH  13  15
ATOM     15  C   UNL     1       2.985   6.514  18.511  0.00  0.00    +0.000 A 
ATOM     16  C   UNL     1       2.487   5.278  18.087  0.00  0.00    +0.000 A 
ATOM     17  C   UNL     1       3.253   4.421  17.298  0.00  0.00    +0.000 A 
ATOM     18  C   UNL     1       4.535   4.798  16.905  0.00  0.00    +0.000 A 
ATOM     19 CL   UNL     1       5.455   3.670  15.977  0.00  0.00    +0.000 Cl
ATOM     20  C   UNL     1       5.026   6.056  17.277  0.00  0.00    +0.000 A 
ATOM     21 CL   UNL     1       6.605   6.594  16.819  0.00  0.00    +0.000 Cl
ATOM     22  C   UNL     1       4.245   6.919  18.063  0.00  0.00    +0.000 A 
ENDBRANCH  13  15
ENDBRANCH   1  12
BRANCH   3  23
ATOM     23  O   UNL     1      -0.859   8.504  22.948  0.00  0.00    +0.000 OA
ATOM     24  H   UNL     1      -0.588   7.617  22.660  0.00  0.00    +0.000 HD
ENDBRANCH   3  23
BRANCH  10  25
ATOM     25  O   UNL     1       1.593  11.374  19.034  0.00  0.00    +0.000 OA
ATOM     26  H   UNL     1       1.068  11.464  18.226  0.00  0.00    +0.000 HD
ENDBRANCH  10  25
TORSDOF 4
ENDMDL
