MODEL 1
REMARK VINA RESULT:      -8.7      0.000      0.000
REMARK  Name = 
REMARK  4 active torsions:
REMARK  status: ('A' for Active; 'I' for Inactive)
REMARK    1  A    between atoms: C_5  and  C_6
REMARK    2  A    between atoms: C_8  and  C_9
REMARK    3  A    between atoms: C_9  and  C_10
REMARK    4  A    between atoms: C_10  and  C_11
REMARK                            x       y       z     vdW  Elec       q    Type
REMARK                         _______ _______ _______ _____ _____    ______ ____
ROOT
ATOM      1  C   UNL     1       2.527   7.265  18.504  0.00  0.00    +0.000 A 
ATOM      2  C   UNL     1       1.948   8.397  17.955  0.00  0.00    +0.000 A 
ATOM      3  C   UNL     1       1.293   9.136  18.987  0.00  0.00    +0.000 A 
ATOM      4  C   UNL     1       1.559   8.443  20.152  0.00  0.00    +0.000 A 
ATOM      5 BR   UNL     1       1.035   8.907  21.882  0.00  0.00    +0.000 Br
ATOM      6  N   UNL     1       2.283   7.326  19.858  0.00  0.00    +0.000 N 
ATOM      7  H   UNL     1       2.595   6.629  20.525  0.00  0.00    +0.000 HD
ENDROOT
BRANCH   1  12
ATOM      8  N   UNL     1       0.894   2.056  18.706  0.00  0.00    +0.000 N 
ATOM      9  C   UNL     1       1.738   3.007  18.301  0.00  0.00    +0.000 A 
ATOM     10  N   UNL     1       1.682   4.285  18.573  0.00  0.00    +0.000 NA
ATOM     11  C   UNL     1       2.785   4.844  17.943  0.00  0.00    +0.000 A 
ATOM     12  C   UNL     1       3.245   6.170  17.878  0.00  0.00    +0.000 A 
ATOM     13  N   UNL     1       4.372   6.475  17.180  0.00  0.00    +0.000 NA
ATOM     14  C   UNL     1       5.036   5.479  16.549  0.00  0.00    +0.000 A 
ATOM     15  C   UNL     1       4.665   4.141  16.548  0.00  0.00    +0.000 A 
ATOM     16  C   UNL     1       3.509   3.862  17.272  0.00  0.00    +0.000 A 
ATOM     17  N   UNL     1       2.816   2.704  17.514  0.00  0.00    +0.000 N 
ATOM     18  H   UNL     1       0.036   2.354  19.162  0.00  0.00    +0.000 HD
ATOM     19  H   UNL     1       0.849   1.129  18.299  0.00  0.00    +0.000 HD
ATOM     20  H   UNL     1       3.055   1.783  17.183  0.00  0.00    +0.000 HD
ENDBRANCH   1  12
BRANCH   3  21
ATOM     21  C   UNL     1       0.509  10.408  18.830  0.00  0.00    +0.000 C 
BRANCH  21  22
ATOM     22  C   UNL     1      -0.944  10.311  19.317  0.00  0.00    +0.000 C 
BRANCH  22  23
ATOM     23  C   UNL     1      -1.934  10.492  18.191  0.00  0.00    +0.000 A 
ATOM     24  C   UNL     1      -1.751   9.821  16.976  0.00  0.00    +0.000 A 
ATOM     25  C   UNL     1      -2.649  10.003  15.924  0.00  0.00    +0.000 A 
ATOM     26  C   UNL     1      -3.738  10.862  16.073  0.00  0.00    +0.000 A 
ATOM     27  C   UNL     1      -3.932  11.530  17.279  0.00  0.00    +0.000 A 
ATOM     28  C   UNL     1      -3.032  11.350  18.335  0.00  0.00    +0.000 A 
ENDBRANCH  22  23
ENDBRANCH  21  22
ENDBRANCH   3  21
TORSDOF 4
ENDMDL
MODEL 2
REMARK VINA RESULT:      -8.7      0.182      1.001
REMARK  Name = 
REMARK  4 active torsions:
REMARK  status: ('A' for Active; 'I' for Inactive)
REMARK    1  A    between atoms: C_5  and  C_6
REMARK    2  A    between atoms: C_8  and  C_9
REMARK    3  A    between atoms: C_9  and  C_10
REMARK    4  A    between atoms: C_10  and  C_11
REMARK                            x       y       z     vdW  Elec       q    Type
REMARK                         _______ _______ _______ _____ _____    ______ ____
ROOT
ATOM      1  C   UNL     1       2.459   7.438  18.593  0.00  0.00    +0.000 A 
ATOM      2  C   UNL     1       1.866   8.564  18.046  0.00  0.00    +0.000 A 
ATOM      3  C   UNL     1       1.205   9.294  19.081  0.00  0.00    +0.000 A 
ATOM      4  C   UNL     1       1.482   8.604  20.244  0.00  0.00    +0.000 A 
ATOM      5 BR   UNL     1       0.959   9.061  21.977  0.00  0.00    +0.000 Br
ATOM      6  N   UNL     1       2.219   7.495  19.947  0.00  0.00    +0.000 N 
ATOM      7  H   UNL     1       2.541   6.802  20.613  0.00  0.00    +0.000 HD
ENDROOT
BRANCH   1  12
ATOM      8  N   UNL     1       0.867   2.215  18.766  0.00  0.00    +0.000 N 
ATOM      9  C   UNL     1       1.705   3.175  18.367  0.00  0.00    +0.000 A 
ATOM     10  N   UNL     1       1.638   4.451  18.645  0.00  0.00    +0.000 NA
ATOM     11  C   UNL     1       2.738   5.022  18.021  0.00  0.00    +0.000 A 
ATOM     12  C   UNL     1       3.188   6.352  17.963  0.00  0.00    +0.000 A 
ATOM     13  N   UNL     1       4.315   6.670  17.270  0.00  0.00    +0.000 NA
ATOM     14  C   UNL     1       4.989   5.682  16.638  0.00  0.00    +0.000 A 
ATOM     15  C   UNL     1       4.628   4.341  16.629  0.00  0.00    +0.000 A 
ATOM     16  C   UNL     1       3.473   4.049  17.348  0.00  0.00    +0.000 A 
ATOM     17  N   UNL     1       2.788   2.885  17.582  0.00  0.00    +0.000 N 
ATOM     18  H   UNL     1       0.006   2.504  19.220  0.00  0.00    +0.000 HD
ATOM     19  H   UNL     1       0.832   1.290  18.354  0.00  0.00    +0.000 HD
ATOM     20  H   UNL     1       3.035   1.967  17.248  0.00  0.00    +0.000 HD
ENDBRANCH   1  12
BRANCH   3  21
ATOM     21  C   UNL     1       0.406  10.558  18.927  0.00  0.00    +0.000 C 
BRANCH  21  22
ATOM     22  C   UNL     1      -1.068  10.418  19.334  0.00  0.00    +0.000 C 
BRANCH  22  23
ATOM     23  C   UNL     1      -1.999  10.556  18.154  0.00  0.00    +0.000 A 
ATOM     24  C   UNL     1      -3.120  11.393  18.234  0.00  0.00    +0.000 A 
ATOM     25  C   UNL     1      -3.997  11.506  17.156  0.00  0.00    +0.000 A 
ATOM     26  C   UNL     1      -3.768  10.782  15.986  0.00  0.00    +0.000 A 
ATOM     27  C   UNL     1      -2.654   9.951  15.894  0.00  0.00    +0.000 A 
ATOM     28  C   UNL     1      -1.773   9.835  16.975  0.00  0.00    +0.000 A 
ENDBRANCH  22  23
ENDBRANCH  21  22
ENDBRANCH   3  21
TORSDOF 4
ENDMDL
MODEL 3
REMARK VINA RESULT:      -8.7      1.484      1.807
REMARK  Name = 
REMARK  4 active torsions:
REMARK  status: ('A' for Active; 'I' for Inactive)
REMARK    1  A    between atoms: C_5  and  C_6
REMARK    2  A    between atoms: C_8  and  C_9
REMARK    3  A    between atoms: C_9  and  C_10
REMARK    4  A    between atoms: C_10  and  C_11
REMARK                            x       y       z     vdW  Elec       q    Type
REMARK                         _______ _______ _______ _____ _____    ______ ____
ROOT
ATOM      1  C   UNL     1       2.275   7.396  19.470  0.00  0.00    +0.000 A 
ATOM      2  C   UNL     1       1.815   8.437  18.682  0.00  0.00    +0.000 A 
ATOM      3  C   UNL     1       1.052   9.334  19.491  0.00  0.00    +0.000 A 
ATOM      4  C   UNL     1       1.135   8.825  20.772  0.00  0.00    +0.000 A 
ATOM      5 BR   UNL     1       0.400   9.556  22.324  0.00  0.00    +0.000 Br
ATOM      6  N   UNL     1       1.854   7.666  20.752  0.00  0.00    +0.000 N 
ATOM      7  H   UNL     1       2.049   7.076  21.553  0.00  0.00    +0.000 HD
ENDROOT
BRANCH   1  12
ATOM      8  N   UNL     1       1.831   2.628  22.100  0.00  0.00    +0.000 N 
ATOM      9  C   UNL     1       2.344   3.393  21.135  0.00  0.00    +0.000 A 
ATOM     10  N   UNL     1       2.095   4.657  20.907  0.00  0.00    +0.000 NA
ATOM     11  C   UNL     1       2.881   4.996  19.815  0.00  0.00    +0.000 A 
ATOM     12  C   UNL     1       3.034   6.207  19.120  0.00  0.00    +0.000 A 
ATOM     13  N   UNL     1       3.878   6.292  18.057  0.00  0.00    +0.000 NA
ATOM     14  C   UNL     1       4.564   5.187  17.683  0.00  0.00    +0.000 A 
ATOM     15  C   UNL     1       4.483   3.944  18.297  0.00  0.00    +0.000 A 
ATOM     16  C   UNL     1       3.612   3.892  19.382  0.00  0.00    +0.000 A 
ATOM     17  N   UNL     1       3.245   2.886  20.238  0.00  0.00    +0.000 N 
ATOM     18  H   UNL     1       1.063   3.012  22.643  0.00  0.00    +0.000 HD
ATOM     19  H   UNL     1       1.881   1.616  22.106  0.00  0.00    +0.000 HD
ATOM     20  H   UNL     1       3.582   1.937  20.224  0.00  0.00    +0.000 HD
ENDBRANCH   1  12
BRANCH   3  21
ATOM     21  C   UNL     1       0.340  10.578  19.038  0.00  0.00    +0.000 C 
BRANCH  21  22
ATOM     22  C   UNL     1      -1.146  10.619  19.418  0.00  0.00    +0.000 C 
BRANCH  22  23
ATOM     23  C   UNL     1      -2.042  10.664  18.202  0.00  0.00    +0.000 A 
ATOM     24  C   UNL     1      -3.187  11.471  18.199  0.00  0.00    +0.000 A 
ATOM     25  C   UNL     1      -4.031  11.498  17.089  0.00  0.00    +0.000 A 
ATOM     26  C   UNL     1      -3.744  10.716  15.971  0.00  0.00    +0.000 A 
ATOM     27  C   UNL     1      -2.605   9.914  15.961  0.00  0.00    +0.000 A 
ATOM     28  C   UNL     1      -1.758   9.885  17.074  0.00  0.00    +0.000 A 
ENDBRANCH  22  23
ENDBRANCH  21  22
ENDBRANCH   3  21
TORSDOF 4
ENDMDL
MODEL 4
REMARK VINA RESULT:      -8.4      1.031      2.676
REMARK  Name = 
REMARK  4 active torsions:
REMARK  status: ('A' for Active; 'I' for Inactive)
REMARK    1  A    between atoms: C_5  and  C_6
REMARK    2  A    between atoms: C_8  and  C_9
REMARK    3  A    between atoms: C_9  and  C_10
REMARK    4  A    between atoms: C_10  and  C_11
REMARK                            x       y       z     vdW  Elec       q    Type
REMARK                         _______ _______ _______ _____ _____    ______ ____
ROOT
ATOM      1  C   UNL     1       2.478   7.073  18.606  0.00  0.00    +0.000 A 
ATOM      2  C   UNL     1       1.996   8.221  18.001  0.00  0.00    +0.000 A 
ATOM      3  C   UNL     1       1.420   9.068  18.997  0.00  0.00    +0.000 A 
ATOM      4  C   UNL     1       1.635   8.415  20.195  0.00  0.00    +0.000 A 
ATOM      5 BR   UNL     1       1.173   9.013  21.902  0.00  0.00    +0.000 Br
ATOM      6  N   UNL     1       2.255   7.224  19.956  0.00  0.00    +0.000 N 
ATOM      7  H   UNL     1       2.511   6.538  20.656  0.00  0.00    +0.000 HD
ENDROOT
BRANCH   1  12
ATOM      8  N   UNL     1       7.562   6.941  16.610  0.00  0.00    +0.000 N 
ATOM      9  C   UNL     1       6.403   6.352  16.911  0.00  0.00    +0.000 A 
ATOM     10  N   UNL     1       5.346   6.907  17.445  0.00  0.00    +0.000 NA
ATOM     11  C   UNL     1       4.405   5.891  17.540  0.00  0.00    +0.000 A 
ATOM     12  C   UNL     1       3.089   5.886  18.033  0.00  0.00    +0.000 A 
ATOM     13  N   UNL     1       2.353   4.743  18.024  0.00  0.00    +0.000 NA
ATOM     14  C   UNL     1       2.915   3.612  17.536  0.00  0.00    +0.000 A 
ATOM     15  C   UNL     1       4.204   3.509  17.031  0.00  0.00    +0.000 A 
ATOM     16  C   UNL     1       4.930   4.697  17.053  0.00  0.00    +0.000 A 
ATOM     17  N   UNL     1       6.204   5.020  16.664  0.00  0.00    +0.000 N 
ATOM     18  H   UNL     1       7.706   7.889  16.946  0.00  0.00    +0.000 HD
ATOM     19  H   UNL     1       8.416   6.436  16.405  0.00  0.00    +0.000 HD
ATOM     20  H   UNL     1       6.882   4.396  16.257  0.00  0.00    +0.000 HD
ENDBRANCH   1  12
BRANCH   3  21
ATOM     21  C   UNL     1       0.750  10.396  18.779  0.00  0.00    +0.000 C 
BRANCH  21  22
ATOM     22  C   UNL     1      -0.663  10.487  19.371  0.00  0.00    +0.000 C 
BRANCH  22  23
ATOM     23  C   UNL     1      -1.724  10.577  18.299  0.00  0.00    +0.000 A 
ATOM     24  C   UNL     1      -1.621   9.801  17.138  0.00  0.00    +0.000 A 
ATOM     25  C   UNL     1      -2.584   9.897  16.134  0.00  0.00    +0.000 A 
ATOM     26  C   UNL     1      -3.660  10.772  16.276  0.00  0.00    +0.000 A 
ATOM     27  C   UNL     1      -3.775  11.545  17.430  0.00  0.00    +0.000 A 
ATOM     28  C   UNL     1      -2.810  11.451  18.438  0.00  0.00    +0.000 A 
ENDBRANCH  22  23
ENDBRANCH  21  22
ENDBRANCH   3  21
TORSDOF 4
ENDMDL
MODEL 5
REMARK VINA RESULT:      -8.3      1.746      1.997
REMARK  Name = 
REMARK  4 active torsions:
REMARK  status: ('A' for Active; 'I' for Inactive)
REMARK    1  A    between atoms: C_5  and  C_6
REMARK    2  A    between atoms: C_8  and  C_9
REMARK    3  A    between atoms: C_9  and  C_10
REMARK    4  A    between atoms: C_10  and  C_11
REMARK                            x       y       z     vdW  Elec       q    Type
REMARK                         _______ _______ _______ _____ _____    ______ ____
ROOT
ATOM      1  C   UNL     1       2.410   7.198  19.540  0.00  0.00    +0.000 A 
ATOM      2  C   UNL     1       2.002   8.166  18.638  0.00  0.00    +0.000 A 
ATOM      3  C   UNL     1       1.165   9.108  19.310  0.00  0.00    +0.000 A 
ATOM      4  C   UNL     1       1.149   8.702  20.630  0.00  0.00    +0.000 A 
ATOM      5 BR   UNL     1       0.281   9.537  22.055  0.00  0.00    +0.000 Br
ATOM      6  N   UNL     1       1.882   7.559  20.759  0.00  0.00    +0.000 N 
ATOM      7  H   UNL     1       2.019   7.036  21.616  0.00  0.00    +0.000 HD
ENDROOT
BRANCH   1  12
ATOM      8  N   UNL     1       1.528   2.500  22.186  0.00  0.00    +0.000 N 
ATOM      9  C   UNL     1       2.193   3.239  21.296  0.00  0.00    +0.000 A 
ATOM     10  N   UNL     1       1.989   4.497  20.999  0.00  0.00    +0.000 NA
ATOM     11  C   UNL     1       2.942   4.808  20.039  0.00  0.00    +0.000 A 
ATOM     12  C   UNL     1       3.209   6.000  19.346  0.00  0.00    +0.000 A 
ATOM     13  N   UNL     1       4.213   6.057  18.431  0.00  0.00    +0.000 NA
ATOM     14  C   UNL     1       4.945   4.942  18.200  0.00  0.00    +0.000 A 
ATOM     15  C   UNL     1       4.761   3.716  18.825  0.00  0.00    +0.000 A 
ATOM     16  C   UNL     1       3.727   3.693  19.756  0.00  0.00    +0.000 A 
ATOM     17  N   UNL     1       3.223   2.709  20.568  0.00  0.00    +0.000 N 
ATOM     18  H   UNL     1       0.684   2.898  22.588  0.00  0.00    +0.000 HD
ATOM     19  H   UNL     1       1.572   1.489  22.226  0.00  0.00    +0.000 HD
ATOM     20  H   UNL     1       3.554   1.760  20.633  0.00  0.00    +0.000 HD
ENDBRANCH   1  12
BRANCH   3  21
ATOM     21  C   UNL     1       0.476  10.300  18.704  0.00  0.00    +0.000 C 
BRANCH  21  22
ATOM     22  C   UNL     1      -0.695   9.941  17.780  0.00  0.00    +0.000 C 
BRANCH  22  23
ATOM     23  C   UNL     1      -1.978  10.620  18.198  0.00  0.00    +0.000 A 
ATOM     24  C   UNL     1      -3.189  10.279  17.583  0.00  0.00    +0.000 A 
ATOM     25  C   UNL     1      -4.373  10.919  17.947  0.00  0.00    +0.000 A 
ATOM     26  C   UNL     1      -4.361  11.912  18.927  0.00  0.00    +0.000 A 
ATOM     27  C   UNL     1      -3.162  12.255  19.548  0.00  0.00    +0.000 A 
ATOM     28  C   UNL     1      -1.973  11.615  19.183  0.00  0.00    +0.000 A 
ENDBRANCH  22  23
ENDBRANCH  21  22
ENDBRANCH   3  21
TORSDOF 4
ENDMDL
MODEL 6
REMARK VINA RESULT:      -8.3      3.177      7.688
REMARK  Name = 
REMARK  4 active torsions:
REMARK  status: ('A' for Active; 'I' for Inactive)
REMARK    1  A    between atoms: C_5  and  C_6
REMARK    2  A    between atoms: C_8  and  C_9
REMARK    3  A    between atoms: C_9  and  C_10
REMARK    4  A    between atoms: C_10  and  C_11
REMARK                            x       y       z     vdW  Elec       q    Type
REMARK                         _______ _______ _______ _____ _____    ______ ____
ROOT
ATOM      1  C   UNL     1       2.194   7.107  19.342  0.00  0.00    +0.000 A 
ATOM      2  C   UNL     1       2.912   6.393  18.397  0.00  0.00    +0.000 A 
ATOM      3  C   UNL     1       3.173   5.082  18.902  0.00  0.00    +0.000 A 
ATOM      4  C   UNL     1       2.539   5.033  20.128  0.00  0.00    +0.000 A 
ATOM      5 BR   UNL     1       2.446   3.575  21.290  0.00  0.00    +0.000 Br
ATOM      6  N   UNL     1       1.969   6.243  20.390  0.00  0.00    +0.000 N 
ATOM      7  H   UNL     1       1.458   6.489  21.230  0.00  0.00    +0.000 HD
ENDROOT
BRANCH   1  12
ATOM      8  N   UNL     1      -0.396   9.452  23.542  0.00  0.00    +0.000 N 
ATOM      9  C   UNL     1       0.141   9.496  22.321  0.00  0.00    +0.000 A 
ATOM     10  N   UNL     1       0.714   8.516  21.670  0.00  0.00    +0.000 NA
ATOM     11  C   UNL     1       1.088   9.056  20.448  0.00  0.00    +0.000 A 
ATOM     12  C   UNL     1       1.741   8.487  19.342  0.00  0.00    +0.000 A 
ATOM     13  N   UNL     1       2.008   9.235  18.237  0.00  0.00    +0.000 NA
ATOM     14  C   UNL     1       1.635  10.536  18.229  0.00  0.00    +0.000 A 
ATOM     15  C   UNL     1       0.990  11.194  19.267  0.00  0.00    +0.000 A 
ATOM     16  C   UNL     1       0.731  10.401  20.381  0.00  0.00    +0.000 A 
ATOM     17  N   UNL     1       0.134  10.653  21.590  0.00  0.00    +0.000 N 
ATOM     18  H   UNL     1      -0.235   8.615  24.094  0.00  0.00    +0.000 HD
ATOM     19  H   UNL     1      -0.628  10.273  24.087  0.00  0.00    +0.000 HD
ATOM     20  H   UNL     1      -0.253  11.532  21.893  0.00  0.00    +0.000 HD
ENDBRANCH   1  12
BRANCH   3  21
ATOM     21  C   UNL     1       3.951   3.990  18.222  0.00  0.00    +0.000 C 
BRANCH  21  22
ATOM     22  C   UNL     1       4.865   4.484  17.092  0.00  0.00    +0.000 C 
BRANCH  22  23
ATOM     23  C   UNL     1       5.979   5.365  17.607  0.00  0.00    +0.000 A 
ATOM     24  C   UNL     1       6.285   6.567  16.958  0.00  0.00    +0.000 A 
ATOM     25  C   UNL     1       7.329   7.372  17.413  0.00  0.00    +0.000 A 
ATOM     26  C   UNL     1       8.082   6.984  18.520  0.00  0.00    +0.000 A 
ATOM     27  C   UNL     1       7.782   5.792  19.177  0.00  0.00    +0.000 A 
ATOM     28  C   UNL     1       6.737   4.982  18.721  0.00  0.00    +0.000 A 
ENDBRANCH  22  23
ENDBRANCH  21  22
ENDBRANCH   3  21
TORSDOF 4
ENDMDL
MODEL 7
REMARK VINA RESULT:      -8.3      3.194      7.693
REMARK  Name = 
REMARK  4 active torsions:
REMARK  status: ('A' for Active; 'I' for Inactive)
REMARK    1  A    between atoms: C_5  and  C_6
REMARK    2  A    between atoms: C_8  and  C_9
REMARK    3  A    between atoms: C_9  and  C_10
REMARK    4  A    between atoms: C_10  and  C_11
REMARK                            x       y       z     vdW  Elec       q    Type
REMARK                         _______ _______ _______ _____ _____    ______ ____
ROOT
ATOM      1  C   UNL     1       2.331   6.854  19.636  0.00  0.00    +0.000 A 
ATOM      2  C   UNL     1       3.349   6.185  18.978  0.00  0.00    +0.000 A 
ATOM      3  C   UNL     1       3.504   4.886  19.553  0.00  0.00    +0.000 A 
ATOM      4  C   UNL     1       2.514   4.795  20.512  0.00  0.00    +0.000 A 
ATOM      5 BR   UNL     1       2.130   3.326  21.597  0.00  0.00    +0.000 Br
ATOM      6  N   UNL     1       1.827   5.971  20.565  0.00  0.00    +0.000 N 
ATOM      7  H   UNL     1       1.062   6.183  21.195  0.00  0.00    +0.000 HD
ENDROOT
BRANCH   1  12
ATOM      8  N   UNL     1      -0.425   9.546  23.510  0.00  0.00    +0.000 N 
ATOM      9  C   UNL     1       0.136   9.477  22.301  0.00  0.00    +0.000 A 
ATOM     10  N   UNL     1       0.755   8.453  21.771  0.00  0.00    +0.000 NA
ATOM     11  C   UNL     1       1.135   8.869  20.503  0.00  0.00    +0.000 A 
ATOM     12  C   UNL     1       1.829   8.207  19.477  0.00  0.00    +0.000 A 
ATOM     13  N   UNL     1       2.092   8.840  18.301  0.00  0.00    +0.000 NA
ATOM     14  C   UNL     1       1.674  10.117  18.144  0.00  0.00    +0.000 A 
ATOM     15  C   UNL     1       0.986  10.861  19.093  0.00  0.00    +0.000 A 
ATOM     16  C   UNL     1       0.732  10.184  20.283  0.00  0.00    +0.000 A 
ATOM     17  N   UNL     1       0.103  10.545  21.446  0.00  0.00    +0.000 N 
ATOM     18  H   UNL     1      -0.245   8.781  24.154  0.00  0.00    +0.000 HD
ATOM     19  H   UNL     1      -0.695  10.413  23.958  0.00  0.00    +0.000 HD
ATOM     20  H   UNL     1      -0.321  11.437  21.645  0.00  0.00    +0.000 HD
ENDBRANCH   1  12
BRANCH   3  21
ATOM     21  C   UNL     1       4.515   3.842  19.169  0.00  0.00    +0.000 C 
BRANCH  21  22
ATOM     22  C   UNL     1       5.872   4.415  18.739  0.00  0.00    +0.000 C 
BRANCH  22  23
ATOM     23  C   UNL     1       6.028   4.439  17.236  0.00  0.00    +0.000 A 
ATOM     24  C   UNL     1       7.212   4.913  16.658  0.00  0.00    +0.000 A 
ATOM     25  C   UNL     1       7.353   4.961  15.271  0.00  0.00    +0.000 A 
ATOM     26  C   UNL     1       6.311   4.539  14.446  0.00  0.00    +0.000 A 
ATOM     27  C   UNL     1       5.131   4.061  15.011  0.00  0.00    +0.000 A 
ATOM     28  C   UNL     1       4.987   4.014  16.401  0.00  0.00    +0.000 A 
ENDBRANCH  22  23
ENDBRANCH  21  22
ENDBRANCH   3  21
TORSDOF 4
ENDMDL
MODEL 8
REMARK VINA RESULT:      -8.3      3.204      7.694
REMARK  Name = 
REMARK  4 active torsions:
REMARK  status: ('A' for Active; 'I' for Inactive)
REMARK    1  A    between atoms: C_5  and  C_6
REMARK    2  A    between atoms: C_8  and  C_9
REMARK    3  A    between atoms: C_9  and  C_10
REMARK    4  A    between atoms: C_10  and  C_11
REMARK                            x       y       z     vdW  Elec       q    Type
REMARK                         _______ _______ _______ _____ _____    ______ ____
ROOT
ATOM      1  C   UNL     1       2.283   6.758  19.578  0.00  0.00    +0.000 A 
ATOM      2  C   UNL     1       3.153   6.004  18.807  0.00  0.00    +0.000 A 
ATOM      3  C   UNL     1       3.312   4.717  19.406  0.00  0.00    +0.000 A 
ATOM      4  C   UNL     1       2.469   4.720  20.500  0.00  0.00    +0.000 A 
ATOM      5 BR   UNL     1       2.160   3.313  21.687  0.00  0.00    +0.000 Br
ATOM      6  N   UNL     1       1.869   5.939  20.604  0.00  0.00    +0.000 N 
ATOM      7  H   UNL     1       1.218   6.220  21.329  0.00  0.00    +0.000 HD
ENDROOT
BRANCH   1  12
ATOM      8  N   UNL     1      -0.377   9.509  23.477  0.00  0.00    +0.000 N 
ATOM      9  C   UNL     1       0.190   9.434  22.270  0.00  0.00    +0.000 A 
ATOM     10  N   UNL     1       0.765   8.392  21.728  0.00  0.00    +0.000 NA
ATOM     11  C   UNL     1       1.174   8.812  20.470  0.00  0.00    +0.000 A 
ATOM     12  C   UNL     1       1.846   8.136  19.438  0.00  0.00    +0.000 A 
ATOM     13  N   UNL     1       2.148   8.775  18.275  0.00  0.00    +0.000 NA
ATOM     14  C   UNL     1       1.790  10.073  18.136  0.00  0.00    +0.000 A 
ATOM     15  C   UNL     1       1.129  10.831  19.093  0.00  0.00    +0.000 A 
ATOM     16  C   UNL     1       0.835  10.148  20.270  0.00  0.00    +0.000 A 
ATOM     17  N   UNL     1       0.214  10.517  21.434  0.00  0.00    +0.000 N 
ATOM     18  H   UNL     1      -0.238   8.726  24.108  0.00  0.00    +0.000 HD
ATOM     19  H   UNL     1      -0.611  10.380  23.937  0.00  0.00    +0.000 HD
ATOM     20  H   UNL     1      -0.171  11.425  21.645  0.00  0.00    +0.000 HD
ENDBRANCH   1  12
BRANCH   3  21
ATOM     21  C   UNL     1       4.191   3.597  18.923  0.00  0.00    +0.000 C 
BRANCH  21  22
ATOM     22  C   UNL     1       4.050   3.295  17.424  0.00  0.00    +0.000 C 
BRANCH  22  23
ATOM     23  C   UNL     1       5.161   3.917  16.612  0.00  0.00    +0.000 A 
ATOM     24  C   UNL     1       5.061   3.988  15.217  0.00  0.00    +0.000 A 
ATOM     25  C   UNL     1       6.094   4.538  14.460  0.00  0.00    +0.000 A 
ATOM     26  C   UNL     1       7.242   5.021  15.087  0.00  0.00    +0.000 A 
ATOM     27  C   UNL     1       7.350   4.961  16.474  0.00  0.00    +0.000 A 
ATOM     28  C   UNL     1       6.316   4.407  17.236  0.00  0.00    +0.000 A 
ENDBRANCH  22  23
ENDBRANCH  21  22
ENDBRANCH   3  21
TORSDOF 4
ENDMDL
MODEL 9
REMARK VINA RESULT:      -8.3      3.168      8.126
REMARK  Name = 
REMARK  4 active torsions:
REMARK  status: ('A' for Active; 'I' for Inactive)
REMARK    1  A    between atoms: C_5  and  C_6
REMARK    2  A    between atoms: C_8  and  C_9
REMARK    3  A    between atoms: C_9  and  C_10
REMARK    4  A    between atoms: C_10  and  C_11
REMARK                            x       y       z     vdW  Elec       q    Type
REMARK                         _______ _______ _______ _____ _____    ______ ____
ROOT
ATOM      1  C   UNL     1       0.851   9.207  20.412  0.00  0.00    +0.000 A 
ATOM      2  C   UNL     1       0.951   8.084  21.216  0.00  0.00    +0.000 A 
ATOM      3  C   UNL     1       1.709   7.085  20.532  0.00  0.00    +0.000 A 
ATOM      4  C   UNL     1       2.098   7.675  19.346  0.00  0.00    +0.000 A 
ATOM      5 BR   UNL     1       3.164   6.924  18.010  0.00  0.00    +0.000 Br
ATOM      6  N   UNL     1       1.576   8.933  19.275  0.00  0.00    +0.000 N 
ATOM      7  H   UNL     1       1.689   9.578  18.502  0.00  0.00    +0.000 HD
ENDROOT
BRANCH   1  12
ATOM      8  N   UNL     1      -2.172  11.644  16.569  0.00  0.00    +0.000 N 
ATOM      9  C   UNL     1      -1.677  11.577  17.807  0.00  0.00    +0.000 A 
ATOM     10  N   UNL     1      -0.877  10.663  18.293  0.00  0.00    +0.000 NA
ATOM     11  C   UNL     1      -0.636  11.045  19.605  0.00  0.00    +0.000 A 
ATOM     12  C   UNL     1       0.141  10.457  20.617  0.00  0.00    +0.000 A 
ATOM     13  N   UNL     1       0.218  11.029  21.848  0.00  0.00    +0.000 NA
ATOM     14  C   UNL     1      -0.469  12.171  22.079  0.00  0.00    +0.000 A 
ATOM     15  C   UNL     1      -1.267  12.830  21.152  0.00  0.00    +0.000 A 
ATOM     16  C   UNL     1      -1.324  12.220  19.902  0.00  0.00    +0.000 A 
ATOM     17  N   UNL     1      -1.981  12.531  18.740  0.00  0.00    +0.000 N 
ATOM     18  H   UNL     1      -2.034  10.838  15.966  0.00  0.00    +0.000 HD
ATOM     19  H   UNL     1      -2.950  12.236  16.303  0.00  0.00    +0.000 HD
ATOM     20  H   UNL     1      -2.578  13.327  18.586  0.00  0.00    +0.000 HD
ENDBRANCH   1  12
BRANCH   3  21
ATOM     21  C   UNL     1       2.030   5.700  21.021  0.00  0.00    +0.000 C 
BRANCH  21  22
ATOM     22  C   UNL     1       1.160   4.600  20.398  0.00  0.00    +0.000 C 
BRANCH  22  23
ATOM     23  C   UNL     1       1.981   3.600  19.618  0.00  0.00    +0.000 A 
ATOM     24  C   UNL     1       3.163   3.082  20.161  0.00  0.00    +0.000 A 
ATOM     25  C   UNL     1       3.938   2.176  19.436  0.00  0.00    +0.000 A 
ATOM     26  C   UNL     1       3.543   1.781  18.159  0.00  0.00    +0.000 A 
ATOM     27  C   UNL     1       2.365   2.286  17.612  0.00  0.00    +0.000 A 
ATOM     28  C   UNL     1       1.588   3.195  18.336  0.00  0.00    +0.000 A 
ENDBRANCH  22  23
ENDBRANCH  21  22
ENDBRANCH   3  21
TORSDOF 4
ENDMDL
