MODEL 1
REMARK VINA RESULT:      -7.5      0.000      0.000
REMARK  Name = 
REMARK  4 active torsions:
REMARK  status: ('A' for Active; 'I' for Inactive)
REMARK    1  A    between atoms: C_1  and  C_2
REMARK    2  A    between atoms: N_4  and  C_5
REMARK    3  A    between atoms: C_8  and  C_9
REMARK    4  A    between atoms: C_15  and  C_16
REMARK                            x       y       z     vdW  Elec       q    Type
REMARK                         _______ _______ _______ _____ _____    ______ ____
ROOT
ATOM      1  C   UNL     1       0.938   9.975  18.748  0.00  0.00    +0.000 A 
ATOM      2  C   UNL     1       0.934   9.329  19.984  0.00  0.00    +0.000 A 
ATOM      3  C   UNL     1       1.624   8.131  20.171  0.00  0.00    +0.000 A 
ATOM      4  C   UNL     1       2.311   7.535  19.112  0.00  0.00    +0.000 A 
ATOM      5  C   UNL     1       2.338   8.183  17.871  0.00  0.00    +0.000 A 
ATOM      6  C   UNL     1       1.642   9.387  17.687  0.00  0.00    +0.000 A 
ENDROOT
BRANCH   4   7
ATOM      7  C   UNL     1       3.003   6.220  19.286  0.00  0.00    +0.000 A 
ATOM      8  C   UNL     1       4.318   6.080  18.575  0.00  0.00    +0.000 A 
ATOM      9  C   UNL     1       4.973   4.917  18.684  0.00  0.00    +0.000 A 
ATOM     10  C   UNL     1       4.412   3.891  19.464  0.00  0.00    +0.000 A 
ATOM     11  N   UNL     1       4.821   2.674  19.751  0.00  0.00    +0.000 NA
ATOM     12  N   UNL     1       3.879   2.105  20.578  0.00  0.00    +0.000 NA
ATOM     13  C   UNL     1       2.919   2.988  20.775  0.00  0.00    +0.000 A 
ATOM     14  C   UNL     1       1.702   2.809  21.589  0.00  0.00    +0.000 C 
ATOM     15  N   UNL     1       3.211   4.146  20.092  0.00  0.00    +0.000 N 
ATOM     16  N   UNL     1       2.468   5.299  20.037  0.00  0.00    +0.000 NA
ENDBRANCH   4   7
BRANCH   1  20
ATOM     17  C   UNL     1      -0.290  13.536  18.529  0.00  0.00    +0.000 C 
ATOM     18  C   UNL     1       0.732  12.459  18.779  0.00  0.00    +0.000 C 
ATOM     19  O   UNL     1       1.854  12.752  19.180  0.00  0.00    +0.000 OA
ATOM     20  N   UNL     1       0.250  11.185  18.517  0.00  0.00    +0.000 N 
ATOM     21  H   UNL     1      -0.644  11.118  18.046  0.00  0.00    +0.000 HD
ENDBRANCH   1  20
TORSDOF 2
ENDMDL
MODEL 2
REMARK VINA RESULT:      -7.5      3.054      4.079
REMARK  Name = 
REMARK  4 active torsions:
REMARK  status: ('A' for Active; 'I' for Inactive)
REMARK    1  A    between atoms: C_1  and  C_2
REMARK    2  A    between atoms: N_4  and  C_5
REMARK    3  A    between atoms: C_8  and  C_9
REMARK    4  A    between atoms: C_15  and  C_16
REMARK                            x       y       z     vdW  Elec       q    Type
REMARK                         _______ _______ _______ _____ _____    ______ ____
ROOT
ATOM      1  C   UNL     1       0.801   8.679  20.453  0.00  0.00    +0.000 A 
ATOM      2  C   UNL     1       1.301   9.118  19.227  0.00  0.00    +0.000 A 
ATOM      3  C   UNL     1       2.177   8.326  18.483  0.00  0.00    +0.000 A 
ATOM      4  C   UNL     1       2.597   7.086  18.967  0.00  0.00    +0.000 A 
ATOM      5  C   UNL     1       2.089   6.626  20.188  0.00  0.00    +0.000 A 
ATOM      6  C   UNL     1       1.208   7.426  20.933  0.00  0.00    +0.000 A 
ENDROOT
BRANCH   4   7
ATOM      7  C   UNL     1       3.583   6.257  18.207  0.00  0.00    +0.000 A 
ATOM      8  C   UNL     1       3.068   4.943  17.695  0.00  0.00    +0.000 A 
ATOM      9  C   UNL     1       3.914   4.153  17.020  0.00  0.00    +0.000 A 
ATOM     10  C   UNL     1       5.233   4.591  16.811  0.00  0.00    +0.000 A 
ATOM     11  N   UNL     1       6.258   4.046  16.194  0.00  0.00    +0.000 NA
ATOM     12  N   UNL     1       7.312   4.928  16.282  0.00  0.00    +0.000 NA
ATOM     13  C   UNL     1       6.903   5.989  16.950  0.00  0.00    +0.000 A 
ATOM     14  C   UNL     1       7.698   7.184  17.289  0.00  0.00    +0.000 C 
ATOM     15  N   UNL     1       5.584   5.830  17.307  0.00  0.00    +0.000 N 
ATOM     16  N   UNL     1       4.791   6.704  18.009  0.00  0.00    +0.000 NA
ENDBRANCH   4   7
BRANCH   1  20
ATOM     17  C   UNL     1      -1.048  10.580  23.137  0.00  0.00    +0.000 C 
ATOM     18  C   UNL     1       0.138   9.870  22.540  0.00  0.00    +0.000 C 
ATOM     19  O   UNL     1       1.160   9.710  23.200  0.00  0.00    +0.000 OA
ATOM     20  N   UNL     1      -0.083   9.451  21.237  0.00  0.00    +0.000 N 
ATOM     21  H   UNL     1      -0.919   9.791  20.778  0.00  0.00    +0.000 HD
ENDBRANCH   1  20
TORSDOF 2
ENDMDL
MODEL 3
REMARK VINA RESULT:      -7.4      0.230      1.100
REMARK  Name = 
REMARK  4 active torsions:
REMARK  status: ('A' for Active; 'I' for Inactive)
REMARK    1  A    between atoms: C_1  and  C_2
REMARK    2  A    between atoms: N_4  and  C_5
REMARK    3  A    between atoms: C_8  and  C_9
REMARK    4  A    between atoms: C_15  and  C_16
REMARK                            x       y       z     vdW  Elec       q    Type
REMARK                         _______ _______ _______ _____ _____    ______ ____
ROOT
ATOM      1  C   UNL     1       1.024  10.105  18.887  0.00  0.00    +0.000 A 
ATOM      2  C   UNL     1       1.713   9.548  17.810  0.00  0.00    +0.000 A 
ATOM      3  C   UNL     1       2.317   8.293  17.915  0.00  0.00    +0.000 A 
ATOM      4  C   UNL     1       2.269   7.581  19.115  0.00  0.00    +0.000 A 
ATOM      5  C   UNL     1       1.565   8.122  20.197  0.00  0.00    +0.000 A 
ATOM      6  C   UNL     1       0.960   9.384  20.087  0.00  0.00    +0.000 A 
ENDROOT
BRANCH   4   7
ATOM      7  C   UNL     1       2.964   6.264  19.256  0.00  0.00    +0.000 A 
ATOM      8  C   UNL     1       4.241   6.119  18.482  0.00  0.00    +0.000 A 
ATOM      9  C   UNL     1       4.897   4.953  18.560  0.00  0.00    +0.000 A 
ATOM     10  C   UNL     1       4.371   3.930  19.368  0.00  0.00    +0.000 A 
ATOM     11  N   UNL     1       4.790   2.712  19.636  0.00  0.00    +0.000 NA
ATOM     12  N   UNL     1       3.887   2.147  20.509  0.00  0.00    +0.000 NA
ATOM     13  C   UNL     1       2.941   3.034  20.751  0.00  0.00    +0.000 A 
ATOM     14  C   UNL     1       1.765   2.859  21.624  0.00  0.00    +0.000 C 
ATOM     15  N   UNL     1       3.203   4.190  20.053  0.00  0.00    +0.000 N 
ATOM     16  N   UNL     1       2.463   5.346  20.034  0.00  0.00    +0.000 NA
ENDBRANCH   4   7
BRANCH   1  20
ATOM     17  C   UNL     1       0.087  13.760  18.932  0.00  0.00    +0.000 C 
ATOM     18  C   UNL     1       1.044  12.598  18.924  0.00  0.00    +0.000 C 
ATOM     19  O   UNL     1       2.252  12.791  19.008  0.00  0.00    +0.000 OA
ATOM     20  N   UNL     1       0.404  11.372  18.823  0.00  0.00    +0.000 N 
ATOM     21  H   UNL     1      -0.585  11.383  18.607  0.00  0.00    +0.000 HD
ENDBRANCH   1  20
TORSDOF 2
ENDMDL
MODEL 4
REMARK VINA RESULT:      -7.4      0.905      1.988
REMARK  Name = 
REMARK  4 active torsions:
REMARK  status: ('A' for Active; 'I' for Inactive)
REMARK    1  A    between atoms: C_1  and  C_2
REMARK    2  A    between atoms: N_4  and  C_5
REMARK    3  A    between atoms: C_8  and  C_9
REMARK    4  A    between atoms: C_15  and  C_16
REMARK                            x       y       z     vdW  Elec       q    Type
REMARK                         _______ _______ _______ _____ _____    ______ ____
ROOT
ATOM      1  C   UNL     1       0.957  10.298  18.893  0.00  0.00    +0.000 A 
ATOM      2  C   UNL     1       0.785   9.711  20.147  0.00  0.00    +0.000 A 
ATOM      3  C   UNL     1       1.289   8.439  20.421  0.00  0.00    +0.000 A 
ATOM      4  C   UNL     1       1.954   7.712  19.432  0.00  0.00    +0.000 A 
ATOM      5  C   UNL     1       2.149   8.297  18.175  0.00  0.00    +0.000 A 
ATOM      6  C   UNL     1       1.639   9.577  17.904  0.00  0.00    +0.000 A 
ENDROOT
BRANCH   4   7
ATOM      7  C   UNL     1       2.445   6.324  19.696  0.00  0.00    +0.000 A 
ATOM      8  C   UNL     1       1.566   5.481  20.573  0.00  0.00    +0.000 A 
ATOM      9  C   UNL     1       1.966   4.234  20.856  0.00  0.00    +0.000 A 
ATOM     10  C   UNL     1       3.176   3.769  20.312  0.00  0.00    +0.000 A 
ATOM     11  N   UNL     1       3.803   2.616  20.407  0.00  0.00    +0.000 NA
ATOM     12  N   UNL     1       4.949   2.705  19.651  0.00  0.00    +0.000 NA
ATOM     13  C   UNL     1       4.994   3.909  19.113  0.00  0.00    +0.000 A 
ATOM     14  C   UNL     1       6.047   4.448  18.233  0.00  0.00    +0.000 C 
ATOM     15  N   UNL     1       3.885   4.626  19.497  0.00  0.00    +0.000 N 
ATOM     16  N   UNL     1       3.558   5.915  19.155  0.00  0.00    +0.000 NA
ENDBRANCH   4   7
BRANCH   1  20
ATOM     17  C   UNL     1       0.221  13.979  18.513  0.00  0.00    +0.000 C 
ATOM     18  C   UNL     1       1.062  12.789  18.890  0.00  0.00    +0.000 C 
ATOM     19  O   UNL     1       2.155  12.948  19.422  0.00  0.00    +0.000 OA
ATOM     20  N   UNL     1       0.459  11.580  18.576  0.00  0.00    +0.000 N 
ATOM     21  H   UNL     1      -0.374  11.615  18.000  0.00  0.00    +0.000 HD
ENDBRANCH   1  20
TORSDOF 2
ENDMDL
MODEL 5
REMARK VINA RESULT:      -7.3      2.719      3.637
REMARK  Name = 
REMARK  4 active torsions:
REMARK  status: ('A' for Active; 'I' for Inactive)
REMARK    1  A    between atoms: C_1  and  C_2
REMARK    2  A    between atoms: N_4  and  C_5
REMARK    3  A    between atoms: C_8  and  C_9
REMARK    4  A    between atoms: C_15  and  C_16
REMARK                            x       y       z     vdW  Elec       q    Type
REMARK                         _______ _______ _______ _____ _____    ______ ____
ROOT
ATOM      1  C   UNL     1       0.696   9.387  19.748  0.00  0.00    +0.000 A 
ATOM      2  C   UNL     1       1.098   9.494  18.417  0.00  0.00    +0.000 A 
ATOM      3  C   UNL     1       1.993   8.580  17.860  0.00  0.00    +0.000 A 
ATOM      4  C   UNL     1       2.532   7.553  18.637  0.00  0.00    +0.000 A 
ATOM      5  C   UNL     1       2.123   7.423  19.969  0.00  0.00    +0.000 A 
ATOM      6  C   UNL     1       1.222   8.345  20.525  0.00  0.00    +0.000 A 
ENDROOT
BRANCH   4   7
ATOM      7  C   UNL     1       3.539   6.605  18.067  0.00  0.00    +0.000 A 
ATOM      8  C   UNL     1       3.020   5.241  17.715  0.00  0.00    +0.000 A 
ATOM      9  C   UNL     1       3.884   4.346  17.216  0.00  0.00    +0.000 A 
ATOM     10  C   UNL     1       5.224   4.726  17.031  0.00  0.00    +0.000 A 
ATOM     11  N   UNL     1       6.270   4.079  16.564  0.00  0.00    +0.000 NA
ATOM     12  N   UNL     1       7.340   4.945  16.591  0.00  0.00    +0.000 NA
ATOM     13  C   UNL     1       6.920   6.099  17.073  0.00  0.00    +0.000 A 
ATOM     14  C   UNL     1       7.725   7.316  17.288  0.00  0.00    +0.000 C 
ATOM     15  N   UNL     1       5.579   6.017  17.365  0.00  0.00    +0.000 N 
ATOM     16  N   UNL     1       4.769   6.997  17.883  0.00  0.00    +0.000 NA
ENDBRANCH   4   7
BRANCH   1  20
ATOM     17  C   UNL     1      -1.056  12.086  21.719  0.00  0.00    +0.000 C 
ATOM     18  C   UNL     1       0.140  11.385  21.130  0.00  0.00    +0.000 C 
ATOM     19  O   UNL     1       1.273  11.793  21.365  0.00  0.00    +0.000 OA
ATOM     20  N   UNL     1      -0.204  10.292  20.350  0.00  0.00    +0.000 N 
ATOM     21  H   UNL     1      -1.185  10.175  20.126  0.00  0.00    +0.000 HD
ENDBRANCH   1  20
TORSDOF 2
ENDMDL
MODEL 6
REMARK VINA RESULT:      -7.3      2.889      3.677
REMARK  Name = 
REMARK  4 active torsions:
REMARK  status: ('A' for Active; 'I' for Inactive)
REMARK    1  A    between atoms: C_1  and  C_2
REMARK    2  A    between atoms: N_4  and  C_5
REMARK    3  A    between atoms: C_8  and  C_9
REMARK    4  A    between atoms: C_15  and  C_16
REMARK                            x       y       z     vdW  Elec       q    Type
REMARK                         _______ _______ _______ _____ _____    ______ ____
ROOT
ATOM      1  C   UNL     1       0.658   9.296  20.496  0.00  0.00    +0.000 A 
ATOM      2  C   UNL     1       1.069   8.115  21.113  0.00  0.00    +0.000 A 
ATOM      3  C   UNL     1       1.879   7.197  20.441  0.00  0.00    +0.000 A 
ATOM      4  C   UNL     1       2.271   7.430  19.121  0.00  0.00    +0.000 A 
ATOM      5  C   UNL     1       1.879   8.621  18.498  0.00  0.00    +0.000 A 
ATOM      6  C   UNL     1       1.064   9.540  19.177  0.00  0.00    +0.000 A 
ENDROOT
BRANCH   4   7
ATOM      7  C   UNL     1       3.087   6.426  18.372  0.00  0.00    +0.000 A 
ATOM      8  C   UNL     1       2.368   5.169  17.977  0.00  0.00    +0.000 A 
ATOM      9  C   UNL     1       3.057   4.228  17.318  0.00  0.00    +0.000 A 
ATOM     10  C   UNL     1       4.409   4.462  17.015  0.00  0.00    +0.000 A 
ATOM     11  N   UNL     1       5.312   3.741  16.387  0.00  0.00    +0.000 NA
ATOM     12  N   UNL     1       6.480   4.470  16.363  0.00  0.00    +0.000 NA
ATOM     13  C   UNL     1       6.260   5.617  16.975  0.00  0.00    +0.000 A 
ATOM     14  C   UNL     1       7.230   6.707  17.192  0.00  0.00    +0.000 C 
ATOM     15  N   UNL     1       4.955   5.667  17.406  0.00  0.00    +0.000 N 
ATOM     16  N   UNL     1       4.332   6.685  18.085  0.00  0.00    +0.000 NA
ENDBRANCH   4   7
BRANCH   1  20
ATOM     17  C   UNL     1      -1.316  11.454  22.881  0.00  0.00    +0.000 C 
ATOM     18  C   UNL     1      -0.266  10.440  22.508  0.00  0.00    +0.000 C 
ATOM     19  O   UNL     1       0.388   9.879  23.381  0.00  0.00    +0.000 OA
ATOM     20  N   UNL     1      -0.164  10.246  21.139  0.00  0.00    +0.000 N 
ATOM     21  H   UNL     1      -0.664  10.894  20.542  0.00  0.00    +0.000 HD
ENDBRANCH   1  20
TORSDOF 2
ENDMDL
MODEL 7
REMARK VINA RESULT:      -7.1      1.123      1.152
REMARK  Name = 
REMARK  4 active torsions:
REMARK  status: ('A' for Active; 'I' for Inactive)
REMARK    1  A    between atoms: C_1  and  C_2
REMARK    2  A    between atoms: N_4  and  C_5
REMARK    3  A    between atoms: C_8  and  C_9
REMARK    4  A    between atoms: C_15  and  C_16
REMARK                            x       y       z     vdW  Elec       q    Type
REMARK                         _______ _______ _______ _____ _____    ______ ____
ROOT
ATOM      1  C   UNL     1       0.758  10.315  19.772  0.00  0.00    +0.000 A 
ATOM      2  C   UNL     1       0.859   9.397  20.818  0.00  0.00    +0.000 A 
ATOM      3  C   UNL     1       1.484   8.162  20.633  0.00  0.00    +0.000 A 
ATOM      4  C   UNL     1       1.997   7.807  19.384  0.00  0.00    +0.000 A 
ATOM      5  C   UNL     1       1.919   8.727  18.332  0.00  0.00    +0.000 A 
ATOM      6  C   UNL     1       1.288   9.967  18.522  0.00  0.00    +0.000 A 
ENDROOT
BRANCH   4   7
ATOM      7  C   UNL     1       2.614   6.463  19.159  0.00  0.00    +0.000 A 
ATOM      8  C   UNL     1       3.475   6.341  17.936  0.00  0.00    +0.000 A 
ATOM      9  C   UNL     1       4.040   5.154  17.678  0.00  0.00    +0.000 A 
ATOM     10  C   UNL     1       3.815   4.087  18.565  0.00  0.00    +0.000 A 
ATOM     11  N   UNL     1       4.234   2.840  18.572  0.00  0.00    +0.000 NA
ATOM     12  N   UNL     1       3.715   2.235  19.695  0.00  0.00    +0.000 NA
ATOM     13  C   UNL     1       2.993   3.128  20.345  0.00  0.00    +0.000 A 
ATOM     14  C   UNL     1       2.246   2.921  21.599  0.00  0.00    +0.000 C 
ATOM     15  N   UNL     1       3.027   4.327  19.671  0.00  0.00    +0.000 N 
ATOM     16  N   UNL     1       2.407   5.502  20.015  0.00  0.00    +0.000 NA
ENDBRANCH   4   7
BRANCH   1  20
ATOM     17  C   UNL     1      -0.334  13.808  20.687  0.00  0.00    +0.000 C 
ATOM     18  C   UNL     1       0.628  12.652  20.629  0.00  0.00    +0.000 C 
ATOM     19  O   UNL     1       1.720  12.727  21.183  0.00  0.00    +0.000 OA
ATOM     20  N   UNL     1       0.131  11.570  19.917  0.00  0.00    +0.000 N 
ATOM     21  H   UNL     1      -0.721  11.717  19.390  0.00  0.00    +0.000 HD
ENDBRANCH   1  20
TORSDOF 2
ENDMDL
MODEL 8
REMARK VINA RESULT:      -7.1      1.255      1.650
REMARK  Name = 
REMARK  4 active torsions:
REMARK  status: ('A' for Active; 'I' for Inactive)
REMARK    1  A    between atoms: C_1  and  C_2
REMARK    2  A    between atoms: N_4  and  C_5
REMARK    3  A    between atoms: C_8  and  C_9
REMARK    4  A    between atoms: C_15  and  C_16
REMARK                            x       y       z     vdW  Elec       q    Type
REMARK                         _______ _______ _______ _____ _____    ______ ____
ROOT
ATOM      1  C   UNL     1       0.907  10.323  19.530  0.00  0.00    +0.000 A 
ATOM      2  C   UNL     1       1.433   9.914  18.305  0.00  0.00    +0.000 A 
ATOM      3  C   UNL     1       1.988   8.642  18.149  0.00  0.00    +0.000 A 
ATOM      4  C   UNL     1       2.055   7.761  19.230  0.00  0.00    +0.000 A 
ATOM      5  C   UNL     1       1.514   8.153  20.459  0.00  0.00    +0.000 A 
ATOM      6  C   UNL     1       0.958   9.433  20.612  0.00  0.00    +0.000 A 
ENDROOT
BRANCH   4   7
ATOM      7  C   UNL     1       2.702   6.420  19.090  0.00  0.00    +0.000 A 
ATOM      8  C   UNL     1       3.656   6.277  17.940  0.00  0.00    +0.000 A 
ATOM      9  C   UNL     1       4.252   5.090  17.758  0.00  0.00    +0.000 A 
ATOM     10  C   UNL     1       3.970   4.044  18.653  0.00  0.00    +0.000 A 
ATOM     11  N   UNL     1       4.401   2.803  18.726  0.00  0.00    +0.000 NA
ATOM     12  N   UNL     1       3.803   2.221  19.821  0.00  0.00    +0.000 NA
ATOM     13  C   UNL     1       3.023   3.121  20.389  0.00  0.00    +0.000 A 
ATOM     14  C   UNL     1       2.183   2.937  21.587  0.00  0.00    +0.000 C 
ATOM     15  N   UNL     1       3.096   4.302  19.688  0.00  0.00    +0.000 N 
ATOM     16  N   UNL     1       2.438   5.478  19.952  0.00  0.00    +0.000 NA
ENDBRANCH   4   7
BRANCH   1  20
ATOM     17  C   UNL     1      -1.222  13.436  19.655  0.00  0.00    +0.000 C 
ATOM     18  C   UNL     1      -0.962  11.969  19.433  0.00  0.00    +0.000 C 
ATOM     19  O   UNL     1      -1.858  11.237  19.024  0.00  0.00    +0.000 OA
ATOM     20  N   UNL     1       0.341  11.601  19.729  0.00  0.00    +0.000 N 
ATOM     21  H   UNL     1       0.919  12.285  20.201  0.00  0.00    +0.000 HD
ENDBRANCH   1  20
TORSDOF 2
ENDMDL
MODEL 9
REMARK VINA RESULT:      -7.1      1.161      1.161
REMARK  Name = 
REMARK  4 active torsions:
REMARK  status: ('A' for Active; 'I' for Inactive)
REMARK    1  A    between atoms: C_1  and  C_2
REMARK    2  A    between atoms: N_4  and  C_5
REMARK    3  A    between atoms: C_8  and  C_9
REMARK    4  A    between atoms: C_15  and  C_16
REMARK                            x       y       z     vdW  Elec       q    Type
REMARK                         _______ _______ _______ _____ _____    ______ ____
ROOT
ATOM      1  C   UNL     1       1.180  10.225  19.053  0.00  0.00    +0.000 A 
ATOM      2  C   UNL     1       1.098   9.372  20.154  0.00  0.00    +0.000 A 
ATOM      3  C   UNL     1       1.640   8.087  20.109  0.00  0.00    +0.000 A 
ATOM      4  C   UNL     1       2.253   7.615  18.946  0.00  0.00    +0.000 A 
ATOM      5  C   UNL     1       2.357   8.468  17.842  0.00  0.00    +0.000 A 
ATOM      6  C   UNL     1       1.809   9.759  17.891  0.00  0.00    +0.000 A 
ENDROOT
BRANCH   4   7
ATOM      7  C   UNL     1       2.783   6.219  18.868  0.00  0.00    +0.000 A 
ATOM      8  C   UNL     1       3.654   5.922  17.682  0.00  0.00    +0.000 A 
ATOM      9  C   UNL     1       4.143   4.681  17.554  0.00  0.00    +0.000 A 
ATOM     10  C   UNL     1       3.833   3.723  18.535  0.00  0.00    +0.000 A 
ATOM     11  N   UNL     1       4.168   2.459  18.673  0.00  0.00    +0.000 NA
ATOM     12  N   UNL     1       3.592   2.002  19.837  0.00  0.00    +0.000 NA
ATOM     13  C   UNL     1       2.920   2.999  20.380  0.00  0.00    +0.000 A 
ATOM     14  C   UNL     1       2.140   2.965  21.631  0.00  0.00    +0.000 C 
ATOM     15  N   UNL     1       3.044   4.121  19.594  0.00  0.00    +0.000 N 
ATOM     16  N   UNL     1       2.498   5.362  19.808  0.00  0.00    +0.000 NA
ENDBRANCH   4   7
BRANCH   1  20
ATOM     17  C   UNL     1      -0.926  13.346  18.813  0.00  0.00    +0.000 C 
ATOM     18  C   UNL     1      -0.692  11.860  18.867  0.00  0.00    +0.000 C 
ATOM     19  O   UNL     1      -1.632  11.081  18.742  0.00  0.00    +0.000 OA
ATOM     20  N   UNL     1       0.641  11.529  19.057  0.00  0.00    +0.000 N 
ATOM     21  H   UNL     1       1.274  12.283  19.296  0.00  0.00    +0.000 HD
ENDBRANCH   1  20
TORSDOF 2
ENDMDL
