MODEL 1
REMARK VINA RESULT:      -7.9      0.000      0.000
REMARK  Name = 
REMARK  9 active torsions:
REMARK  status: ('A' for Active; 'I' for Inactive)
REMARK    1  A    between atoms: C_1  and  O_2
REMARK    2  A    between atoms: O_2  and  C_3
REMARK    3  A    between atoms: C_6  and  N_7
REMARK    4  A    between atoms: C_11  and  N_12
REMARK    5  A    between atoms: N_12  and  C_13
REMARK    6  A    between atoms: C_13  and  C_14
REMARK    7  A    between atoms: C_14  and  C_15
REMARK    8  A    between atoms: C_18  and  S_19
REMARK    9  A    between atoms: S_19  and  N_20
REMARK                            x       y       z     vdW  Elec       q    Type
REMARK                         _______ _______ _______ _____ _____    ______ ____
ROOT
ATOM      1  N   UNL     1       0.974   4.565  20.420  0.00  0.00    +0.000 NA
ATOM      2  H   UNL     1       0.443   4.187  21.207  0.00  0.00    +0.000 HD
ENDROOT
BRANCH   1   7
ATOM      3  N   UNL     1       3.715   3.715  18.599  0.00  0.00    +0.000 N 
ATOM      4  C   UNL     1       3.957   2.925  19.698  0.00  0.00    +0.000 C 
ATOM      5  O   UNL     1       5.005   2.402  20.060  0.00  0.00    +0.000 OA
ATOM      6  C   UNL     1       2.704   2.788  20.505  0.00  0.00    +0.000 C 
ATOM      7  C   UNL     1       1.639   3.474  19.678  0.00  0.00    +0.000 C 
ATOM      8  C   UNL     1       2.374   3.971  18.449  0.00  0.00    +0.000 C 
ATOM      9  O   UNL     1       1.798   4.459  17.483  0.00  0.00    +0.000 OA
BRANCH   3  13
ATOM     10  C   UNL     1       6.708   5.040  15.885  0.00  0.00    +0.000 A 
ATOM     11  C   UNL     1       5.753   4.113  15.478  0.00  0.00    +0.000 A 
ATOM     12  C   UNL     1       4.758   3.676  16.362  0.00  0.00    +0.000 A 
ATOM     13  C   UNL     1       4.700   4.159  17.673  0.00  0.00    +0.000 A 
ATOM     14  C   UNL     1       5.685   5.077  18.072  0.00  0.00    +0.000 A 
ATOM     15  C   UNL     1       6.681   5.510  17.194  0.00  0.00    +0.000 A 
BRANCH  10  17
ATOM     16  C   UNL     1       7.388   4.898  13.635  0.00  0.00    +0.000 C 
ATOM     17  O   UNL     1       7.641   5.386  14.949  0.00  0.00    +0.000 OA
ENDBRANCH  10  17
ENDBRANCH   3  13
ENDBRANCH   1   7
BRANCH   1  18
ATOM     18  C   UNL     1       1.911   5.575  20.942  0.00  0.00    +0.000 C 
BRANCH  18  19
ATOM     19  C   UNL     1       2.128   6.745  19.975  0.00  0.00    +0.000 C 
BRANCH  19  20
ATOM     20  C   UNL     1       1.464   8.005  20.450  0.00  0.00    +0.000 A 
ATOM     21  C   UNL     1       0.927   8.064  21.746  0.00  0.00    +0.000 A 
ATOM     22  C   UNL     1       0.343   9.239  22.207  0.00  0.00    +0.000 A 
ATOM     23  C   UNL     1       0.295  10.353  21.365  0.00  0.00    +0.000 A 
ATOM     24  C   UNL     1       0.792  10.296  20.062  0.00  0.00    +0.000 A 
ATOM     25  C   UNL     1       1.380   9.119  19.606  0.00  0.00    +0.000 A 
BRANCH  23  26
ATOM     26  S   UNL     1      -0.421  11.852  21.960  0.00  0.00    +0.000 S 
ATOM     27  O   UNL     1      -1.029  11.612  23.248  0.00  0.00    +0.000 OA
ATOM     28  O   UNL     1       0.492  12.944  21.723  0.00  0.00    +0.000 OA
BRANCH  26  29
ATOM     29  N   UNL     1      -1.688  12.060  20.879  0.00  0.00    +0.000 NA
ATOM     30  H   UNL     1      -1.541  12.902  20.324  0.00  0.00    +0.000 HD
ATOM     31  H   UNL     1      -1.823  11.210  20.331  0.00  0.00    +0.000 HD
ENDBRANCH  26  29
ENDBRANCH  23  26
ENDBRANCH  19  20
ENDBRANCH  18  19
ENDBRANCH   1  18
TORSDOF 8
ENDMDL
MODEL 2
REMARK VINA RESULT:      -7.9      0.711      1.529
REMARK  Name = 
REMARK  9 active torsions:
REMARK  status: ('A' for Active; 'I' for Inactive)
REMARK    1  A    between atoms: C_1  and  O_2
REMARK    2  A    between atoms: O_2  and  C_3
REMARK    3  A    between atoms: C_6  and  N_7
REMARK    4  A    between atoms: C_11  and  N_12
REMARK    5  A    between atoms: N_12  and  C_13
REMARK    6  A    between atoms: C_13  and  C_14
REMARK    7  A    between atoms: C_14  and  C_15
REMARK    8  A    between atoms: C_18  and  S_19
REMARK    9  A    between atoms: S_19  and  N_20
REMARK                            x       y       z     vdW  Elec       q    Type
REMARK                         _______ _______ _______ _____ _____    ______ ____
ROOT
ATOM      1  N   UNL     1       1.044   4.505  20.314  0.00  0.00    +0.000 NA
ATOM      2  H   UNL     1       0.492   4.151  21.098  0.00  0.00    +0.000 HD
ENDROOT
BRANCH   1   7
ATOM      3  N   UNL     1       3.819   3.612  18.567  0.00  0.00    +0.000 N 
ATOM      4  C   UNL     1       4.055   2.871  19.700  0.00  0.00    +0.000 C 
ATOM      5  O   UNL     1       5.104   2.375  20.098  0.00  0.00    +0.000 OA
ATOM      6  C   UNL     1       2.793   2.753  20.496  0.00  0.00    +0.000 C 
ATOM      7  C   UNL     1       1.731   3.392  19.627  0.00  0.00    +0.000 C 
ATOM      8  C   UNL     1       2.478   3.846  18.388  0.00  0.00    +0.000 C 
ATOM      9  O   UNL     1       1.910   4.287  17.395  0.00  0.00    +0.000 OA
BRANCH   3  13
ATOM     10  C   UNL     1       6.733   4.873  15.738  0.00  0.00    +0.000 A 
ATOM     11  C   UNL     1       6.897   5.161  17.090  0.00  0.00    +0.000 A 
ATOM     12  C   UNL     1       5.947   4.743  18.031  0.00  0.00    +0.000 A 
ATOM     13  C   UNL     1       4.812   4.029  17.636  0.00  0.00    +0.000 A 
ATOM     14  C   UNL     1       4.652   3.767  16.266  0.00  0.00    +0.000 A 
ATOM     15  C   UNL     1       5.596   4.187  15.326  0.00  0.00    +0.000 A 
BRANCH  10  17
ATOM     16  C   UNL     1       7.557   4.987  13.535  0.00  0.00    +0.000 C 
ATOM     17  O   UNL     1       7.710   5.340  14.906  0.00  0.00    +0.000 OA
ENDBRANCH  10  17
ENDBRANCH   3  13
ENDBRANCH   1   7
BRANCH   1  18
ATOM     18  C   UNL     1       1.965   5.533  20.830  0.00  0.00    +0.000 C 
BRANCH  18  19
ATOM     19  C   UNL     1       2.191   6.683  19.841  0.00  0.00    +0.000 C 
BRANCH  19  20
ATOM     20  C   UNL     1       1.578   7.969  20.316  0.00  0.00    +0.000 A 
ATOM     21  C   UNL     1       1.394   9.029  19.413  0.00  0.00    +0.000 A 
ATOM     22  C   UNL     1       0.795  10.210  19.835  0.00  0.00    +0.000 A 
ATOM     23  C   UNL     1       0.384  10.329  21.165  0.00  0.00    +0.000 A 
ATOM     24  C   UNL     1       0.595   9.297  22.082  0.00  0.00    +0.000 A 
ATOM     25  C   UNL     1       1.191   8.114  21.654  0.00  0.00    +0.000 A 
BRANCH  23  26
ATOM     26  S   UNL     1      -0.402  11.818  21.695  0.00  0.00    +0.000 S 
ATOM     27  O   UNL     1      -1.466  12.148  20.776  0.00  0.00    +0.000 OA
ATOM     28  O   UNL     1      -0.596  11.772  23.125  0.00  0.00    +0.000 OA
BRANCH  26  29
ATOM     29  N   UNL     1       0.813  12.942  21.424  0.00  0.00    +0.000 NA
ATOM     30  H   UNL     1       1.141  12.879  20.460  0.00  0.00    +0.000 HD
ATOM     31  H   UNL     1       0.499  13.871  21.704  0.00  0.00    +0.000 HD
ENDBRANCH  26  29
ENDBRANCH  23  26
ENDBRANCH  19  20
ENDBRANCH  18  19
ENDBRANCH   1  18
TORSDOF 8
ENDMDL
MODEL 3
REMARK VINA RESULT:      -7.8      1.177      1.772
REMARK  Name = 
REMARK  9 active torsions:
REMARK  status: ('A' for Active; 'I' for Inactive)
REMARK    1  A    between atoms: C_1  and  O_2
REMARK    2  A    between atoms: O_2  and  C_3
REMARK    3  A    between atoms: C_6  and  N_7
REMARK    4  A    between atoms: C_11  and  N_12
REMARK    5  A    between atoms: N_12  and  C_13
REMARK    6  A    between atoms: C_13  and  C_14
REMARK    7  A    between atoms: C_14  and  C_15
REMARK    8  A    between atoms: C_18  and  S_19
REMARK    9  A    between atoms: S_19  and  N_20
REMARK                            x       y       z     vdW  Elec       q    Type
REMARK                         _______ _______ _______ _____ _____    ______ ____
ROOT
ATOM      1  N   UNL     1       0.968   4.280  19.692  0.00  0.00    +0.000 NA
ATOM      2  H   UNL     1       0.175   3.872  20.192  0.00  0.00    +0.000 HD
ENDROOT
BRANCH   1   7
ATOM      3  N   UNL     1       3.931   3.624  18.163  0.00  0.00    +0.000 N 
ATOM      4  C   UNL     1       4.204   3.039  19.376  0.00  0.00    +0.000 C 
ATOM      5  O   UNL     1       5.287   2.739  19.866  0.00  0.00    +0.000 OA
ATOM      6  C   UNL     1       2.928   2.821  20.128  0.00  0.00    +0.000 C 
ATOM      7  C   UNL     1       1.838   3.215  19.154  0.00  0.00    +0.000 C 
ATOM      8  C   UNL     1       2.582   3.646  17.906  0.00  0.00    +0.000 C 
ATOM      9  O   UNL     1       2.015   3.902  16.850  0.00  0.00    +0.000 OA
BRANCH   3  13
ATOM     10  C   UNL     1       6.803   4.980  15.336  0.00  0.00    +0.000 A 
ATOM     11  C   UNL     1       6.564   5.709  16.497  0.00  0.00    +0.000 A 
ATOM     12  C   UNL     1       5.626   5.267  17.439  0.00  0.00    +0.000 A 
ATOM     13  C   UNL     1       4.907   4.085  17.235  0.00  0.00    +0.000 A 
ATOM     14  C   UNL     1       5.146   3.374  16.048  0.00  0.00    +0.000 A 
ATOM     15  C   UNL     1       6.078   3.816  15.106  0.00  0.00    +0.000 A 
BRANCH  10  17
ATOM     16  C   UNL     1       7.642   5.042  13.136  0.00  0.00    +0.000 C 
ATOM     17  O   UNL     1       7.727   5.508  14.479  0.00  0.00    +0.000 OA
ENDBRANCH  10  17
ENDBRANCH   3  13
ENDBRANCH   1   7
BRANCH   1  18
ATOM     18  C   UNL     1       1.664   5.198  20.610  0.00  0.00    +0.000 C 
BRANCH  18  19
ATOM     19  C   UNL     1       2.530   6.231  19.879  0.00  0.00    +0.000 C 
BRANCH  19  20
ATOM     20  C   UNL     1       1.895   7.591  19.857  0.00  0.00    +0.000 A 
ATOM     21  C   UNL     1       1.904   8.346  18.673  0.00  0.00    +0.000 A 
ATOM     22  C   UNL     1       1.286   9.591  18.633  0.00  0.00    +0.000 A 
ATOM     23  C   UNL     1       0.663  10.080  19.783  0.00  0.00    +0.000 A 
ATOM     24  C   UNL     1       0.678   9.356  20.977  0.00  0.00    +0.000 A 
ATOM     25  C   UNL     1       1.294   8.107  21.011  0.00  0.00    +0.000 A 
BRANCH  23  26
ATOM     26  S   UNL     1      -0.146  11.647  19.726  0.00  0.00    +0.000 S 
ATOM     27  O   UNL     1      -1.501  11.503  20.203  0.00  0.00    +0.000 OA
ATOM     28  O   UNL     1       0.749  12.664  20.224  0.00  0.00    +0.000 OA
BRANCH  26  29
ATOM     29  N   UNL     1      -0.259  11.895  18.070  0.00  0.00    +0.000 NA
ATOM     30  H   UNL     1       0.261  12.730  17.804  0.00  0.00    +0.000 HD
ATOM     31  H   UNL     1       0.013  11.049  17.570  0.00  0.00    +0.000 HD
ENDBRANCH  26  29
ENDBRANCH  23  26
ENDBRANCH  19  20
ENDBRANCH  18  19
ENDBRANCH   1  18
TORSDOF 8
ENDMDL
MODEL 4
REMARK VINA RESULT:      -7.8      1.031      1.442
REMARK  Name = 
REMARK  9 active torsions:
REMARK  status: ('A' for Active; 'I' for Inactive)
REMARK    1  A    between atoms: C_1  and  O_2
REMARK    2  A    between atoms: O_2  and  C_3
REMARK    3  A    between atoms: C_6  and  N_7
REMARK    4  A    between atoms: C_11  and  N_12
REMARK    5  A    between atoms: N_12  and  C_13
REMARK    6  A    between atoms: C_13  and  C_14
REMARK    7  A    between atoms: C_14  and  C_15
REMARK    8  A    between atoms: C_18  and  S_19
REMARK    9  A    between atoms: S_19  and  N_20
REMARK                            x       y       z     vdW  Elec       q    Type
REMARK                         _______ _______ _______ _____ _____    ______ ____
ROOT
ATOM      1  N   UNL     1       0.924   4.210  20.062  0.00  0.00    +0.000 NA
ATOM      2  H   UNL     1       0.236   3.787  20.689  0.00  0.00    +0.000 HD
ENDROOT
BRANCH   1   7
ATOM      3  N   UNL     1       3.803   3.596  18.364  0.00  0.00    +0.000 N 
ATOM      4  C   UNL     1       4.122   2.944  19.531  0.00  0.00    +0.000 C 
ATOM      5  O   UNL     1       5.222   2.605  19.954  0.00  0.00    +0.000 OA
ATOM      6  C   UNL     1       2.879   2.704  20.330  0.00  0.00    +0.000 C 
ATOM      7  C   UNL     1       1.752   3.162  19.430  0.00  0.00    +0.000 C 
ATOM      8  C   UNL     1       2.444   3.649  18.172  0.00  0.00    +0.000 C 
ATOM      9  O   UNL     1       1.833   3.968  17.159  0.00  0.00    +0.000 OA
BRANCH   3  13
ATOM     10  C   UNL     1       6.651   5.099  15.588  0.00  0.00    +0.000 A 
ATOM     11  C   UNL     1       6.001   3.894  15.342  0.00  0.00    +0.000 A 
ATOM     12  C   UNL     1       5.055   3.394  16.246  0.00  0.00    +0.000 A 
ATOM     13  C   UNL     1       4.742   4.092  17.417  0.00  0.00    +0.000 A 
ATOM     14  C   UNL     1       5.424   5.294  17.659  0.00  0.00    +0.000 A 
ATOM     15  C   UNL     1       6.371   5.792  16.760  0.00  0.00    +0.000 A 
BRANCH  10  17
ATOM     16  C   UNL     1       7.407   4.887  13.367  0.00  0.00    +0.000 C 
ATOM     17  O   UNL     1       7.565   5.486  14.649  0.00  0.00    +0.000 OA
ENDBRANCH  10  17
ENDBRANCH   3  13
ENDBRANCH   1   7
BRANCH   1  18
ATOM     18  C   UNL     1       1.708   5.188  20.836  0.00  0.00    +0.000 C 
BRANCH  18  19
ATOM     19  C   UNL     1       2.414   6.222  19.950  0.00  0.00    +0.000 C 
BRANCH  19  20
ATOM     20  C   UNL     1       1.785   7.582  20.051  0.00  0.00    +0.000 A 
ATOM     21  C   UNL     1       1.800   8.440  18.940  0.00  0.00    +0.000 A 
ATOM     22  C   UNL     1       1.188   9.687  19.014  0.00  0.00    +0.000 A 
ATOM     23  C   UNL     1       0.564  10.072  20.203  0.00  0.00    +0.000 A 
ATOM     24  C   UNL     1       0.574   9.242  21.325  0.00  0.00    +0.000 A 
ATOM     25  C   UNL     1       1.184   7.993  21.247  0.00  0.00    +0.000 A 
BRANCH  23  26
ATOM     26  S   UNL     1      -0.237  11.642  20.287  0.00  0.00    +0.000 S 
ATOM     27  O   UNL     1      -1.484  11.581  19.560  0.00  0.00    +0.000 OA
ATOM     28  O   UNL     1      -0.148  12.152  21.635  0.00  0.00    +0.000 OA
BRANCH  26  29
ATOM     29  N   UNL     1       0.796  12.585  19.361  0.00  0.00    +0.000 NA
ATOM     30  H   UNL     1       0.503  13.561  19.393  0.00  0.00    +0.000 HD
ATOM     31  H   UNL     1       1.764  12.424  19.642  0.00  0.00    +0.000 HD
ENDBRANCH  26  29
ENDBRANCH  23  26
ENDBRANCH  19  20
ENDBRANCH  18  19
ENDBRANCH   1  18
TORSDOF 8
ENDMDL
MODEL 5
REMARK VINA RESULT:      -7.8      1.090      1.214
REMARK  Name = 
REMARK  9 active torsions:
REMARK  status: ('A' for Active; 'I' for Inactive)
REMARK    1  A    between atoms: C_1  and  O_2
REMARK    2  A    between atoms: O_2  and  C_3
REMARK    3  A    between atoms: C_6  and  N_7
REMARK    4  A    between atoms: C_11  and  N_12
REMARK    5  A    between atoms: N_12  and  C_13
REMARK    6  A    between atoms: C_13  and  C_14
REMARK    7  A    between atoms: C_14  and  C_15
REMARK    8  A    between atoms: C_18  and  S_19
REMARK    9  A    between atoms: S_19  and  N_20
REMARK                            x       y       z     vdW  Elec       q    Type
REMARK                         _______ _______ _______ _____ _____    ______ ____
ROOT
ATOM      1  N   UNL     1       1.057   4.351  19.674  0.00  0.00    +0.000 NA
ATOM      2  H   UNL     1       0.262   3.903  20.133  0.00  0.00    +0.000 HD
ENDROOT
BRANCH   1   7
ATOM      3  N   UNL     1       3.952   3.837  17.970  0.00  0.00    +0.000 N 
ATOM      4  C   UNL     1       4.413   3.540  19.230  0.00  0.00    +0.000 C 
ATOM      5  O   UNL     1       5.566   3.496  19.644  0.00  0.00    +0.000 OA
ATOM      6  C   UNL     1       3.253   3.294  20.144  0.00  0.00    +0.000 C 
ATOM      7  C   UNL     1       2.039   3.335  19.241  0.00  0.00    +0.000 C 
ATOM      8  C   UNL     1       2.601   3.619  17.863  0.00  0.00    +0.000 C 
ATOM      9  O   UNL     1       1.916   3.584  16.847  0.00  0.00    +0.000 OA
BRANCH   3  13
ATOM     10  C   UNL     1       6.396   5.109  14.730  0.00  0.00    +0.000 A 
ATOM     11  C   UNL     1       6.345   3.764  15.084  0.00  0.00    +0.000 A 
ATOM     12  C   UNL     1       5.536   3.333  16.144  0.00  0.00    +0.000 A 
ATOM     13  C   UNL     1       4.764   4.243  16.873  0.00  0.00    +0.000 A 
ATOM     14  C   UNL     1       4.845   5.598  16.516  0.00  0.00    +0.000 A 
ATOM     15  C   UNL     1       5.654   6.030  15.462  0.00  0.00    +0.000 A 
BRANCH  10  17
ATOM     16  C   UNL     1       7.146   4.549  12.569  0.00  0.00    +0.000 C 
ATOM     17  O   UNL     1       7.226   5.421  13.692  0.00  0.00    +0.000 OA
ENDBRANCH  10  17
ENDBRANCH   3  13
ENDBRANCH   1   7
BRANCH   1  18
ATOM     18  C   UNL     1       1.618   5.351  20.599  0.00  0.00    +0.000 C 
BRANCH  18  19
ATOM     19  C   UNL     1       2.213   6.565  19.878  0.00  0.00    +0.000 C 
BRANCH  19  20
ATOM     20  C   UNL     1       1.558   7.851  20.295  0.00  0.00    +0.000 A 
ATOM     21  C   UNL     1       1.105   8.005  21.615  0.00  0.00    +0.000 A 
ATOM     22  C   UNL     1       0.531   9.205  22.020  0.00  0.00    +0.000 A 
ATOM     23  C   UNL     1       0.410  10.249  21.099  0.00  0.00    +0.000 A 
ATOM     24  C   UNL     1       0.823  10.095  19.775  0.00  0.00    +0.000 A 
ATOM     25  C   UNL     1       1.402   8.893  19.374  0.00  0.00    +0.000 A 
BRANCH  23  26
ATOM     26  S   UNL     1      -0.293  11.781  21.620  0.00  0.00    +0.000 S 
ATOM     27  O   UNL     1      -1.272  12.212  20.649  0.00  0.00    +0.000 OA
ATOM     28  O   UNL     1      -0.576  11.721  23.034  0.00  0.00    +0.000 OA
BRANCH  26  29
ATOM     29  N   UNL     1       1.017  12.815  21.450  0.00  0.00    +0.000 NA
ATOM     30  H   UNL     1       0.749  13.633  20.904  0.00  0.00    +0.000 HD
ATOM     31  H   UNL     1       1.416  13.029  22.364  0.00  0.00    +0.000 HD
ENDBRANCH  26  29
ENDBRANCH  23  26
ENDBRANCH  19  20
ENDBRANCH  18  19
ENDBRANCH   1  18
TORSDOF 8
ENDMDL
MODEL 6
REMARK VINA RESULT:      -7.8      1.726      2.310
REMARK  Name = 
REMARK  9 active torsions:
REMARK  status: ('A' for Active; 'I' for Inactive)
REMARK    1  A    between atoms: C_1  and  O_2
REMARK    2  A    between atoms: O_2  and  C_3
REMARK    3  A    between atoms: C_6  and  N_7
REMARK    4  A    between atoms: C_11  and  N_12
REMARK    5  A    between atoms: N_12  and  C_13
REMARK    6  A    between atoms: C_13  and  C_14
REMARK    7  A    between atoms: C_14  and  C_15
REMARK    8  A    between atoms: C_18  and  S_19
REMARK    9  A    between atoms: S_19  and  N_20
REMARK                            x       y       z     vdW  Elec       q    Type
REMARK                         _______ _______ _______ _____ _____    ______ ____
ROOT
ATOM      1  N   UNL     1       0.828   3.589  19.405  0.00  0.00    +0.000 NA
ATOM      2  H   UNL     1      -0.104   3.170  19.401  0.00  0.00    +0.000 HD
ENDROOT
BRANCH   1   7
ATOM      3  N   UNL     1       3.933   3.262  18.062  0.00  0.00    +0.000 N 
ATOM      4  C   UNL     1       4.176   2.649  19.268  0.00  0.00    +0.000 C 
ATOM      5  O   UNL     1       5.247   2.423  19.820  0.00  0.00    +0.000 OA
ATOM      6  C   UNL     1       2.878   2.288  19.920  0.00  0.00    +0.000 C 
ATOM      7  C   UNL     1       1.824   2.629  18.888  0.00  0.00    +0.000 C 
ATOM      8  C   UNL     1       2.607   3.179  17.713  0.00  0.00    +0.000 C 
ATOM      9  O   UNL     1       2.090   3.432  16.631  0.00  0.00    +0.000 OA
BRANCH   3  13
ATOM     10  C   UNL     1       6.845   5.002  15.499  0.00  0.00    +0.000 A 
ATOM     11  C   UNL     1       6.666   5.490  16.790  0.00  0.00    +0.000 A 
ATOM     12  C   UNL     1       5.716   4.918  17.646  0.00  0.00    +0.000 A 
ATOM     13  C   UNL     1       4.923   3.847  17.223  0.00  0.00    +0.000 A 
ATOM     14  C   UNL     1       5.102   3.383  15.911  0.00  0.00    +0.000 A 
ATOM     15  C   UNL     1       6.046   3.955  15.055  0.00  0.00    +0.000 A 
BRANCH  10  17
ATOM     16  C   UNL     1       7.824   5.263  13.373  0.00  0.00    +0.000 C 
ATOM     17  O   UNL     1       7.788   5.642  14.745  0.00  0.00    +0.000 OA
ENDBRANCH  10  17
ENDBRANCH   3  13
ENDBRANCH   1   7
BRANCH   1  18
ATOM     18  C   UNL     1       1.116   4.053  20.774  0.00  0.00    +0.000 C 
BRANCH  18  19
ATOM     19  C   UNL     1       2.335   4.980  20.846  0.00  0.00    +0.000 C 
BRANCH  19  20
ATOM     20  C   UNL     1       2.054   6.334  20.261  0.00  0.00    +0.000 A 
ATOM     21  C   UNL     1       1.346   7.285  21.014  0.00  0.00    +0.000 A 
ATOM     22  C   UNL     1       1.114   8.554  20.494  0.00  0.00    +0.000 A 
ATOM     23  C   UNL     1       1.589   8.866  19.218  0.00  0.00    +0.000 A 
ATOM     24  C   UNL     1       2.262   7.919  18.446  0.00  0.00    +0.000 A 
ATOM     25  C   UNL     1       2.497   6.650  18.971  0.00  0.00    +0.000 A 
BRANCH  23  26
ATOM     26  S   UNL     1       1.318  10.485  18.570  0.00  0.00    +0.000 S 
ATOM     27  O   UNL     1       0.965  11.378  19.650  0.00  0.00    +0.000 OA
ATOM     28  O   UNL     1       2.352  10.795  17.612  0.00  0.00    +0.000 OA
BRANCH  26  29
ATOM     29  N   UNL     1      -0.087  10.251  17.683  0.00  0.00    +0.000 NA
ATOM     30  H   UNL     1      -0.827   9.894  18.286  0.00  0.00    +0.000 HD
ATOM     31  H   UNL     1      -0.327  11.103  17.177  0.00  0.00    +0.000 HD
ENDBRANCH  26  29
ENDBRANCH  23  26
ENDBRANCH  19  20
ENDBRANCH  18  19
ENDBRANCH   1  18
TORSDOF 8
ENDMDL
MODEL 7
REMARK VINA RESULT:      -7.8      1.646      2.105
REMARK  Name = 
REMARK  9 active torsions:
REMARK  status: ('A' for Active; 'I' for Inactive)
REMARK    1  A    between atoms: C_1  and  O_2
REMARK    2  A    between atoms: O_2  and  C_3
REMARK    3  A    between atoms: C_6  and  N_7
REMARK    4  A    between atoms: C_11  and  N_12
REMARK    5  A    between atoms: N_12  and  C_13
REMARK    6  A    between atoms: C_13  and  C_14
REMARK    7  A    between atoms: C_14  and  C_15
REMARK    8  A    between atoms: C_18  and  S_19
REMARK    9  A    between atoms: S_19  and  N_20
REMARK                            x       y       z     vdW  Elec       q    Type
REMARK                         _______ _______ _______ _____ _____    ______ ____
ROOT
ATOM      1  N   UNL     1       1.440   5.348  20.769  0.00  0.00    +0.000 NA
ATOM      2  H   UNL     1       1.793   5.216  21.719  0.00  0.00    +0.000 HD
ENDROOT
BRANCH   1   7
ATOM      3  N   UNL     1       3.827   4.141  18.672  0.00  0.00    +0.000 N 
ATOM      4  C   UNL     1       3.999   3.245  19.700  0.00  0.00    +0.000 C 
ATOM      5  O   UNL     1       4.954   2.515  19.940  0.00  0.00    +0.000 OA
ATOM      6  C   UNL     1       2.808   3.283  20.606  0.00  0.00    +0.000 C 
ATOM      7  C   UNL     1       1.830   4.209  19.913  0.00  0.00    +0.000 C 
ATOM      8  C   UNL     1       2.550   4.647  18.653  0.00  0.00    +0.000 C 
ATOM      9  O   UNL     1       2.004   5.298  17.770  0.00  0.00    +0.000 OA
BRANCH   3  13
ATOM     10  C   UNL     1       6.797   5.104  15.786  0.00  0.00    +0.000 A 
ATOM     11  C   UNL     1       5.857   4.113  15.521  0.00  0.00    +0.000 A 
ATOM     12  C   UNL     1       4.869   3.794  16.461  0.00  0.00    +0.000 A 
ATOM     13  C   UNL     1       4.804   4.461  17.688  0.00  0.00    +0.000 A 
ATOM     14  C   UNL     1       5.774   5.442  17.947  0.00  0.00    +0.000 A 
ATOM     15  C   UNL     1       6.763   5.759  17.013  0.00  0.00    +0.000 A 
BRANCH  10  17
ATOM     16  C   UNL     1       7.330   4.924  13.500  0.00  0.00    +0.000 C 
ATOM     17  O   UNL     1       7.724   5.325  14.808  0.00  0.00    +0.000 OA
ENDBRANCH  10  17
ENDBRANCH   3  13
ENDBRANCH   1   7
BRANCH   1  18
ATOM     18  C   UNL     1       1.930   6.647  20.274  0.00  0.00    +0.000 C 
BRANCH  18  19
ATOM     19  C   UNL     1       1.582   7.811  21.209  0.00  0.00    +0.000 C 
BRANCH  19  20
ATOM     20  C   UNL     1       0.887   8.930  20.488  0.00  0.00    +0.000 A 
ATOM     21  C   UNL     1       1.238   9.228  19.161  0.00  0.00    +0.000 A 
ATOM     22  C   UNL     1       0.574  10.239  18.473  0.00  0.00    +0.000 A 
ATOM     23  C   UNL     1      -0.439  10.951  19.119  0.00  0.00    +0.000 A 
ATOM     24  C   UNL     1      -0.772  10.689  20.449  0.00  0.00    +0.000 A 
ATOM     25  C   UNL     1      -0.108   9.673  21.133  0.00  0.00    +0.000 A 
BRANCH  23  26
ATOM     26  S   UNL     1      -1.301  12.215  18.238  0.00  0.00    +0.000 S 
ATOM     27  O   UNL     1      -0.415  13.335  18.023  0.00  0.00    +0.000 OA
ATOM     28  O   UNL     1      -2.068  11.615  17.173  0.00  0.00    +0.000 OA
BRANCH  26  29
ATOM     29  N   UNL     1      -2.413  12.715  19.390  0.00  0.00    +0.000 NA
ATOM     30  H   UNL     1      -2.505  13.730  19.371  0.00  0.00    +0.000 HD
ATOM     31  H   UNL     1      -3.290  12.208  19.274  0.00  0.00    +0.000 HD
ENDBRANCH  26  29
ENDBRANCH  23  26
ENDBRANCH  19  20
ENDBRANCH  18  19
ENDBRANCH   1  18
TORSDOF 8
ENDMDL
MODEL 8
REMARK VINA RESULT:      -7.8      2.006      2.682
REMARK  Name = 
REMARK  9 active torsions:
REMARK  status: ('A' for Active; 'I' for Inactive)
REMARK    1  A    between atoms: C_1  and  O_2
REMARK    2  A    between atoms: O_2  and  C_3
REMARK    3  A    between atoms: C_6  and  N_7
REMARK    4  A    between atoms: C_11  and  N_12
REMARK    5  A    between atoms: N_12  and  C_13
REMARK    6  A    between atoms: C_13  and  C_14
REMARK    7  A    between atoms: C_14  and  C_15
REMARK    8  A    between atoms: C_18  and  S_19
REMARK    9  A    between atoms: S_19  and  N_20
REMARK                            x       y       z     vdW  Elec       q    Type
REMARK                         _______ _______ _______ _____ _____    ______ ____
ROOT
ATOM      1  N   UNL     1       2.123   7.361  20.980  0.00  0.00    +0.000 NA
ATOM      2  H   UNL     1       2.907   7.961  20.716  0.00  0.00    +0.000 HD
ENDROOT
BRANCH   1   7
ATOM      3  N   UNL     1       3.747   5.457  18.679  0.00  0.00    +0.000 N 
ATOM      4  C   UNL     1       3.532   4.482  19.623  0.00  0.00    +0.000 C 
ATOM      5  O   UNL     1       4.089   3.397  19.758  0.00  0.00    +0.000 OA
ATOM      6  C   UNL     1       2.480   4.936  20.586  0.00  0.00    +0.000 C 
ATOM      7  C   UNL     1       1.983   6.248  20.018  0.00  0.00    +0.000 C 
ATOM      8  C   UNL     1       2.807   6.455  18.764  0.00  0.00    +0.000 C 
ATOM      9  O   UNL     1       2.581   7.355  17.962  0.00  0.00    +0.000 OA
BRANCH   3  13
ATOM     10  C   UNL     1       6.817   5.353  15.739  0.00  0.00    +0.000 A 
ATOM     11  C   UNL     1       5.635   4.644  15.544  0.00  0.00    +0.000 A 
ATOM     12  C   UNL     1       4.614   4.678  16.503  0.00  0.00    +0.000 A 
ATOM     13  C   UNL     1       4.757   5.423  17.677  0.00  0.00    +0.000 A 
ATOM     14  C   UNL     1       5.965   6.114  17.866  0.00  0.00    +0.000 A 
ATOM     15  C   UNL     1       6.986   6.077  16.913  0.00  0.00    +0.000 A 
BRANCH  10  17
ATOM     16  C   UNL     1       7.250   4.788  13.494  0.00  0.00    +0.000 C 
ATOM     17  O   UNL     1       7.751   5.238  14.749  0.00  0.00    +0.000 OA
ENDBRANCH  10  17
ENDBRANCH   3  13
ENDBRANCH   1   7
BRANCH   1  18
ATOM     18  C   UNL     1       0.918   8.201  21.083  0.00  0.00    +0.000 C 
BRANCH  18  19
ATOM     19  C   UNL     1       1.055   9.317  22.125  0.00  0.00    +0.000 C 
BRANCH  19  20
ATOM     20  C   UNL     1      -0.072  10.306  22.051  0.00  0.00    +0.000 A 
ATOM     21  C   UNL     1      -0.359  10.945  20.834  0.00  0.00    +0.000 A 
ATOM     22  C   UNL     1      -1.424  11.835  20.747  0.00  0.00    +0.000 A 
ATOM     23  C   UNL     1      -2.198  12.086  21.882  0.00  0.00    +0.000 A 
ATOM     24  C   UNL     1      -1.901  11.485  23.106  0.00  0.00    +0.000 A 
ATOM     25  C   UNL     1      -0.836  10.591  23.189  0.00  0.00    +0.000 A 
BRANCH  23  26
ATOM     26  S   UNL     1      -3.567  13.194  21.765  0.00  0.00    +0.000 S 
ATOM     27  O   UNL     1      -4.778  12.495  22.127  0.00  0.00    +0.000 OA
ATOM     28  O   UNL     1      -3.202  14.466  22.342  0.00  0.00    +0.000 OA
BRANCH  26  29
ATOM     29  N   UNL     1      -3.648  13.438  20.107  0.00  0.00    +0.000 NA
ATOM     30  H   UNL     1      -4.435  14.044  19.880  0.00  0.00    +0.000 HD
ATOM     31  H   UNL     1      -2.747  13.765  19.757  0.00  0.00    +0.000 HD
ENDBRANCH  26  29
ENDBRANCH  23  26
ENDBRANCH  19  20
ENDBRANCH  18  19
ENDBRANCH   1  18
TORSDOF 8
ENDMDL
MODEL 9
REMARK VINA RESULT:      -7.7      1.645      1.952
REMARK  Name = 
REMARK  9 active torsions:
REMARK  status: ('A' for Active; 'I' for Inactive)
REMARK    1  A    between atoms: C_1  and  O_2
REMARK    2  A    between atoms: O_2  and  C_3
REMARK    3  A    between atoms: C_6  and  N_7
REMARK    4  A    between atoms: C_11  and  N_12
REMARK    5  A    between atoms: N_12  and  C_13
REMARK    6  A    between atoms: C_13  and  C_14
REMARK    7  A    between atoms: C_14  and  C_15
REMARK    8  A    between atoms: C_18  and  S_19
REMARK    9  A    between atoms: S_19  and  N_20
REMARK                            x       y       z     vdW  Elec       q    Type
REMARK                         _______ _______ _______ _____ _____    ______ ____
ROOT
ATOM      1  N   UNL     1       0.915   5.309  20.260  0.00  0.00    +0.000 NA
ATOM      2  H   UNL     1       0.298   5.039  21.029  0.00  0.00    +0.000 HD
ENDROOT
BRANCH   1   7
ATOM      3  N   UNL     1       3.510   4.237  18.345  0.00  0.00    +0.000 N 
ATOM      4  C   UNL     1       3.949   3.756  19.555  0.00  0.00    +0.000 C 
ATOM      5  O   UNL     1       5.077   3.411  19.889  0.00  0.00    +0.000 OA
ATOM      6  C   UNL     1       2.812   3.731  20.528  0.00  0.00    +0.000 C 
ATOM      7  C   UNL     1       1.599   4.120  19.711  0.00  0.00    +0.000 C 
ATOM      8  C   UNL     1       2.142   4.354  18.315  0.00  0.00    +0.000 C 
ATOM      9  O   UNL     1       1.418   4.552  17.346  0.00  0.00    +0.000 OA
BRANCH   3  13
ATOM     10  C   UNL     1       6.012   5.114  15.021  0.00  0.00    +0.000 A 
ATOM     11  C   UNL     1       5.793   3.794  15.404  0.00  0.00    +0.000 A 
ATOM     12  C   UNL     1       4.963   3.494  16.492  0.00  0.00    +0.000 A 
ATOM     13  C   UNL     1       4.338   4.512  17.220  0.00  0.00    +0.000 A 
ATOM     14  C   UNL     1       4.589   5.837  16.832  0.00  0.00    +0.000 A 
ATOM     15  C   UNL     1       5.419   6.139  15.750  0.00  0.00    +0.000 A 
BRANCH  10  17
ATOM     16  C   UNL     1       6.860   4.232  13.009  0.00  0.00    +0.000 C 
ATOM     17  O   UNL     1       6.849   5.295  13.956  0.00  0.00    +0.000 OA
ENDBRANCH  10  17
ENDBRANCH   3  13
ENDBRANCH   1   7
BRANCH   1  18
ATOM     18  C   UNL     1       1.841   6.341  20.757  0.00  0.00    +0.000 C 
BRANCH  18  19
ATOM     19  C   UNL     1       2.297   7.312  19.661  0.00  0.00    +0.000 C 
BRANCH  19  20
ATOM     20  C   UNL     1       1.375   8.490  19.527  0.00  0.00    +0.000 A 
ATOM     21  C   UNL     1       1.211   9.108  18.277  0.00  0.00    +0.000 A 
ATOM     22  C   UNL     1       0.333  10.176  18.136  0.00  0.00    +0.000 A 
ATOM     23  C   UNL     1      -0.378  10.627  19.251  0.00  0.00    +0.000 A 
ATOM     24  C   UNL     1      -0.197  10.045  20.507  0.00  0.00    +0.000 A 
ATOM     25  C   UNL     1       0.681   8.972  20.643  0.00  0.00    +0.000 A 
BRANCH  23  26
ATOM     26  S   UNL     1      -1.514  11.965  19.067  0.00  0.00    +0.000 S 
ATOM     27  O   UNL     1      -2.839  11.437  18.834  0.00  0.00    +0.000 OA
ATOM     28  O   UNL     1      -1.242  12.964  20.073  0.00  0.00    +0.000 OA
BRANCH  26  29
ATOM     29  N   UNL     1      -1.011  12.621  17.608  0.00  0.00    +0.000 NA
ATOM     30  H   UNL     1      -0.391  13.413  17.775  0.00  0.00    +0.000 HD
ATOM     31  H   UNL     1      -0.616  11.892  17.014  0.00  0.00    +0.000 HD
ENDBRANCH  26  29
ENDBRANCH  23  26
ENDBRANCH  19  20
ENDBRANCH  18  19
ENDBRANCH   1  18
TORSDOF 8
ENDMDL
