MODEL 1
REMARK VINA RESULT:      -7.2      0.000      0.000
REMARK  Name = 
REMARK  6 active torsions:
REMARK  status: ('A' for Active; 'I' for Inactive)
REMARK    1  A    between atoms: C_1  and  C_2
REMARK    2  A    between atoms: C_6  and  O_7
REMARK    3  A    between atoms: C_8  and  C_9
REMARK    4  A    between atoms: N_11  and  C_12
REMARK    5  A    between atoms: C_15  and  C_16
REMARK    6  A    between atoms: C_16  and  N_17
REMARK                            x       y       z     vdW  Elec       q    Type
REMARK                         _______ _______ _______ _____ _____    ______ ____
ROOT
ATOM      1  C   UNL     1       3.982   3.028  18.035  0.00  0.00    +0.000 C 
ATOM      2  O   UNL     1       4.148   1.968  17.442  0.00  0.00    +0.000 OA
ATOM      3  N   UNL     1       4.583   4.223  17.665  0.00  0.00    +0.000 N 
ATOM      4  H   UNL     1       4.496   4.989  18.326  0.00  0.00    +0.000 HD
ENDROOT
BRANCH   1  11
ATOM      5  C   UNL     1       1.215   4.229  17.940  0.00  0.00    +0.000 C 
ATOM      6  C   UNL     1       1.783   3.581  19.178  0.00  0.00    +0.000 A 
ATOM      7  C   UNL     1       0.953   3.548  20.315  0.00  0.00    +0.000 A 
ATOM      8  C   UNL     1       1.396   2.993  21.513  0.00  0.00    +0.000 A 
ATOM      9  C   UNL     1       2.679   2.474  21.602  0.00  0.00    +0.000 A 
ATOM     10  C   UNL     1       3.525   2.500  20.488  0.00  0.00    +0.000 A 
ATOM     11  C   UNL     1       3.099   3.043  19.258  0.00  0.00    +0.000 A 
BRANCH  10  12
ATOM     12  O   UNL     1       4.786   1.976  20.629  0.00  0.00    +0.000 OA
ATOM     13  H   UNL     1       4.900   1.682  21.552  0.00  0.00    +0.000 HD
ENDBRANCH  10  12
ENDBRANCH   1  11
BRANCH   3  14
ATOM     14  C   UNL     1       5.393   4.438  16.526  0.00  0.00    +0.000 A 
ATOM     15  C   UNL     1       6.731   4.827  16.606  0.00  0.00    +0.000 A 
ATOM     16  C   UNL     1       7.500   5.018  15.457  0.00  0.00    +0.000 A 
ATOM     17  C   UNL     1       6.950   4.818  14.190  0.00  0.00    +0.000 A 
ATOM     18  C   UNL     1       5.605   4.431  14.101  0.00  0.00    +0.000 A 
ATOM     19  C   UNL     1       4.837   4.234  15.258  0.00  0.00    +0.000 A 
BRANCH  17  20
ATOM     20  C   UNL     1       7.802   5.014  12.963  0.00  0.00    +0.000 C 
BRANCH  20  21
ATOM     21  N   UNL     1       8.896   5.946  13.214  0.00  0.00    +0.000 NA
ATOM     22  H   UNL     1       9.731   5.408  13.442  0.00  0.00    +0.000 HD
ATOM     23  H   UNL     1       8.675   6.495  14.043  0.00  0.00    +0.000 HD
ENDBRANCH  20  21
ENDBRANCH  17  20
ENDBRANCH   3  14
TORSDOF 5
ENDMDL
MODEL 2
REMARK VINA RESULT:      -7.2      0.087      1.101
REMARK  Name = 
REMARK  6 active torsions:
REMARK  status: ('A' for Active; 'I' for Inactive)
REMARK    1  A    between atoms: C_1  and  C_2
REMARK    2  A    between atoms: C_6  and  O_7
REMARK    3  A    between atoms: C_8  and  C_9
REMARK    4  A    between atoms: N_11  and  C_12
REMARK    5  A    between atoms: C_15  and  C_16
REMARK    6  A    between atoms: C_16  and  N_17
REMARK                            x       y       z     vdW  Elec       q    Type
REMARK                         _______ _______ _______ _____ _____    ______ ____
ROOT
ATOM      1  C   UNL     1       3.961   3.020  18.014  0.00  0.00    +0.000 C 
ATOM      2  O   UNL     1       4.124   1.945  17.447  0.00  0.00    +0.000 OA
ATOM      3  N   UNL     1       4.551   4.207  17.604  0.00  0.00    +0.000 N 
ATOM      4  H   UNL     1       4.469   4.991  18.246  0.00  0.00    +0.000 HD
ENDROOT
BRANCH   1  11
ATOM      5  C   UNL     1       1.211   4.261  17.941  0.00  0.00    +0.000 C 
ATOM      6  C   UNL     1       1.786   3.620  19.179  0.00  0.00    +0.000 A 
ATOM      7  C   UNL     1       0.971   3.613  20.328  0.00  0.00    +0.000 A 
ATOM      8  C   UNL     1       1.422   3.068  21.527  0.00  0.00    +0.000 A 
ATOM      9  C   UNL     1       2.698   2.530  21.605  0.00  0.00    +0.000 A 
ATOM     10  C   UNL     1       3.529   2.530  20.479  0.00  0.00    +0.000 A 
ATOM     11  C   UNL     1       3.095   3.064  19.249  0.00  0.00    +0.000 A 
BRANCH  10  12
ATOM     12  O   UNL     1       4.784   1.988  20.611  0.00  0.00    +0.000 OA
ATOM     13  H   UNL     1       5.305   2.212  19.818  0.00  0.00    +0.000 HD
ENDBRANCH  10  12
ENDBRANCH   1  11
BRANCH   3  14
ATOM     14  C   UNL     1       5.345   4.395  16.449  0.00  0.00    +0.000 A 
ATOM     15  C   UNL     1       4.896   4.098  15.161  0.00  0.00    +0.000 A 
ATOM     16  C   UNL     1       5.707   4.307  14.044  0.00  0.00    +0.000 A 
ATOM     17  C   UNL     1       6.993   4.830  14.186  0.00  0.00    +0.000 A 
ATOM     18  C   UNL     1       7.453   5.128  15.477  0.00  0.00    +0.000 A 
ATOM     19  C   UNL     1       6.633   4.921  16.597  0.00  0.00    +0.000 A 
BRANCH  17  20
ATOM     20  C   UNL     1       7.845   5.065  12.967  0.00  0.00    +0.000 C 
BRANCH  20  21
ATOM     21  N   UNL     1       8.967   5.950  13.259  0.00  0.00    +0.000 NA
ATOM     22  H   UNL     1       9.818   5.389  13.297  0.00  0.00    +0.000 HD
ATOM     23  H   UNL     1       8.842   6.341  14.191  0.00  0.00    +0.000 HD
ENDBRANCH  20  21
ENDBRANCH  17  20
ENDBRANCH   3  14
TORSDOF 5
ENDMDL
MODEL 3
REMARK VINA RESULT:      -6.9      0.918      2.263
REMARK  Name = 
REMARK  6 active torsions:
REMARK  status: ('A' for Active; 'I' for Inactive)
REMARK    1  A    between atoms: C_1  and  C_2
REMARK    2  A    between atoms: C_6  and  O_7
REMARK    3  A    between atoms: C_8  and  C_9
REMARK    4  A    between atoms: N_11  and  C_12
REMARK    5  A    between atoms: C_15  and  C_16
REMARK    6  A    between atoms: C_16  and  N_17
REMARK                            x       y       z     vdW  Elec       q    Type
REMARK                         _______ _______ _______ _____ _____    ______ ____
ROOT
ATOM      1  C   UNL     1       3.816   2.951  17.917  0.00  0.00    +0.000 C 
ATOM      2  O   UNL     1       4.042   1.868  17.391  0.00  0.00    +0.000 OA
ATOM      3  N   UNL     1       4.377   4.148  17.494  0.00  0.00    +0.000 N 
ATOM      4  H   UNL     1       4.239   4.947  18.108  0.00  0.00    +0.000 HD
ENDROOT
BRANCH   1  11
ATOM      5  C   UNL     1       4.724   1.944  20.613  0.00  0.00    +0.000 C 
ATOM      6  C   UNL     1       3.363   2.552  20.384  0.00  0.00    +0.000 A 
ATOM      7  C   UNL     1       2.512   2.644  21.502  0.00  0.00    +0.000 A 
ATOM      8  C   UNL     1       1.227   3.168  21.387  0.00  0.00    +0.000 A 
ATOM      9  C   UNL     1       0.764   3.598  20.153  0.00  0.00    +0.000 A 
ATOM     10  C   UNL     1       1.588   3.512  19.025  0.00  0.00    +0.000 A 
ATOM     11  C   UNL     1       2.898   2.998  19.114  0.00  0.00    +0.000 A 
BRANCH  10  12
ATOM     12  O   UNL     1       1.080   3.949  17.826  0.00  0.00    +0.000 OA
ATOM     13  H   UNL     1       1.257   3.272  17.148  0.00  0.00    +0.000 HD
ENDBRANCH  10  12
ENDBRANCH   1  11
BRANCH   3  14
ATOM     14  C   UNL     1       5.210   4.333  16.366  0.00  0.00    +0.000 A 
ATOM     15  C   UNL     1       4.776   4.117  15.057  0.00  0.00    +0.000 A 
ATOM     16  C   UNL     1       5.626   4.320  13.969  0.00  0.00    +0.000 A 
ATOM     17  C   UNL     1       6.939   4.754  14.162  0.00  0.00    +0.000 A 
ATOM     18  C   UNL     1       7.383   4.970  15.474  0.00  0.00    +0.000 A 
ATOM     19  C   UNL     1       6.524   4.770  16.566  0.00  0.00    +0.000 A 
BRANCH  17  20
ATOM     20  C   UNL     1       7.834   4.984  12.973  0.00  0.00    +0.000 C 
BRANCH  20  21
ATOM     21  N   UNL     1       8.829   6.016  13.244  0.00  0.00    +0.000 NA
ATOM     22  H   UNL     1       9.500   6.024  12.476  0.00  0.00    +0.000 HD
ATOM     23  H   UNL     1       9.354   5.756  14.077  0.00  0.00    +0.000 HD
ENDBRANCH  20  21
ENDBRANCH  17  20
ENDBRANCH   3  14
TORSDOF 5
ENDMDL
MODEL 4
REMARK VINA RESULT:      -6.9      1.209      1.568
REMARK  Name = 
REMARK  6 active torsions:
REMARK  status: ('A' for Active; 'I' for Inactive)
REMARK    1  A    between atoms: C_1  and  C_2
REMARK    2  A    between atoms: C_6  and  O_7
REMARK    3  A    between atoms: C_8  and  C_9
REMARK    4  A    between atoms: N_11  and  C_12
REMARK    5  A    between atoms: C_15  and  C_16
REMARK    6  A    between atoms: C_16  and  N_17
REMARK                            x       y       z     vdW  Elec       q    Type
REMARK                         _______ _______ _______ _____ _____    ______ ____
ROOT
ATOM      1  C   UNL     1       4.854   4.141  18.659  0.00  0.00    +0.000 C 
ATOM      2  O   UNL     1       5.991   4.387  19.046  0.00  0.00    +0.000 OA
ATOM      3  N   UNL     1       4.468   4.169  17.326  0.00  0.00    +0.000 N 
ATOM      4  H   UNL     1       3.469   4.106  17.150  0.00  0.00    +0.000 HD
ENDROOT
BRANCH   1  11
ATOM      5  C   UNL     1       2.517   5.995  19.122  0.00  0.00    +0.000 C 
ATOM      6  C   UNL     1       2.681   4.687  19.856  0.00  0.00    +0.000 A 
ATOM      7  C   UNL     1       1.676   4.349  20.783  0.00  0.00    +0.000 A 
ATOM      8  C   UNL     1       1.751   3.175  21.528  0.00  0.00    +0.000 A 
ATOM      9  C   UNL     1       2.835   2.324  21.371  0.00  0.00    +0.000 A 
ATOM     10  C   UNL     1       3.849   2.641  20.461  0.00  0.00    +0.000 A 
ATOM     11  C   UNL     1       3.794   3.816  19.683  0.00  0.00    +0.000 A 
BRANCH  10  12
ATOM     12  O   UNL     1       4.902   1.766  20.346  0.00  0.00    +0.000 OA
ATOM     13  H   UNL     1       5.666   2.245  19.976  0.00  0.00    +0.000 HD
ENDBRANCH  10  12
ENDBRANCH   1  11
BRANCH   3  14
ATOM     14  C   UNL     1       5.311   4.392  16.213  0.00  0.00    +0.000 A 
ATOM     15  C   UNL     1       5.335   3.554  15.097  0.00  0.00    +0.000 A 
ATOM     16  C   UNL     1       6.175   3.814  14.013  0.00  0.00    +0.000 A 
ATOM     17  C   UNL     1       7.013   4.931  14.013  0.00  0.00    +0.000 A 
ATOM     18  C   UNL     1       6.997   5.776  15.132  0.00  0.00    +0.000 A 
ATOM     19  C   UNL     1       6.147   5.514  16.218  0.00  0.00    +0.000 A 
BRANCH  17  20
ATOM     20  C   UNL     1       7.899   5.202  12.826  0.00  0.00    +0.000 C 
BRANCH  20  21
ATOM     21  N   UNL     1       9.034   6.045  13.187  0.00  0.00    +0.000 NA
ATOM     22  H   UNL     1       9.727   5.987  12.442  0.00  0.00    +0.000 HD
ATOM     23  H   UNL     1       9.477   5.662  14.019  0.00  0.00    +0.000 HD
ENDBRANCH  20  21
ENDBRANCH  17  20
ENDBRANCH   3  14
TORSDOF 5
ENDMDL
MODEL 5
REMARK VINA RESULT:      -6.9      1.160      1.215
REMARK  Name = 
REMARK  6 active torsions:
REMARK  status: ('A' for Active; 'I' for Inactive)
REMARK    1  A    between atoms: C_1  and  C_2
REMARK    2  A    between atoms: C_6  and  O_7
REMARK    3  A    between atoms: C_8  and  C_9
REMARK    4  A    between atoms: N_11  and  C_12
REMARK    5  A    between atoms: C_15  and  C_16
REMARK    6  A    between atoms: C_16  and  N_17
REMARK                            x       y       z     vdW  Elec       q    Type
REMARK                         _______ _______ _______ _____ _____    ______ ____
ROOT
ATOM      1  C   UNL     1       4.868   4.165  18.705  0.00  0.00    +0.000 C 
ATOM      2  O   UNL     1       5.985   4.478  19.100  0.00  0.00    +0.000 OA
ATOM      3  N   UNL     1       4.499   4.143  17.366  0.00  0.00    +0.000 N 
ATOM      4  H   UNL     1       3.508   4.025  17.179  0.00  0.00    +0.000 HD
ENDROOT
BRANCH   1  11
ATOM      5  C   UNL     1       2.520   5.992  19.214  0.00  0.00    +0.000 C 
ATOM      6  C   UNL     1       2.694   4.669  19.917  0.00  0.00    +0.000 A 
ATOM      7  C   UNL     1       1.693   4.302  20.837  0.00  0.00    +0.000 A 
ATOM      8  C   UNL     1       1.777   3.112  21.555  0.00  0.00    +0.000 A 
ATOM      9  C   UNL     1       2.867   2.272  21.376  0.00  0.00    +0.000 A 
ATOM     10  C   UNL     1       3.877   2.617  20.472  0.00  0.00    +0.000 A 
ATOM     11  C   UNL     1       3.813   3.809  19.722  0.00  0.00    +0.000 A 
BRANCH  10  12
ATOM     12  O   UNL     1       4.936   1.752  20.335  0.00  0.00    +0.000 OA
ATOM     13  H   UNL     1       4.910   1.367  19.440  0.00  0.00    +0.000 HD
ENDBRANCH  10  12
ENDBRANCH   1  11
BRANCH   3  14
ATOM     14  C   UNL     1       5.345   4.384  16.259  0.00  0.00    +0.000 A 
ATOM     15  C   UNL     1       6.585   5.015  16.371  0.00  0.00    +0.000 A 
ATOM     16  C   UNL     1       7.396   5.224  15.254  0.00  0.00    +0.000 A 
ATOM     17  C   UNL     1       6.988   4.800  13.988  0.00  0.00    +0.000 A 
ATOM     18  C   UNL     1       5.742   4.168  13.867  0.00  0.00    +0.000 A 
ATOM     19  C   UNL     1       4.932   3.954  14.993  0.00  0.00    +0.000 A 
BRANCH  17  20
ATOM     20  C   UNL     1       7.885   5.020  12.799  0.00  0.00    +0.000 C 
BRANCH  20  21
ATOM     21  N   UNL     1       8.881   6.052  13.064  0.00  0.00    +0.000 NA
ATOM     22  H   UNL     1       8.794   6.774  12.349  0.00  0.00    +0.000 HD
ATOM     23  H   UNL     1       9.809   5.650  12.950  0.00  0.00    +0.000 HD
ENDBRANCH  20  21
ENDBRANCH  17  20
ENDBRANCH   3  14
TORSDOF 5
ENDMDL
MODEL 6
REMARK VINA RESULT:      -6.7      1.685      1.798
REMARK  Name = 
REMARK  6 active torsions:
REMARK  status: ('A' for Active; 'I' for Inactive)
REMARK    1  A    between atoms: C_1  and  C_2
REMARK    2  A    between atoms: C_6  and  O_7
REMARK    3  A    between atoms: C_8  and  C_9
REMARK    4  A    between atoms: N_11  and  C_12
REMARK    5  A    between atoms: C_15  and  C_16
REMARK    6  A    between atoms: C_16  and  N_17
REMARK                            x       y       z     vdW  Elec       q    Type
REMARK                         _______ _______ _______ _____ _____    ______ ____
ROOT
ATOM      1  C   UNL     1       3.595   4.686  17.861  0.00  0.00    +0.000 C 
ATOM      2  O   UNL     1       3.326   5.813  17.459  0.00  0.00    +0.000 OA
ATOM      3  N   UNL     1       4.543   3.861  17.271  0.00  0.00    +0.000 N 
ATOM      4  H   UNL     1       4.558   2.898  17.595  0.00  0.00    +0.000 HD
ENDROOT
BRANCH   1  11
ATOM      5  C   UNL     1       2.365   1.931  17.786  0.00  0.00    +0.000 C 
ATOM      6  C   UNL     1       2.300   2.823  19.000  0.00  0.00    +0.000 A 
ATOM      7  C   UNL     1       1.635   2.308  20.131  0.00  0.00    +0.000 A 
ATOM      8  C   UNL     1       1.501   3.064  21.292  0.00  0.00    +0.000 A 
ATOM      9  C   UNL     1       2.016   4.351  21.343  0.00  0.00    +0.000 A 
ATOM     10  C   UNL     1       2.676   4.887  20.231  0.00  0.00    +0.000 A 
ATOM     11  C   UNL     1       2.838   4.140  19.046  0.00  0.00    +0.000 A 
BRANCH  10  12
ATOM     12  O   UNL     1       3.164   6.167  20.332  0.00  0.00    +0.000 OA
ATOM     13  H   UNL     1       3.829   6.191  21.044  0.00  0.00    +0.000 HD
ENDBRANCH  10  12
ENDBRANCH   1  11
BRANCH   3  14
ATOM     14  C   UNL     1       5.397   4.198  16.196  0.00  0.00    +0.000 A 
ATOM     15  C   UNL     1       6.600   4.885  16.367  0.00  0.00    +0.000 A 
ATOM     16  C   UNL     1       7.421   5.191  15.280  0.00  0.00    +0.000 A 
ATOM     17  C   UNL     1       7.062   4.808  13.986  0.00  0.00    +0.000 A 
ATOM     18  C   UNL     1       5.853   4.121  13.806  0.00  0.00    +0.000 A 
ATOM     19  C   UNL     1       5.033   3.811  14.902  0.00  0.00    +0.000 A 
BRANCH  17  20
ATOM     20  C   UNL     1       7.970   5.133  12.830  0.00  0.00    +0.000 C 
BRANCH  20  21
ATOM     21  N   UNL     1       9.030   6.054  13.223  0.00  0.00    +0.000 NA
ATOM     22  H   UNL     1       8.720   6.566  14.049  0.00  0.00    +0.000 HD
ATOM     23  H   UNL     1       9.153   6.747  12.488  0.00  0.00    +0.000 HD
ENDBRANCH  20  21
ENDBRANCH  17  20
ENDBRANCH   3  14
TORSDOF 5
ENDMDL
MODEL 7
REMARK VINA RESULT:      -6.7      1.570      2.080
REMARK  Name = 
REMARK  6 active torsions:
REMARK  status: ('A' for Active; 'I' for Inactive)
REMARK    1  A    between atoms: C_1  and  C_2
REMARK    2  A    between atoms: C_6  and  O_7
REMARK    3  A    between atoms: C_8  and  C_9
REMARK    4  A    between atoms: N_11  and  C_12
REMARK    5  A    between atoms: C_15  and  C_16
REMARK    6  A    between atoms: C_16  and  N_17
REMARK                            x       y       z     vdW  Elec       q    Type
REMARK                         _______ _______ _______ _____ _____    ______ ____
ROOT
ATOM      1  C   UNL     1       4.557   4.072  18.390  0.00  0.00    +0.000 C 
ATOM      2  O   UNL     1       5.694   4.094  18.848  0.00  0.00    +0.000 OA
ATOM      3  N   UNL     1       4.257   4.292  17.053  0.00  0.00    +0.000 N 
ATOM      4  H   UNL     1       3.273   4.408  16.830  0.00  0.00    +0.000 HD
ENDROOT
BRANCH   1  11
ATOM      5  C   UNL     1       3.282   1.344  18.595  0.00  0.00    +0.000 C 
ATOM      6  C   UNL     1       2.843   2.517  19.436  0.00  0.00    +0.000 A 
ATOM      7  C   UNL     1       1.795   2.287  20.350  0.00  0.00    +0.000 A 
ATOM      8  C   UNL     1       1.303   3.313  21.152  0.00  0.00    +0.000 A 
ATOM      9  C   UNL     1       1.838   4.589  21.050  0.00  0.00    +0.000 A 
ATOM     10  C   UNL     1       2.875   4.844  20.145  0.00  0.00    +0.000 A 
ATOM     11  C   UNL     1       3.402   3.822  19.329  0.00  0.00    +0.000 A 
BRANCH  10  12
ATOM     12  O   UNL     1       3.367   6.125  20.081  0.00  0.00    +0.000 OA
ATOM     13  H   UNL     1       4.236   6.103  19.641  0.00  0.00    +0.000 HD
ENDBRANCH  10  12
ENDBRANCH   1  11
BRANCH   3  14
ATOM     14  C   UNL     1       5.188   4.485  16.005  0.00  0.00    +0.000 A 
ATOM     15  C   UNL     1       5.232   3.677  14.868  0.00  0.00    +0.000 A 
ATOM     16  C   UNL     1       6.159   3.907  13.851  0.00  0.00    +0.000 A 
ATOM     17  C   UNL     1       7.069   4.962  13.942  0.00  0.00    +0.000 A 
ATOM     18  C   UNL     1       7.034   5.776  15.083  0.00  0.00    +0.000 A 
ATOM     19  C   UNL     1       6.096   5.546  16.101  0.00  0.00    +0.000 A 
BRANCH  17  20
ATOM     20  C   UNL     1       8.050   5.203  12.825  0.00  0.00    +0.000 C 
BRANCH  20  21
ATOM     21  N   UNL     1       9.135   6.083  13.246  0.00  0.00    +0.000 NA
ATOM     22  H   UNL     1       9.451   5.784  14.168  0.00  0.00    +0.000 HD
ATOM     23  H   UNL     1       8.767   7.025  13.362  0.00  0.00    +0.000 HD
ENDBRANCH  20  21
ENDBRANCH  17  20
ENDBRANCH   3  14
TORSDOF 5
ENDMDL
MODEL 8
REMARK VINA RESULT:      -6.5      1.283      1.805
REMARK  Name = 
REMARK  6 active torsions:
REMARK  status: ('A' for Active; 'I' for Inactive)
REMARK    1  A    between atoms: C_1  and  C_2
REMARK    2  A    between atoms: C_6  and  O_7
REMARK    3  A    between atoms: C_8  and  C_9
REMARK    4  A    between atoms: N_11  and  C_12
REMARK    5  A    between atoms: C_15  and  C_16
REMARK    6  A    between atoms: C_16  and  N_17
REMARK                            x       y       z     vdW  Elec       q    Type
REMARK                         _______ _______ _______ _____ _____    ______ ____
ROOT
ATOM      1  C   UNL     1       3.455   4.037  17.777  0.00  0.00    +0.000 C 
ATOM      2  O   UNL     1       2.720   4.572  16.954  0.00  0.00    +0.000 OA
ATOM      3  N   UNL     1       4.788   3.732  17.540  0.00  0.00    +0.000 N 
ATOM      4  H   UNL     1       5.242   3.148  18.236  0.00  0.00    +0.000 HD
ENDROOT
BRANCH   1  11
ATOM      5  C   UNL     1       2.901   6.128  19.883  0.00  0.00    +0.000 C 
ATOM      6  C   UNL     1       2.595   4.664  20.083  0.00  0.00    +0.000 A 
ATOM      7  C   UNL     1       2.018   4.299  21.315  0.00  0.00    +0.000 A 
ATOM      8  C   UNL     1       1.721   2.970  21.604  0.00  0.00    +0.000 A 
ATOM      9  C   UNL     1       2.005   1.980  20.675  0.00  0.00    +0.000 A 
ATOM     10  C   UNL     1       2.583   2.317  19.445  0.00  0.00    +0.000 A 
ATOM     11  C   UNL     1       2.882   3.655  19.120  0.00  0.00    +0.000 A 
BRANCH  10  12
ATOM     12  O   UNL     1       2.846   1.299  18.562  0.00  0.00    +0.000 OA
ATOM     13  H   UNL     1       2.374   0.499  18.858  0.00  0.00    +0.000 HD
ENDBRANCH  10  12
ENDBRANCH   1  11
BRANCH   3  14
ATOM     14  C   UNL     1       5.529   4.055  16.379  0.00  0.00    +0.000 A 
ATOM     15  C   UNL     1       5.183   3.604  15.105  0.00  0.00    +0.000 A 
ATOM     16  C   UNL     1       5.935   3.954  13.983  0.00  0.00    +0.000 A 
ATOM     17  C   UNL     1       7.057   4.775  14.105  0.00  0.00    +0.000 A 
ATOM     18  C   UNL     1       7.414   5.230  15.383  0.00  0.00    +0.000 A 
ATOM     19  C   UNL     1       6.652   4.881  16.508  0.00  0.00    +0.000 A 
BRANCH  17  20
ATOM     20  C   UNL     1       7.845   5.155  12.879  0.00  0.00    +0.000 C 
BRANCH  20  21
ATOM     21  N   UNL     1       8.960   6.034  13.210  0.00  0.00    +0.000 NA
ATOM     22  H   UNL     1       8.828   6.919  12.721  0.00  0.00    +0.000 HD
ATOM     23  H   UNL     1       9.818   5.631  12.840  0.00  0.00    +0.000 HD
ENDBRANCH  20  21
ENDBRANCH  17  20
ENDBRANCH   3  14
TORSDOF 5
ENDMDL
MODEL 9
REMARK VINA RESULT:      -6.5      1.303      1.477
REMARK  Name = 
REMARK  6 active torsions:
REMARK  status: ('A' for Active; 'I' for Inactive)
REMARK    1  A    between atoms: C_1  and  C_2
REMARK    2  A    between atoms: C_6  and  O_7
REMARK    3  A    between atoms: C_8  and  C_9
REMARK    4  A    between atoms: N_11  and  C_12
REMARK    5  A    between atoms: C_15  and  C_16
REMARK    6  A    between atoms: C_16  and  N_17
REMARK                            x       y       z     vdW  Elec       q    Type
REMARK                         _______ _______ _______ _____ _____    ______ ____
ROOT
ATOM      1  C   UNL     1       4.334   3.891  18.232  0.00  0.00    +0.000 C 
ATOM      2  O   UNL     1       5.454   3.711  18.695  0.00  0.00    +0.000 OA
ATOM      3  N   UNL     1       4.094   4.344  16.942  0.00  0.00    +0.000 N 
ATOM      4  H   UNL     1       3.135   4.606  16.733  0.00  0.00    +0.000 HD
ENDROOT
BRANCH   1  11
ATOM      5  C   UNL     1       2.981   6.154  19.702  0.00  0.00    +0.000 C 
ATOM      6  C   UNL     1       2.492   4.728  19.767  0.00  0.00    +0.000 A 
ATOM      7  C   UNL     1       1.347   4.485  20.551  0.00  0.00    +0.000 A 
ATOM      8  C   UNL     1       0.834   3.199  20.694  0.00  0.00    +0.000 A 
ATOM      9  C   UNL     1       1.459   2.131  20.067  0.00  0.00    +0.000 A 
ATOM     10  C   UNL     1       2.601   2.346  19.288  0.00  0.00    +0.000 A 
ATOM     11  C   UNL     1       3.136   3.639  19.114  0.00  0.00    +0.000 A 
BRANCH  10  12
ATOM     12  O   UNL     1       3.184   1.255  18.692  0.00  0.00    +0.000 OA
ATOM     13  H   UNL     1       3.446   0.623  19.386  0.00  0.00    +0.000 HD
ENDBRANCH  10  12
ENDBRANCH   1  11
BRANCH   3  14
ATOM     14  C   UNL     1       5.065   4.583  15.942  0.00  0.00    +0.000 A 
ATOM     15  C   UNL     1       5.870   5.723  15.919  0.00  0.00    +0.000 A 
ATOM     16  C   UNL     1       6.824   5.916  14.920  0.00  0.00    +0.000 A 
ATOM     17  C   UNL     1       7.006   4.965  13.914  0.00  0.00    +0.000 A 
ATOM     18  C   UNL     1       6.199   3.818  13.928  0.00  0.00    +0.000 A 
ATOM     19  C   UNL     1       5.244   3.624  14.938  0.00  0.00    +0.000 A 
BRANCH  17  20
ATOM     20  C   UNL     1       8.054   5.185  12.855  0.00  0.00    +0.000 C 
BRANCH  20  21
ATOM     21  N   UNL     1       9.087   6.110  13.308  0.00  0.00    +0.000 NA
ATOM     22  H   UNL     1       9.396   6.662  12.508  0.00  0.00    +0.000 HD
ATOM     23  H   UNL     1       9.896   5.574  13.614  0.00  0.00    +0.000 HD
ENDBRANCH  20  21
ENDBRANCH  17  20
ENDBRANCH   3  14
TORSDOF 5
ENDMDL
