MODEL 1
REMARK VINA RESULT:      -8.6      0.000      0.000
REMARK  Name = 
REMARK  7 active torsions:
REMARK  status: ('A' for Active; 'I' for Inactive)
REMARK    1  A    between atoms: C_1  and  C_2
REMARK    2  A    between atoms: C_2  and  O_3
REMARK    3  A    between atoms: O_3  and  C_4
REMARK    4  A    between atoms: C_4  and  C_6
REMARK    5  A    between atoms: C_19  and  N_20
REMARK    6  A    between atoms: N_20  and  C_21
REMARK    7  A    between atoms: C_25  and  C_26
REMARK                            x       y       z     vdW  Elec       q    Type
REMARK                         _______ _______ _______ _____ _____    ______ ____
ROOT
ATOM      1  C   UNL     1       2.115   4.208  18.788  0.00  0.00    +0.000 A 
ATOM      2  C   UNL     1       2.266   3.327  17.732  0.00  0.00    +0.000 A 
ATOM      3  N   UNL     1       3.226   3.427  16.787  0.00  0.00    +0.000 NA
ATOM      4  C   UNL     1       4.144   4.413  16.875  0.00  0.00    +0.000 A 
ATOM      5  C   UNL     1       4.111   5.342  17.944  0.00  0.00    +0.000 A 
ATOM      6  C   UNL     1       5.187   6.254  18.038  0.00  0.00    +0.000 A 
ATOM      7  C   UNL     1       6.123   6.417  17.026  0.00  0.00    +0.000 A 
ATOM      8  C   UNL     1       6.110   5.564  15.935  0.00  0.00    +0.000 A 
ATOM      9  C   UNL     1       7.065   5.719  14.919  0.00  0.00    +0.000 A 
ATOM     10  C   UNL     1       7.135   4.809  13.868  0.00  0.00    +0.000 A 
ATOM     11  C   UNL     1       6.249   3.740  13.826  0.00  0.00    +0.000 A 
ATOM     12  C   UNL     1       5.267   3.607  14.812  0.00  0.00    +0.000 A 
ATOM     13  C   UNL     1       5.157   4.520  15.884  0.00  0.00    +0.000 A 
ATOM     14  C   UNL     1       3.032   5.276  18.894  0.00  0.00    +0.000 A 
ENDROOT
BRANCH   1  15
ATOM     15  C   UNL     1       1.081   3.971  19.826  0.00  0.00    +0.000 C 
ATOM     16  O   UNL     1       0.426   4.869  20.341  0.00  0.00    +0.000 OA
BRANCH  15  17
ATOM     17  O   UNL     1       1.083   2.677  20.223  0.00  0.00    +0.000 OA
BRANCH  17  19
ATOM     18  C   UNL     1       3.031   2.453  21.583  0.00  0.00    +0.000 C 
ATOM     19  C   UNL     1       1.513   2.452  21.574  0.00  0.00    +0.000 C 
ENDBRANCH  17  19
ENDBRANCH  15  17
ENDBRANCH   1  15
BRANCH  14  20
ATOM     20  N   UNL     1       2.821   6.253  19.915  0.00  0.00    +0.000 N 
ATOM     21  H   UNL     1       3.035   5.914  20.861  0.00  0.00    +0.000 HD
BRANCH  20  22
ATOM     22  C   UNL     1       2.206   7.517  19.927  0.00  0.00    +0.000 A 
ATOM     23  C   UNL     1       2.090   8.212  18.719  0.00  0.00    +0.000 A 
ATOM     24  C   UNL     1       1.270   9.337  18.618  0.00  0.00    +0.000 A 
ATOM     25  C   UNL     1       0.544   9.770  19.727  0.00  0.00    +0.000 A 
ATOM     26  C   UNL     1       0.675   9.112  20.957  0.00  0.00    +0.000 A 
ATOM     27  C   UNL     1       1.555   8.024  21.057  0.00  0.00    +0.000 A 
BRANCH  26  28
ATOM     28  C   UNL     1      -0.179   9.476  22.145  0.00  0.00    +0.000 C 
ATOM     29  F   UNL     1       0.540   9.783  23.260  0.00  0.00    +0.000 F 
ATOM     30  F   UNL     1      -0.959  10.570  21.902  0.00  0.00    +0.000 F 
ATOM     31  F   UNL     1      -1.033   8.481  22.508  0.00  0.00    +0.000 F 
ENDBRANCH  26  28
ENDBRANCH  20  22
ENDBRANCH  14  20
TORSDOF 6
ENDMDL
MODEL 2
REMARK VINA RESULT:      -8.5      3.314      6.777
REMARK  Name = 
REMARK  7 active torsions:
REMARK  status: ('A' for Active; 'I' for Inactive)
REMARK    1  A    between atoms: C_1  and  C_2
REMARK    2  A    between atoms: C_2  and  O_3
REMARK    3  A    between atoms: O_3  and  C_4
REMARK    4  A    between atoms: C_4  and  C_6
REMARK    5  A    between atoms: C_19  and  N_20
REMARK    6  A    between atoms: N_20  and  C_21
REMARK    7  A    between atoms: C_25  and  C_26
REMARK                            x       y       z     vdW  Elec       q    Type
REMARK                         _______ _______ _______ _____ _____    ______ ____
ROOT
ATOM      1  C   UNL     1       3.020   4.438  20.037  0.00  0.00    +0.000 A 
ATOM      2  C   UNL     1       2.372   4.948  21.148  0.00  0.00    +0.000 A 
ATOM      3  N   UNL     1       1.847   6.191  21.220  0.00  0.00    +0.000 NA
ATOM      4  C   UNL     1       1.898   6.997  20.138  0.00  0.00    +0.000 A 
ATOM      5  C   UNL     1       2.495   6.555  18.932  0.00  0.00    +0.000 A 
ATOM      6  C   UNL     1       2.383   7.406  17.809  0.00  0.00    +0.000 A 
ATOM      7  C   UNL     1       1.925   8.714  17.900  0.00  0.00    +0.000 A 
ATOM      8  C   UNL     1       1.414   9.179  19.100  0.00  0.00    +0.000 A 
ATOM      9  C   UNL     1       0.937  10.496  19.189  0.00  0.00    +0.000 A 
ATOM     10  C   UNL     1       0.325  10.949  20.355  0.00  0.00    +0.000 A 
ATOM     11  C   UNL     1       0.189  10.091  21.437  0.00  0.00    +0.000 A 
ATOM     12  C   UNL     1       0.704   8.793  21.369  0.00  0.00    +0.000 A 
ATOM     13  C   UNL     1       1.344   8.303  20.209  0.00  0.00    +0.000 A 
ATOM     14  C   UNL     1       3.128   5.263  18.898  0.00  0.00    +0.000 A 
ENDROOT
BRANCH   1  15
ATOM     15  C   UNL     1       3.492   3.030  20.020  0.00  0.00    +0.000 C 
ATOM     16  O   UNL     1       4.667   2.716  19.874  0.00  0.00    +0.000 OA
BRANCH  15  17
ATOM     17  O   UNL     1       2.447   2.170  20.027  0.00  0.00    +0.000 OA
BRANCH  17  19
ATOM     18  C   UNL     1       0.476   2.499  18.722  0.00  0.00    +0.000 C 
ATOM     19  C   UNL     1       1.870   1.898  18.741  0.00  0.00    +0.000 C 
ENDBRANCH  17  19
ENDBRANCH  15  17
ENDBRANCH   1  15
BRANCH  14  20
ATOM     20  N   UNL     1       3.888   4.788  17.785  0.00  0.00    +0.000 N 
ATOM     21  H   UNL     1       3.450   4.001  17.292  0.00  0.00    +0.000 HD
BRANCH  20  22
ATOM     22  C   UNL     1       5.194   5.042  17.332  0.00  0.00    +0.000 A 
ATOM     23  C   UNL     1       5.646   4.365  16.193  0.00  0.00    +0.000 A 
ATOM     24  C   UNL     1       6.820   4.758  15.548  0.00  0.00    +0.000 A 
ATOM     25  C   UNL     1       7.547   5.847  16.029  0.00  0.00    +0.000 A 
ATOM     26  C   UNL     1       7.134   6.514  17.189  0.00  0.00    +0.000 A 
ATOM     27  C   UNL     1       5.989   6.062  17.863  0.00  0.00    +0.000 A 
BRANCH  26  28
ATOM     28  C   UNL     1       7.825   7.764  17.672  0.00  0.00    +0.000 C 
ATOM     29  F   UNL     1       6.967   8.770  17.997  0.00  0.00    +0.000 F 
ATOM     30  F   UNL     1       8.568   7.540  18.796  0.00  0.00    +0.000 F 
ATOM     31  F   UNL     1       8.685   8.282  16.753  0.00  0.00    +0.000 F 
ENDBRANCH  26  28
ENDBRANCH  20  22
ENDBRANCH  14  20
TORSDOF 6
ENDMDL
MODEL 3
REMARK VINA RESULT:      -8.5      4.120      7.742
REMARK  Name = 
REMARK  7 active torsions:
REMARK  status: ('A' for Active; 'I' for Inactive)
REMARK    1  A    between atoms: C_1  and  C_2
REMARK    2  A    between atoms: C_2  and  O_3
REMARK    3  A    between atoms: O_3  and  C_4
REMARK    4  A    between atoms: C_4  and  C_6
REMARK    5  A    between atoms: C_19  and  N_20
REMARK    6  A    between atoms: N_20  and  C_21
REMARK    7  A    between atoms: C_25  and  C_26
REMARK                            x       y       z     vdW  Elec       q    Type
REMARK                         _______ _______ _______ _____ _____    ______ ____
ROOT
ATOM      1  C   UNL     1       2.640   5.885  19.280  0.00  0.00    +0.000 A 
ATOM      2  C   UNL     1       2.039   5.865  20.526  0.00  0.00    +0.000 A 
ATOM      3  N   UNL     1       1.430   6.928  21.096  0.00  0.00    +0.000 NA
ATOM      4  C   UNL     1       1.342   8.088  20.411  0.00  0.00    +0.000 A 
ATOM      5  C   UNL     1       1.881   8.203  19.106  0.00  0.00    +0.000 A 
ATOM      6  C   UNL     1       1.625   9.405  18.407  0.00  0.00    +0.000 A 
ATOM      7  C   UNL     1       1.079  10.526  19.018  0.00  0.00    +0.000 A 
ATOM      8  C   UNL     1       0.624  10.444  20.323  0.00  0.00    +0.000 A 
ATOM      9  C   UNL     1       0.059  11.572  20.935  0.00  0.00    +0.000 A 
ATOM     10  C   UNL     1      -0.499  11.483  22.208  0.00  0.00    +0.000 A 
ATOM     11  C   UNL     1      -0.491  10.265  22.876  0.00  0.00    +0.000 A 
ATOM     12  C   UNL     1       0.111   9.149  22.289  0.00  0.00    +0.000 A 
ATOM     13  C   UNL     1       0.700   9.207  21.006  0.00  0.00    +0.000 A 
ATOM     14  C   UNL     1       2.604   7.090  18.548  0.00  0.00    +0.000 A 
ENDROOT
BRANCH   1  15
ATOM     15  C   UNL     1       3.213   4.644  18.699  0.00  0.00    +0.000 C 
ATOM     16  O   UNL     1       4.307   4.196  19.016  0.00  0.00    +0.000 OA
BRANCH  15  17
ATOM     17  O   UNL     1       2.443   4.187  17.683  0.00  0.00    +0.000 OA
BRANCH  17  19
ATOM     18  C   UNL     1       1.030   2.554  18.699  0.00  0.00    +0.000 C 
ATOM     19  C   UNL     1       2.164   2.779  17.714  0.00  0.00    +0.000 C 
ENDBRANCH  17  19
ENDBRANCH  15  17
ENDBRANCH   1  15
BRANCH  14  20
ATOM     20  N   UNL     1       3.313   7.155  17.310  0.00  0.00    +0.000 N 
ATOM     21  H   UNL     1       2.710   7.326  16.497  0.00  0.00    +0.000 HD
BRANCH  20  22
ATOM     22  C   UNL     1       4.634   6.848  16.939  0.00  0.00    +0.000 A 
ATOM     23  C   UNL     1       5.666   7.159  17.833  0.00  0.00    +0.000 A 
ATOM     24  C   UNL     1       6.952   6.652  17.642  0.00  0.00    +0.000 A 
ATOM     25  C   UNL     1       7.216   5.813  16.560  0.00  0.00    +0.000 A 
ATOM     26  C   UNL     1       6.209   5.520  15.631  0.00  0.00    +0.000 A 
ATOM     27  C   UNL     1       4.939   6.093  15.802  0.00  0.00    +0.000 A 
BRANCH  26  28
ATOM     28  C   UNL     1       6.423   4.527  14.518  0.00  0.00    +0.000 C 
ATOM     29  F   UNL     1       5.333   4.362  13.718  0.00  0.00    +0.000 F 
ATOM     30  F   UNL     1       7.435   4.901  13.682  0.00  0.00    +0.000 F 
ATOM     31  F   UNL     1       6.750   3.286  14.970  0.00  0.00    +0.000 F 
ENDBRANCH  26  28
ENDBRANCH  20  22
ENDBRANCH  14  20
TORSDOF 6
ENDMDL
MODEL 4
REMARK VINA RESULT:      -8.5      3.406      6.980
REMARK  Name = 
REMARK  7 active torsions:
REMARK  status: ('A' for Active; 'I' for Inactive)
REMARK    1  A    between atoms: C_1  and  C_2
REMARK    2  A    between atoms: C_2  and  O_3
REMARK    3  A    between atoms: O_3  and  C_4
REMARK    4  A    between atoms: C_4  and  C_6
REMARK    5  A    between atoms: C_19  and  N_20
REMARK    6  A    between atoms: N_20  and  C_21
REMARK    7  A    between atoms: C_25  and  C_26
REMARK                            x       y       z     vdW  Elec       q    Type
REMARK                         _______ _______ _______ _____ _____    ______ ____
ROOT
ATOM      1  C   UNL     1       2.195   5.497  19.861  0.00  0.00    +0.000 A 
ATOM      2  C   UNL     1       1.594   6.094  20.956  0.00  0.00    +0.000 A 
ATOM      3  N   UNL     1       1.281   7.405  21.032  0.00  0.00    +0.000 NA
ATOM      4  C   UNL     1       1.513   8.206  19.971  0.00  0.00    +0.000 A 
ATOM      5  C   UNL     1       2.080   7.688  18.781  0.00  0.00    +0.000 A 
ATOM      6  C   UNL     1       2.161   8.562  17.672  0.00  0.00    +0.000 A 
ATOM      7  C   UNL     1       1.923   9.926  17.773  0.00  0.00    +0.000 A 
ATOM      8  C   UNL     1       1.446  10.453  18.961  0.00  0.00    +0.000 A 
ATOM      9  C   UNL     1       1.192  11.830  19.059  0.00  0.00    +0.000 A 
ATOM     10  C   UNL     1       0.614  12.364  20.207  0.00  0.00    +0.000 A 
ATOM     11  C   UNL     1       0.290  11.524  21.265  0.00  0.00    +0.000 A 
ATOM     12  C   UNL     1       0.583  10.160  21.190  0.00  0.00    +0.000 A 
ATOM     13  C   UNL     1       1.182   9.586  20.047  0.00  0.00    +0.000 A 
ATOM     14  C   UNL     1       2.489   6.309  18.745  0.00  0.00    +0.000 A 
ENDROOT
BRANCH   1  15
ATOM     15  C   UNL     1       2.426   4.031  19.834  0.00  0.00    +0.000 C 
ATOM     16  O   UNL     1       3.220   3.460  20.572  0.00  0.00    +0.000 OA
BRANCH  15  17
ATOM     17  O   UNL     1       1.770   3.458  18.796  0.00  0.00    +0.000 OA
BRANCH  17  19
ATOM     18  C   UNL     1       3.210   1.804  17.856  0.00  0.00    +0.000 C 
ATOM     19  C   UNL     1       1.949   2.040  18.669  0.00  0.00    +0.000 C 
ENDBRANCH  17  19
ENDBRANCH  15  17
ENDBRANCH   1  15
BRANCH  14  20
ATOM     20  N   UNL     1       3.207   5.729  17.655  0.00  0.00    +0.000 N 
ATOM     21  H   UNL     1       2.618   5.512  16.842  0.00  0.00    +0.000 HD
BRANCH  20  22
ATOM     22  C   UNL     1       4.510   5.217  17.521  0.00  0.00    +0.000 A 
ATOM     23  C   UNL     1       4.866   4.613  16.311  0.00  0.00    +0.000 A 
ATOM     24  C   UNL     1       6.201   4.323  16.024  0.00  0.00    +0.000 A 
ATOM     25  C   UNL     1       7.197   4.651  16.942  0.00  0.00    +0.000 A 
ATOM     26  C   UNL     1       6.859   5.222  18.176  0.00  0.00    +0.000 A 
ATOM     27  C   UNL     1       5.507   5.444  18.476  0.00  0.00    +0.000 A 
BRANCH  26  28
ATOM     28  C   UNL     1       7.913   5.697  19.144  0.00  0.00    +0.000 C 
ATOM     29  F   UNL     1       7.469   5.796  20.428  0.00  0.00    +0.000 F 
ATOM     30  F   UNL     1       8.985   4.854  19.192  0.00  0.00    +0.000 F 
ATOM     31  F   UNL     1       8.414   6.921  18.822  0.00  0.00    +0.000 F 
ENDBRANCH  26  28
ENDBRANCH  20  22
ENDBRANCH  14  20
TORSDOF 6
ENDMDL
MODEL 5
REMARK VINA RESULT:      -8.5      3.330      6.833
REMARK  Name = 
REMARK  7 active torsions:
REMARK  status: ('A' for Active; 'I' for Inactive)
REMARK    1  A    between atoms: C_1  and  C_2
REMARK    2  A    between atoms: C_2  and  O_3
REMARK    3  A    between atoms: O_3  and  C_4
REMARK    4  A    between atoms: C_4  and  C_6
REMARK    5  A    between atoms: C_19  and  N_20
REMARK    6  A    between atoms: N_20  and  C_21
REMARK    7  A    between atoms: C_25  and  C_26
REMARK                            x       y       z     vdW  Elec       q    Type
REMARK                         _______ _______ _______ _____ _____    ______ ____
ROOT
ATOM      1  C   UNL     1       2.144   5.287  19.925  0.00  0.00    +0.000 A 
ATOM      2  C   UNL     1       1.566   5.930  21.006  0.00  0.00    +0.000 A 
ATOM      3  N   UNL     1       1.289   7.251  21.048  0.00  0.00    +0.000 NA
ATOM      4  C   UNL     1       1.536   8.016  19.964  0.00  0.00    +0.000 A 
ATOM      5  C   UNL     1       2.082   7.450  18.785  0.00  0.00    +0.000 A 
ATOM      6  C   UNL     1       2.179   8.290  17.653  0.00  0.00    +0.000 A 
ATOM      7  C   UNL     1       1.980   9.663  17.717  0.00  0.00    +0.000 A 
ATOM      8  C   UNL     1       1.524  10.236  18.892  0.00  0.00    +0.000 A 
ATOM      9  C   UNL     1       1.308  11.621  18.953  0.00  0.00    +0.000 A 
ATOM     10  C   UNL     1       0.752  12.201  20.089  0.00  0.00    +0.000 A 
ATOM     11  C   UNL     1       0.411  11.401  21.172  0.00  0.00    +0.000 A 
ATOM     12  C   UNL     1       0.667  10.027  21.133  0.00  0.00    +0.000 A 
ATOM     13  C   UNL     1       1.243   9.406  20.004  0.00  0.00    +0.000 A 
ATOM     14  C   UNL     1       2.453   6.059  18.786  0.00  0.00    +0.000 A 
ENDROOT
BRANCH   1  15
ATOM     15  C   UNL     1       2.335   3.815  19.937  0.00  0.00    +0.000 C 
ATOM     16  O   UNL     1       1.453   3.024  20.250  0.00  0.00    +0.000 OA
BRANCH  15  17
ATOM     17  O   UNL     1       3.631   3.495  19.715  0.00  0.00    +0.000 OA
BRANCH  17  19
ATOM     18  C   UNL     1       3.601   1.698  18.145  0.00  0.00    +0.000 C 
ATOM     19  C   UNL     1       3.899   2.091  19.581  0.00  0.00    +0.000 C 
ENDBRANCH  17  19
ENDBRANCH  15  17
ENDBRANCH   1  15
BRANCH  14  20
ATOM     20  N   UNL     1       3.148   5.430  17.708  0.00  0.00    +0.000 N 
ATOM     21  H   UNL     1       2.569   4.775  17.170  0.00  0.00    +0.000 HD
BRANCH  20  22
ATOM     22  C   UNL     1       4.503   5.372  17.338  0.00  0.00    +0.000 A 
ATOM     23  C   UNL     1       4.875   4.500  16.309  0.00  0.00    +0.000 A 
ATOM     24  C   UNL     1       6.140   4.583  15.725  0.00  0.00    +0.000 A 
ATOM     25  C   UNL     1       7.043   5.554  16.157  0.00  0.00    +0.000 A 
ATOM     26  C   UNL     1       6.707   6.411  17.212  0.00  0.00    +0.000 A 
ATOM     27  C   UNL     1       5.456   6.269  17.832  0.00  0.00    +0.000 A 
BRANCH  26  28
ATOM     28  C   UNL     1       7.607   7.546  17.628  0.00  0.00    +0.000 C 
ATOM     29  F   UNL     1       6.935   8.692  17.931  0.00  0.00    +0.000 F 
ATOM     30  F   UNL     1       8.335   7.244  18.743  0.00  0.00    +0.000 F 
ATOM     31  F   UNL     1       8.513   7.882  16.670  0.00  0.00    +0.000 F 
ENDBRANCH  26  28
ENDBRANCH  20  22
ENDBRANCH  14  20
TORSDOF 6
ENDMDL
MODEL 6
REMARK VINA RESULT:      -8.4      4.157      7.403
REMARK  Name = 
REMARK  7 active torsions:
REMARK  status: ('A' for Active; 'I' for Inactive)
REMARK    1  A    between atoms: C_1  and  C_2
REMARK    2  A    between atoms: C_2  and  O_3
REMARK    3  A    between atoms: O_3  and  C_4
REMARK    4  A    between atoms: C_4  and  C_6
REMARK    5  A    between atoms: C_19  and  N_20
REMARK    6  A    between atoms: N_20  and  C_21
REMARK    7  A    between atoms: C_25  and  C_26
REMARK                            x       y       z     vdW  Elec       q    Type
REMARK                         _______ _______ _______ _____ _____    ______ ____
ROOT
ATOM      1  C   UNL     1       2.102   5.468  20.030  0.00  0.00    +0.000 A 
ATOM      2  C   UNL     1       1.511   6.150  21.079  0.00  0.00    +0.000 A 
ATOM      3  N   UNL     1       1.247   7.474  21.075  0.00  0.00    +0.000 NA
ATOM      4  C   UNL     1       1.522   8.202  19.972  0.00  0.00    +0.000 A 
ATOM      5  C   UNL     1       2.083   7.594  18.822  0.00  0.00    +0.000 A 
ATOM      6  C   UNL     1       2.209   8.397  17.666  0.00  0.00    +0.000 A 
ATOM      7  C   UNL     1       2.022   9.773  17.683  0.00  0.00    +0.000 A 
ATOM      8  C   UNL     1       1.551  10.387  18.832  0.00  0.00    +0.000 A 
ATOM      9  C   UNL     1       1.349  11.775  18.845  0.00  0.00    +0.000 A 
ATOM     10  C   UNL     1       0.778  12.397  19.953  0.00  0.00    +0.000 A 
ATOM     11  C   UNL     1       0.410  11.634  21.053  0.00  0.00    +0.000 A 
ATOM     12  C   UNL     1       0.652  10.257  21.062  0.00  0.00    +0.000 A 
ATOM     13  C   UNL     1       1.242   9.595  19.963  0.00  0.00    +0.000 A 
ATOM     14  C   UNL     1       2.440   6.201  18.873  0.00  0.00    +0.000 A 
ENDROOT
BRANCH   1  15
ATOM     15  C   UNL     1       2.277   3.995  20.091  0.00  0.00    +0.000 C 
ATOM     16  O   UNL     1       3.015   3.438  20.895  0.00  0.00    +0.000 OA
BRANCH  15  17
ATOM     17  O   UNL     1       1.648   3.390  19.056  0.00  0.00    +0.000 OA
BRANCH  17  19
ATOM     18  C   UNL     1       3.174   2.000  17.859  0.00  0.00    +0.000 C 
ATOM     19  C   UNL     1       2.012   2.019  18.836  0.00  0.00    +0.000 C 
ENDBRANCH  17  19
ENDBRANCH  15  17
ENDBRANCH   1  15
BRANCH  14  20
ATOM     20  N   UNL     1       3.147   5.532  17.828  0.00  0.00    +0.000 N 
ATOM     21  H   UNL     1       2.571   4.865  17.300  0.00  0.00    +0.000 HD
BRANCH  20  22
ATOM     22  C   UNL     1       4.508   5.448  17.485  0.00  0.00    +0.000 A 
ATOM     23  C   UNL     1       5.443   5.262  18.510  0.00  0.00    +0.000 A 
ATOM     24  C   UNL     1       6.762   4.915  18.219  0.00  0.00    +0.000 A 
ATOM     25  C   UNL     1       7.158   4.735  16.894  0.00  0.00    +0.000 A 
ATOM     26  C   UNL     1       6.250   4.954  15.850  0.00  0.00    +0.000 A 
ATOM     27  C   UNL     1       4.945   5.368  16.159  0.00  0.00    +0.000 A 
BRANCH  26  28
ATOM     28  C   UNL     1       6.606   4.657  14.415  0.00  0.00    +0.000 C 
ATOM     29  F   UNL     1       7.802   5.184  14.031  0.00  0.00    +0.000 F 
ATOM     30  F   UNL     1       6.703   3.317  14.176  0.00  0.00    +0.000 F 
ATOM     31  F   UNL     1       5.684   5.129  13.533  0.00  0.00    +0.000 F 
ENDBRANCH  26  28
ENDBRANCH  20  22
ENDBRANCH  14  20
TORSDOF 6
ENDMDL
MODEL 7
REMARK VINA RESULT:      -8.4      3.929      7.818
REMARK  Name = 
REMARK  7 active torsions:
REMARK  status: ('A' for Active; 'I' for Inactive)
REMARK    1  A    between atoms: C_1  and  C_2
REMARK    2  A    between atoms: C_2  and  O_3
REMARK    3  A    between atoms: O_3  and  C_4
REMARK    4  A    between atoms: C_4  and  C_6
REMARK    5  A    between atoms: C_19  and  N_20
REMARK    6  A    between atoms: N_20  and  C_21
REMARK    7  A    between atoms: C_25  and  C_26
REMARK                            x       y       z     vdW  Elec       q    Type
REMARK                         _______ _______ _______ _____ _____    ______ ____
ROOT
ATOM      1  C   UNL     1       2.427   7.593  18.520  0.00  0.00    +0.000 A 
ATOM      2  C   UNL     1       1.898   8.669  17.829  0.00  0.00    +0.000 A 
ATOM      3  N   UNL     1       1.104   9.612  18.380  0.00  0.00    +0.000 NA
ATOM      4  C   UNL     1       0.825   9.557  19.699  0.00  0.00    +0.000 A 
ATOM      5  C   UNL     1       1.355   8.524  20.511  0.00  0.00    +0.000 A 
ATOM      6  C   UNL     1       1.130   8.618  21.903  0.00  0.00    +0.000 A 
ATOM      7  C   UNL     1       0.244   9.532  22.460  0.00  0.00    +0.000 A 
ATOM      8  C   UNL     1      -0.342  10.496  21.657  0.00  0.00    +0.000 A 
ATOM      9  C   UNL     1      -1.225  11.428  22.222  0.00  0.00    +0.000 A 
ATOM     10  C   UNL     1      -1.744  12.467  21.454  0.00  0.00    +0.000 A 
ATOM     11  C   UNL     1      -1.384  12.578  20.117  0.00  0.00    +0.000 A 
ATOM     12  C   UNL     1      -0.541  11.625  19.539  0.00  0.00    +0.000 A 
ATOM     13  C   UNL     1      -0.008  10.549  20.283  0.00  0.00    +0.000 A 
ATOM     14  C   UNL     1       2.128   7.478  19.894  0.00  0.00    +0.000 A 
ENDROOT
BRANCH   1  15
ATOM     15  C   UNL     1       3.359   6.651  17.850  0.00  0.00    +0.000 C 
ATOM     16  O   UNL     1       2.995   5.617  17.304  0.00  0.00    +0.000 OA
BRANCH  15  17
ATOM     17  O   UNL     1       4.647   7.011  18.066  0.00  0.00    +0.000 OA
BRANCH  17  19
ATOM     18  C   UNL     1       6.300   5.514  18.912  0.00  0.00    +0.000 C 
ATOM     19  C   UNL     1       5.627   6.045  17.659  0.00  0.00    +0.000 C 
ENDBRANCH  17  19
ENDBRANCH  15  17
ENDBRANCH   1  15
BRANCH  14  20
ATOM     20  N   UNL     1       2.576   6.315  20.591  0.00  0.00    +0.000 N 
ATOM     21  H   UNL     1       3.357   6.495  21.234  0.00  0.00    +0.000 HD
BRANCH  20  22
ATOM     22  C   UNL     1       2.305   4.943  20.452  0.00  0.00    +0.000 A 
ATOM     23  C   UNL     1       0.972   4.520  20.496  0.00  0.00    +0.000 A 
ATOM     24  C   UNL     1       0.620   3.226  20.109  0.00  0.00    +0.000 A 
ATOM     25  C   UNL     1       1.602   2.344  19.657  0.00  0.00    +0.000 A 
ATOM     26  C   UNL     1       2.947   2.733  19.642  0.00  0.00    +0.000 A 
ATOM     27  C   UNL     1       3.290   4.015  20.098  0.00  0.00    +0.000 A 
BRANCH  26  28
ATOM     28  C   UNL     1       4.019   1.852  19.052  0.00  0.00    +0.000 C 
ATOM     29  F   UNL     1       3.537   0.710  18.488  0.00  0.00    +0.000 F 
ATOM     30  F   UNL     1       4.716   2.482  18.062  0.00  0.00    +0.000 F 
ATOM     31  F   UNL     1       4.945   1.459  19.969  0.00  0.00    +0.000 F 
ENDBRANCH  26  28
ENDBRANCH  20  22
ENDBRANCH  14  20
TORSDOF 6
ENDMDL
MODEL 8
REMARK VINA RESULT:      -8.4      4.282      7.263
REMARK  Name = 
REMARK  7 active torsions:
REMARK  status: ('A' for Active; 'I' for Inactive)
REMARK    1  A    between atoms: C_1  and  C_2
REMARK    2  A    between atoms: C_2  and  O_3
REMARK    3  A    between atoms: O_3  and  C_4
REMARK    4  A    between atoms: C_4  and  C_6
REMARK    5  A    between atoms: C_19  and  N_20
REMARK    6  A    between atoms: N_20  and  C_21
REMARK    7  A    between atoms: C_25  and  C_26
REMARK                            x       y       z     vdW  Elec       q    Type
REMARK                         _______ _______ _______ _____ _____    ______ ____
ROOT
ATOM      1  C   UNL     1       3.098   4.138  20.150  0.00  0.00    +0.000 A 
ATOM      2  C   UNL     1       2.309   4.796  21.077  0.00  0.00    +0.000 A 
ATOM      3  N   UNL     1       1.880   6.070  20.945  0.00  0.00    +0.000 NA
ATOM      4  C   UNL     1       2.182   6.759  19.825  0.00  0.00    +0.000 A 
ATOM      5  C   UNL     1       2.943   6.164  18.789  0.00  0.00    +0.000 A 
ATOM      6  C   UNL     1       3.096   6.905  17.595  0.00  0.00    +0.000 A 
ATOM      7  C   UNL     1       2.734   8.241  17.489  0.00  0.00    +0.000 A 
ATOM      8  C   UNL     1       2.061   8.854  18.532  0.00  0.00    +0.000 A 
ATOM      9  C   UNL     1       1.682  10.200  18.420  0.00  0.00    +0.000 A 
ATOM     10  C   UNL     1       0.914  10.805  19.411  0.00  0.00    +0.000 A 
ATOM     11  C   UNL     1       0.524  10.068  20.522  0.00  0.00    +0.000 A 
ATOM     12  C   UNL     1       0.938   8.740  20.660  0.00  0.00    +0.000 A 
ATOM     13  C   UNL     1       1.729   8.098  19.682  0.00  0.00    +0.000 A 
ATOM     14  C   UNL     1       3.468   4.838  18.982  0.00  0.00    +0.000 A 
ENDROOT
BRANCH   1  15
ATOM     15  C   UNL     1       3.453   2.708  20.340  0.00  0.00    +0.000 C 
ATOM     16  O   UNL     1       4.606   2.308  20.432  0.00  0.00    +0.000 OA
BRANCH  15  17
ATOM     17  O   UNL     1       2.356   1.921  20.238  0.00  0.00    +0.000 OA
BRANCH  17  19
ATOM     18  C   UNL     1       0.514   2.394  18.797  0.00  0.00    +0.000 C 
ATOM     19  C   UNL     1       1.870   1.721  18.902  0.00  0.00    +0.000 C 
ENDBRANCH  17  19
ENDBRANCH  15  17
ENDBRANCH   1  15
BRANCH  14  20
ATOM     20  N   UNL     1       4.370   4.208  18.070  0.00  0.00    +0.000 N 
ATOM     21  H   UNL     1       4.548   3.219  18.283  0.00  0.00    +0.000 HD
BRANCH  20  22
ATOM     22  C   UNL     1       5.212   4.696  17.056  0.00  0.00    +0.000 A 
ATOM     23  C   UNL     1       6.338   5.440  17.427  0.00  0.00    +0.000 A 
ATOM     24  C   UNL     1       7.340   5.727  16.500  0.00  0.00    +0.000 A 
ATOM     25  C   UNL     1       7.234   5.256  15.191  0.00  0.00    +0.000 A 
ATOM     26  C   UNL     1       6.098   4.543  14.788  0.00  0.00    +0.000 A 
ATOM     27  C   UNL     1       5.068   4.322  15.716  0.00  0.00    +0.000 A 
BRANCH  26  28
ATOM     28  C   UNL     1       5.999   3.918  13.420  0.00  0.00    +0.000 C 
ATOM     29  F   UNL     1       4.753   3.997  12.874  0.00  0.00    +0.000 F 
ATOM     30  F   UNL     1       6.831   4.519  12.519  0.00  0.00    +0.000 F 
ATOM     31  F   UNL     1       6.331   2.599  13.414  0.00  0.00    +0.000 F 
ENDBRANCH  26  28
ENDBRANCH  20  22
ENDBRANCH  14  20
TORSDOF 6
ENDMDL
MODEL 9
REMARK VINA RESULT:      -8.2      3.387      6.870
REMARK  Name = 
REMARK  7 active torsions:
REMARK  status: ('A' for Active; 'I' for Inactive)
REMARK    1  A    between atoms: C_1  and  C_2
REMARK    2  A    between atoms: C_2  and  O_3
REMARK    3  A    between atoms: O_3  and  C_4
REMARK    4  A    between atoms: C_4  and  C_6
REMARK    5  A    between atoms: C_19  and  N_20
REMARK    6  A    between atoms: N_20  and  C_21
REMARK    7  A    between atoms: C_25  and  C_26
REMARK                            x       y       z     vdW  Elec       q    Type
REMARK                         _______ _______ _______ _____ _____    ______ ____
ROOT
ATOM      1  C   UNL     1       2.156   4.990  19.623  0.00  0.00    +0.000 A 
ATOM      2  C   UNL     1       1.517   5.501  20.739  0.00  0.00    +0.000 A 
ATOM      3  N   UNL     1       1.216   6.806  20.914  0.00  0.00    +0.000 NA
ATOM      4  C   UNL     1       1.500   7.690  19.934  0.00  0.00    +0.000 A 
ATOM      5  C   UNL     1       2.110   7.265  18.728  0.00  0.00    +0.000 A 
ATOM      6  C   UNL     1       2.246   8.228  17.701  0.00  0.00    +0.000 A 
ATOM      7  C   UNL     1       2.019   9.582  17.908  0.00  0.00    +0.000 A 
ATOM      8  C   UNL     1       1.499  10.015  19.116  0.00  0.00    +0.000 A 
ATOM      9  C   UNL     1       1.257  11.381  19.319  0.00  0.00    +0.000 A 
ATOM     10  C   UNL     1       0.638  11.825  20.484  0.00  0.00    +0.000 A 
ATOM     11  C   UNL     1       0.261  10.905  21.454  0.00  0.00    +0.000 A 
ATOM     12  C   UNL     1       0.542   9.547  21.276  0.00  0.00    +0.000 A 
ATOM     13  C   UNL     1       1.181   9.063  20.113  0.00  0.00    +0.000 A 
ATOM     14  C   UNL     1       2.505   5.888  18.592  0.00  0.00    +0.000 A 
ENDROOT
BRANCH   1  15
ATOM     15  C   UNL     1       2.372   3.528  19.481  0.00  0.00    +0.000 C 
ATOM     16  O   UNL     1       1.654   2.805  18.801  0.00  0.00    +0.000 OA
BRANCH  15  17
ATOM     17  O   UNL     1       3.349   3.101  20.315  0.00  0.00    +0.000 OA
BRANCH  17  19
ATOM     18  C   UNL     1       5.071   1.553  20.892  0.00  0.00    +0.000 C 
ATOM     19  C   UNL     1       4.253   2.138  19.754  0.00  0.00    +0.000 C 
ENDBRANCH  17  19
ENDBRANCH  15  17
ENDBRANCH   1  15
BRANCH  14  20
ATOM     20  N   UNL     1       3.260   5.391  17.487  0.00  0.00    +0.000 N 
ATOM     21  H   UNL     1       2.685   5.135  16.675  0.00  0.00    +0.000 HD
BRANCH  20  22
ATOM     22  C   UNL     1       4.602   5.001  17.333  0.00  0.00    +0.000 A 
ATOM     23  C   UNL     1       5.018   4.525  16.085  0.00  0.00    +0.000 A 
ATOM     24  C   UNL     1       6.375   4.370  15.796  0.00  0.00    +0.000 A 
ATOM     25  C   UNL     1       7.332   4.705  16.752  0.00  0.00    +0.000 A 
ATOM     26  C   UNL     1       6.938   5.147  18.022  0.00  0.00    +0.000 A 
ATOM     27  C   UNL     1       5.569   5.233  18.317  0.00  0.00    +0.000 A 
BRANCH  26  28
ATOM     28  C   UNL     1       7.940   5.629  19.039  0.00  0.00    +0.000 C 
ATOM     29  F   UNL     1       9.014   4.803  19.180  0.00  0.00    +0.000 F 
ATOM     30  F   UNL     1       8.458   6.849  18.713  0.00  0.00    +0.000 F 
ATOM     31  F   UNL     1       7.406   5.771  20.283  0.00  0.00    +0.000 F 
ENDBRANCH  26  28
ENDBRANCH  20  22
ENDBRANCH  14  20
TORSDOF 6
ENDMDL
