MODEL 1
REMARK VINA RESULT:      -7.2      0.000      0.000
REMARK  Name = 
REMARK  7 active torsions:
REMARK  status: ('A' for Active; 'I' for Inactive)
REMARK    1  A    between atoms: C_1  and  N_2
REMARK    2  A    between atoms: N_2  and  C_3
REMARK    3  A    between atoms: N_2  and  C_10
REMARK    4  A    between atoms: C_3  and  C_4
REMARK    5  A    between atoms: C_10  and  C_11
REMARK    6  A    between atoms: C_13  and  O_14
REMARK    7  A    between atoms: C_16  and  C_17
REMARK                            x       y       z     vdW  Elec       q    Type
REMARK                         _______ _______ _______ _____ _____    ______ ____
ROOT
ATOM      1  C   UNL     1       3.513   6.601  18.491  0.00  0.00    +0.000 A 
ATOM      2  N   UNL     1       3.349   7.647  17.654  0.00  0.00    +0.000 NA
ATOM      3  C   UNL     1       2.489   8.604  18.015  0.00  0.00    +0.000 A 
ATOM      4  C   UNL     1       1.736   8.538  19.185  0.00  0.00    +0.000 A 
ATOM      5  C   UNL     1       0.715   9.360  19.815  0.00  0.00    +0.000 A 
ATOM      6  C   UNL     1       0.309   8.803  21.018  0.00  0.00    +0.000 A 
ATOM      7  S   UNL     1       1.123   7.352  21.396  0.00  0.00    +0.000 S 
ATOM      8  C   UNL     1       2.017   7.413  19.951  0.00  0.00    +0.000 A 
ATOM      9  N   UNL     1       2.884   6.431  19.660  0.00  0.00    +0.000 NA
ENDROOT
BRANCH   5  10
ATOM     10  C   UNL     1       0.103  10.608  19.335  0.00  0.00    +0.000 A 
ATOM     11  C   UNL     1       0.627  11.855  19.701  0.00  0.00    +0.000 A 
ATOM     12  C   UNL     1       0.019  13.043  19.286  0.00  0.00    +0.000 A 
ATOM     13  C   UNL     1      -1.096  13.004  18.456  0.00  0.00    +0.000 A 
ATOM     14  C   UNL     1      -1.604  11.776  18.042  0.00  0.00    +0.000 A 
ATOM     15  C   UNL     1      -1.017  10.586  18.488  0.00  0.00    +0.000 A 
ENDBRANCH   5  10
BRANCH   3  16
ATOM     16  O   UNL     1       2.428   9.627  17.117  0.00  0.00    +0.000 OA
ATOM     17  H   UNL     1       1.535   9.970  17.297  0.00  0.00    +0.000 HD
ENDBRANCH   3  16
BRANCH   1  18
ATOM     18  C   UNL     1       4.483   5.515  18.038  0.00  0.00    +0.000 C 
BRANCH  18  20
ATOM     19  C   UNL     1       4.735   4.438  15.915  0.00  0.00    +0.000 C 
ATOM     20  N   UNL     1       3.933   4.460  17.145  0.00  0.00    +0.000 NA
BRANCH  20  21
ATOM     21  C   UNL     1       3.940   3.143  17.812  0.00  0.00    +0.000 C 
BRANCH  21  22
ATOM     22  C   UNL     1       2.992   3.040  18.991  0.00  0.00    +0.000 A 
ATOM     23  C   UNL     1       3.481   2.767  20.277  0.00  0.00    +0.000 A 
ATOM     24  C   UNL     1       2.609   2.687  21.364  0.00  0.00    +0.000 A 
ATOM     25  C   UNL     1       1.241   2.882  21.179  0.00  0.00    +0.000 A 
ATOM     26  C   UNL     1       0.744   3.160  19.906  0.00  0.00    +0.000 A 
ATOM     27  C   UNL     1       1.614   3.243  18.818  0.00  0.00    +0.000 A 
ENDBRANCH  21  22
ENDBRANCH  20  21
ENDBRANCH  18  20
ENDBRANCH   1  18
TORSDOF 6
ENDMDL
MODEL 2
REMARK VINA RESULT:      -7.2      0.092      1.339
REMARK  Name = 
REMARK  7 active torsions:
REMARK  status: ('A' for Active; 'I' for Inactive)
REMARK    1  A    between atoms: C_1  and  N_2
REMARK    2  A    between atoms: N_2  and  C_3
REMARK    3  A    between atoms: N_2  and  C_10
REMARK    4  A    between atoms: C_3  and  C_4
REMARK    5  A    between atoms: C_10  and  C_11
REMARK    6  A    between atoms: C_13  and  O_14
REMARK    7  A    between atoms: C_16  and  C_17
REMARK                            x       y       z     vdW  Elec       q    Type
REMARK                         _______ _______ _______ _____ _____    ______ ____
ROOT
ATOM      1  C   UNL     1       3.465   6.673  18.497  0.00  0.00    +0.000 A 
ATOM      2  N   UNL     1       3.280   7.715  17.659  0.00  0.00    +0.000 NA
ATOM      3  C   UNL     1       2.419   8.667  18.031  0.00  0.00    +0.000 A 
ATOM      4  C   UNL     1       1.685   8.600  19.213  0.00  0.00    +0.000 A 
ATOM      5  C   UNL     1       0.668   9.416  19.856  0.00  0.00    +0.000 A 
ATOM      6  C   UNL     1       0.285   8.861  21.068  0.00  0.00    +0.000 A 
ATOM      7  S   UNL     1       1.116   7.418  21.438  0.00  0.00    +0.000 S 
ATOM      8  C   UNL     1       1.986   7.480  19.978  0.00  0.00    +0.000 A 
ATOM      9  N   UNL     1       2.856   6.503  19.677  0.00  0.00    +0.000 NA
ENDROOT
BRANCH   5  10
ATOM     10  C   UNL     1       0.038  10.658  19.382  0.00  0.00    +0.000 A 
ATOM     11  C   UNL     1      -1.033  10.623  18.480  0.00  0.00    +0.000 A 
ATOM     12  C   UNL     1      -1.602  11.802  17.990  0.00  0.00    +0.000 A 
ATOM     13  C   UNL     1      -1.142  13.037  18.434  0.00  0.00    +0.000 A 
ATOM     14  C   UNL     1      -0.110  13.093  19.367  0.00  0.00    +0.000 A 
ATOM     15  C   UNL     1       0.484  11.913  19.829  0.00  0.00    +0.000 A 
ENDBRANCH   5  10
BRANCH   3  16
ATOM     16  O   UNL     1       2.335   9.686  17.129  0.00  0.00    +0.000 OA
ATOM     17  H   UNL     1       2.859   9.321  16.396  0.00  0.00    +0.000 HD
ENDBRANCH   3  16
BRANCH   1  18
ATOM     18  C   UNL     1       4.436   5.593  18.033  0.00  0.00    +0.000 C 
BRANCH  18  20
ATOM     19  C   UNL     1       4.692   4.547  15.895  0.00  0.00    +0.000 C 
ATOM     20  N   UNL     1       3.888   4.551  17.124  0.00  0.00    +0.000 NA
BRANCH  20  21
ATOM     21  C   UNL     1       3.894   3.224  17.772  0.00  0.00    +0.000 C 
BRANCH  21  22
ATOM     22  C   UNL     1       2.966   3.113  18.966  0.00  0.00    +0.000 A 
ATOM     23  C   UNL     1       1.579   3.258  18.807  0.00  0.00    +0.000 A 
ATOM     24  C   UNL     1       0.725   3.141  19.905  0.00  0.00    +0.000 A 
ATOM     25  C   UNL     1       1.245   2.876  21.170  0.00  0.00    +0.000 A 
ATOM     26  C   UNL     1       2.620   2.722  21.340  0.00  0.00    +0.000 A 
ATOM     27  C   UNL     1       3.476   2.837  20.243  0.00  0.00    +0.000 A 
ENDBRANCH  21  22
ENDBRANCH  20  21
ENDBRANCH  18  20
ENDBRANCH   1  18
TORSDOF 6
ENDMDL
MODEL 3
REMARK VINA RESULT:      -7.0      1.841      3.656
REMARK  Name = 
REMARK  7 active torsions:
REMARK  status: ('A' for Active; 'I' for Inactive)
REMARK    1  A    between atoms: C_1  and  N_2
REMARK    2  A    between atoms: N_2  and  C_3
REMARK    3  A    between atoms: N_2  and  C_10
REMARK    4  A    between atoms: C_3  and  C_4
REMARK    5  A    between atoms: C_10  and  C_11
REMARK    6  A    between atoms: C_13  and  O_14
REMARK    7  A    between atoms: C_16  and  C_17
REMARK                            x       y       z     vdW  Elec       q    Type
REMARK                         _______ _______ _______ _____ _____    ______ ____
ROOT
ATOM      1  C   UNL     1       2.219   6.988  18.825  0.00  0.00    +0.000 A 
ATOM      2  N   UNL     1       2.222   7.972  17.902  0.00  0.00    +0.000 NA
ATOM      3  C   UNL     1       1.843   9.193  18.292  0.00  0.00    +0.000 A 
ATOM      4  C   UNL     1       1.408   9.469  19.587  0.00  0.00    +0.000 A 
ATOM      5  C   UNL     1       0.899  10.637  20.288  0.00  0.00    +0.000 A 
ATOM      6  C   UNL     1       0.625  10.334  21.613  0.00  0.00    +0.000 A 
ATOM      7  S   UNL     1       0.972   8.713  22.017  0.00  0.00    +0.000 S 
ATOM      8  C   UNL     1       1.468   8.365  20.429  0.00  0.00    +0.000 A 
ATOM      9  N   UNL     1       1.863   7.123  20.109  0.00  0.00    +0.000 NA
ENDROOT
BRANCH   5  10
ATOM     10  C   UNL     1       0.645  11.991  19.773  0.00  0.00    +0.000 A 
ATOM     11  C   UNL     1      -0.381  12.229  18.849  0.00  0.00    +0.000 A 
ATOM     12  C   UNL     1      -0.594  13.505  18.321  0.00  0.00    +0.000 A 
ATOM     13  C   UNL     1       0.183  14.577  18.749  0.00  0.00    +0.000 A 
ATOM     14  C   UNL     1       1.176  14.370  19.702  0.00  0.00    +0.000 A 
ATOM     15  C   UNL     1       1.413  13.085  20.202  0.00  0.00    +0.000 A 
ENDBRANCH   5  10
BRANCH   3  16
ATOM     16  O   UNL     1       1.917  10.116  17.292  0.00  0.00    +0.000 OA
ATOM     17  H   UNL     1       1.432   9.655  16.586  0.00  0.00    +0.000 HD
ENDBRANCH   3  16
BRANCH   1  18
ATOM     18  C   UNL     1       2.635   5.603  18.342  0.00  0.00    +0.000 C 
BRANCH  18  20
ATOM     19  C   UNL     1       3.133   3.741  19.763  0.00  0.00    +0.000 C 
ATOM     20  N   UNL     1       3.712   4.925  19.113  0.00  0.00    +0.000 NA
BRANCH  20  21
ATOM     21  C   UNL     1       4.840   4.555  18.235  0.00  0.00    +0.000 C 
BRANCH  21  22
ATOM     22  C   UNL     1       5.968   5.569  18.215  0.00  0.00    +0.000 A 
ATOM     23  C   UNL     1       7.043   5.456  19.109  0.00  0.00    +0.000 A 
ATOM     24  C   UNL     1       8.088   6.382  19.079  0.00  0.00    +0.000 A 
ATOM     25  C   UNL     1       8.071   7.426  18.156  0.00  0.00    +0.000 A 
ATOM     26  C   UNL     1       7.011   7.545  17.258  0.00  0.00    +0.000 A 
ATOM     27  C   UNL     1       5.966   6.619  17.285  0.00  0.00    +0.000 A 
ENDBRANCH  21  22
ENDBRANCH  20  21
ENDBRANCH  18  20
ENDBRANCH   1  18
TORSDOF 6
ENDMDL
MODEL 4
REMARK VINA RESULT:      -6.9      1.862      3.661
REMARK  Name = 
REMARK  7 active torsions:
REMARK  status: ('A' for Active; 'I' for Inactive)
REMARK    1  A    between atoms: C_1  and  N_2
REMARK    2  A    between atoms: N_2  and  C_3
REMARK    3  A    between atoms: N_2  and  C_10
REMARK    4  A    between atoms: C_3  and  C_4
REMARK    5  A    between atoms: C_10  and  C_11
REMARK    6  A    between atoms: C_13  and  O_14
REMARK    7  A    between atoms: C_16  and  C_17
REMARK                            x       y       z     vdW  Elec       q    Type
REMARK                         _______ _______ _______ _____ _____    ______ ____
ROOT
ATOM      1  C   UNL     1       2.227   6.772  18.827  0.00  0.00    +0.000 A 
ATOM      2  N   UNL     1       2.253   7.742  17.890  0.00  0.00    +0.000 NA
ATOM      3  C   UNL     1       1.891   8.975  18.259  0.00  0.00    +0.000 A 
ATOM      4  C   UNL     1       1.452   9.277  19.546  0.00  0.00    +0.000 A 
ATOM      5  C   UNL     1       0.957  10.463  20.226  0.00  0.00    +0.000 A 
ATOM      6  C   UNL     1       0.669  10.184  21.554  0.00  0.00    +0.000 A 
ATOM      7  S   UNL     1       0.986   8.564  21.984  0.00  0.00    +0.000 S 
ATOM      8  C   UNL     1       1.488   8.185  20.405  0.00  0.00    +0.000 A 
ATOM      9  N   UNL     1       1.864   6.932  20.106  0.00  0.00    +0.000 NA
ENDROOT
BRANCH   5  10
ATOM     10  C   UNL     1       0.729  11.813  19.689  0.00  0.00    +0.000 A 
ATOM     11  C   UNL     1       1.569  12.879  20.038  0.00  0.00    +0.000 A 
ATOM     12  C   UNL     1       1.326  14.173  19.568  0.00  0.00    +0.000 A 
ATOM     13  C   UNL     1       0.267  14.413  18.699  0.00  0.00    +0.000 A 
ATOM     14  C   UNL     1      -0.551  13.358  18.302  0.00  0.00    +0.000 A 
ATOM     15  C   UNL     1      -0.329  12.070  18.802  0.00  0.00    +0.000 A 
ENDBRANCH   5  10
BRANCH   3  16
ATOM     16  O   UNL     1       1.988   9.881  17.246  0.00  0.00    +0.000 OA
ATOM     17  H   UNL     1       2.581   9.408  16.637  0.00  0.00    +0.000 HD
ENDBRANCH   3  16
BRANCH   1  18
ATOM     18  C   UNL     1       2.624   5.373  18.368  0.00  0.00    +0.000 C 
BRANCH  18  20
ATOM     19  C   UNL     1       3.629   3.523  19.506  0.00  0.00    +0.000 C 
ATOM     20  N   UNL     1       3.902   4.834  18.904  0.00  0.00    +0.000 NA
BRANCH  20  21
ATOM     21  C   UNL     1       4.923   4.732  17.841  0.00  0.00    +0.000 C 
BRANCH  21  22
ATOM     22  C   UNL     1       6.068   5.715  17.986  0.00  0.00    +0.000 A 
ATOM     23  C   UNL     1       6.136   6.855  17.170  0.00  0.00    +0.000 A 
ATOM     24  C   UNL     1       7.184   7.767  17.314  0.00  0.00    +0.000 A 
ATOM     25  C   UNL     1       8.171   7.552  18.275  0.00  0.00    +0.000 A 
ATOM     26  C   UNL     1       8.110   6.427  19.096  0.00  0.00    +0.000 A 
ATOM     27  C   UNL     1       7.063   5.514  18.955  0.00  0.00    +0.000 A 
ENDBRANCH  21  22
ENDBRANCH  20  21
ENDBRANCH  18  20
ENDBRANCH   1  18
TORSDOF 6
ENDMDL
MODEL 5
REMARK VINA RESULT:      -6.9      3.497      4.581
REMARK  Name = 
REMARK  7 active torsions:
REMARK  status: ('A' for Active; 'I' for Inactive)
REMARK    1  A    between atoms: C_1  and  N_2
REMARK    2  A    between atoms: N_2  and  C_3
REMARK    3  A    between atoms: N_2  and  C_10
REMARK    4  A    between atoms: C_3  and  C_4
REMARK    5  A    between atoms: C_10  and  C_11
REMARK    6  A    between atoms: C_13  and  O_14
REMARK    7  A    between atoms: C_16  and  C_17
REMARK                            x       y       z     vdW  Elec       q    Type
REMARK                         _______ _______ _______ _____ _____    ______ ____
ROOT
ATOM      1  C   UNL     1       1.016   9.019  20.484  0.00  0.00    +0.000 A 
ATOM      2  N   UNL     1       0.838   9.226  21.806  0.00  0.00    +0.000 NA
ATOM      3  C   UNL     1      -0.027  10.176  22.177  0.00  0.00    +0.000 A 
ATOM      4  C   UNL     1      -0.705  10.977  21.261  0.00  0.00    +0.000 A 
ATOM      5  C   UNL     1      -1.638  12.089  21.340  0.00  0.00    +0.000 A 
ATOM      6  C   UNL     1      -2.013  12.507  20.072  0.00  0.00    +0.000 A 
ATOM      7  S   UNL     1      -1.288  11.599  18.823  0.00  0.00    +0.000 S 
ATOM      8  C   UNL     1      -0.432  10.644  19.939  0.00  0.00    +0.000 A 
ATOM      9  N   UNL     1       0.402   9.689  19.500  0.00  0.00    +0.000 NA
ENDROOT
BRANCH   5  10
ATOM     10  C   UNL     1      -2.165  12.775  22.529  0.00  0.00    +0.000 A 
ATOM     11  C   UNL     1      -3.365  12.366  23.125  0.00  0.00    +0.000 A 
ATOM     12  C   UNL     1      -3.893  13.046  24.225  0.00  0.00    +0.000 A 
ATOM     13  C   UNL     1      -3.202  14.117  24.782  0.00  0.00    +0.000 A 
ATOM     14  C   UNL     1      -1.985  14.510  24.234  0.00  0.00    +0.000 A 
ATOM     15  C   UNL     1      -1.474  13.852  23.109  0.00  0.00    +0.000 A 
ENDBRANCH   5  10
BRANCH   3  16
ATOM     16  O   UNL     1      -0.156  10.275  23.530  0.00  0.00    +0.000 OA
ATOM     17  H   UNL     1      -0.888   9.654  23.687  0.00  0.00    +0.000 HD
ENDBRANCH   3  16
BRANCH   1  18
ATOM     18  C   UNL     1       2.025   7.945  20.095  0.00  0.00    +0.000 C 
BRANCH  18  20
ATOM     19  C   UNL     1       2.492   8.575  17.833  0.00  0.00    +0.000 C 
ATOM     20  N   UNL     1       1.995   7.484  18.681  0.00  0.00    +0.000 NA
BRANCH  20  21
ATOM     21  C   UNL     1       2.800   6.259  18.504  0.00  0.00    +0.000 C 
BRANCH  21  22
ATOM     22  C   UNL     1       2.113   4.992  18.975  0.00  0.00    +0.000 A 
ATOM     23  C   UNL     1       1.616   4.064  18.048  0.00  0.00    +0.000 A 
ATOM     24  C   UNL     1       0.997   2.891  18.484  0.00  0.00    +0.000 A 
ATOM     25  C   UNL     1       0.871   2.632  19.848  0.00  0.00    +0.000 A 
ATOM     26  C   UNL     1       1.367   3.543  20.778  0.00  0.00    +0.000 A 
ATOM     27  C   UNL     1       1.988   4.716  20.345  0.00  0.00    +0.000 A 
ENDBRANCH  21  22
ENDBRANCH  20  21
ENDBRANCH  18  20
ENDBRANCH   1  18
TORSDOF 6
ENDMDL
MODEL 6
REMARK VINA RESULT:      -6.9      0.701      1.160
REMARK  Name = 
REMARK  7 active torsions:
REMARK  status: ('A' for Active; 'I' for Inactive)
REMARK    1  A    between atoms: C_1  and  N_2
REMARK    2  A    between atoms: N_2  and  C_3
REMARK    3  A    between atoms: N_2  and  C_10
REMARK    4  A    between atoms: C_3  and  C_4
REMARK    5  A    between atoms: C_10  and  C_11
REMARK    6  A    between atoms: C_13  and  O_14
REMARK    7  A    between atoms: C_16  and  C_17
REMARK                            x       y       z     vdW  Elec       q    Type
REMARK                         _______ _______ _______ _____ _____    ______ ____
ROOT
ATOM      1  C   UNL     1       3.560   7.083  18.031  0.00  0.00    +0.000 A 
ATOM      2  N   UNL     1       3.171   8.201  17.384  0.00  0.00    +0.000 NA
ATOM      3  C   UNL     1       2.243   8.966  17.967  0.00  0.00    +0.000 A 
ATOM      4  C   UNL     1       1.642   8.631  19.178  0.00  0.00    +0.000 A 
ATOM      5  C   UNL     1       0.603   9.203  20.019  0.00  0.00    +0.000 A 
ATOM      6  C   UNL     1       0.410   8.432  21.155  0.00  0.00    +0.000 A 
ATOM      7  S   UNL     1       1.440   7.073  21.228  0.00  0.00    +0.000 S 
ATOM      8  C   UNL     1       2.148   7.462  19.732  0.00  0.00    +0.000 A 
ATOM      9  N   UNL     1       3.095   6.663  19.214  0.00  0.00    +0.000 NA
ENDROOT
BRANCH   5  10
ATOM     10  C   UNL     1      -0.214  10.406  19.796  0.00  0.00    +0.000 A 
ATOM     11  C   UNL     1      -1.173  10.447  18.776  0.00  0.00    +0.000 A 
ATOM     12  C   UNL     1      -1.917  11.604  18.530  0.00  0.00    +0.000 A 
ATOM     13  C   UNL     1      -1.750  12.725  19.337  0.00  0.00    +0.000 A 
ATOM     14  C   UNL     1      -0.837  12.689  20.386  0.00  0.00    +0.000 A 
ATOM     15  C   UNL     1      -0.066  11.542  20.608  0.00  0.00    +0.000 A 
ENDBRANCH   5  10
BRANCH   3  16
ATOM     16  O   UNL     1       1.950  10.085  17.246  0.00  0.00    +0.000 OA
ATOM     17  H   UNL     1       1.082   9.841  16.880  0.00  0.00    +0.000 HD
ENDBRANCH   3  16
BRANCH   1  18
ATOM     18  C   UNL     1       4.603   6.220  17.328  0.00  0.00    +0.000 C 
BRANCH  18  20
ATOM     19  C   UNL     1       4.843   4.528  15.651  0.00  0.00    +0.000 C 
ATOM     20  N   UNL     1       4.171   4.858  16.915  0.00  0.00    +0.000 NA
BRANCH  20  21
ATOM     21  C   UNL     1       4.481   3.862  17.961  0.00  0.00    +0.000 C 
BRANCH  21  22
ATOM     22  C   UNL     1       3.287   3.453  18.801  0.00  0.00    +0.000 A 
ATOM     23  C   UNL     1       3.417   3.275  20.186  0.00  0.00    +0.000 A 
ATOM     24  C   UNL     1       2.313   2.911  20.960  0.00  0.00    +0.000 A 
ATOM     25  C   UNL     1       1.068   2.727  20.359  0.00  0.00    +0.000 A 
ATOM     26  C   UNL     1       0.925   2.908  18.984  0.00  0.00    +0.000 A 
ATOM     27  C   UNL     1       2.027   3.272  18.209  0.00  0.00    +0.000 A 
ENDBRANCH  21  22
ENDBRANCH  20  21
ENDBRANCH  18  20
ENDBRANCH   1  18
TORSDOF 6
ENDMDL
MODEL 7
REMARK VINA RESULT:      -6.8      3.489      4.431
REMARK  Name = 
REMARK  7 active torsions:
REMARK  status: ('A' for Active; 'I' for Inactive)
REMARK    1  A    between atoms: C_1  and  N_2
REMARK    2  A    between atoms: N_2  and  C_3
REMARK    3  A    between atoms: N_2  and  C_10
REMARK    4  A    between atoms: C_3  and  C_4
REMARK    5  A    between atoms: C_10  and  C_11
REMARK    6  A    between atoms: C_13  and  O_14
REMARK    7  A    between atoms: C_16  and  C_17
REMARK                            x       y       z     vdW  Elec       q    Type
REMARK                         _______ _______ _______ _____ _____    ______ ____
ROOT
ATOM      1  C   UNL     1       1.012   9.030  20.472  0.00  0.00    +0.000 A 
ATOM      2  N   UNL     1       0.851   9.255  21.793  0.00  0.00    +0.000 NA
ATOM      3  C   UNL     1      -0.012  10.206  22.162  0.00  0.00    +0.000 A 
ATOM      4  C   UNL     1      -0.707  10.991  21.244  0.00  0.00    +0.000 A 
ATOM      5  C   UNL     1      -1.644  12.100  21.319  0.00  0.00    +0.000 A 
ATOM      6  C   UNL     1      -2.039  12.497  20.051  0.00  0.00    +0.000 A 
ATOM      7  S   UNL     1      -1.327  11.574  18.805  0.00  0.00    +0.000 S 
ATOM      8  C   UNL     1      -0.451  10.640  19.924  0.00  0.00    +0.000 A 
ATOM      9  N   UNL     1       0.382   9.682  19.487  0.00  0.00    +0.000 NA
ENDROOT
BRANCH   5  10
ATOM     10  C   UNL     1      -2.158  12.801  22.506  0.00  0.00    +0.000 A 
ATOM     11  C   UNL     1      -1.441  13.856  23.086  0.00  0.00    +0.000 A 
ATOM     12  C   UNL     1      -1.903  14.493  24.241  0.00  0.00    +0.000 A 
ATOM     13  C   UNL     1      -3.117  14.118  24.807  0.00  0.00    +0.000 A 
ATOM     14  C   UNL     1      -3.868  13.104  24.219  0.00  0.00    +0.000 A 
ATOM     15  C   UNL     1      -3.387  12.443  23.083  0.00  0.00    +0.000 A 
ENDBRANCH   5  10
BRANCH   3  16
ATOM     16  O   UNL     1      -0.122  10.325  23.515  0.00  0.00    +0.000 OA
ATOM     17  H   UNL     1      -1.028  10.672  23.591  0.00  0.00    +0.000 HD
ENDBRANCH   3  16
BRANCH   1  18
ATOM     18  C   UNL     1       2.021   7.955  20.084  0.00  0.00    +0.000 C 
BRANCH  18  20
ATOM     19  C   UNL     1       2.532   8.627  17.844  0.00  0.00    +0.000 C 
ATOM     20  N   UNL     1       2.018   7.521  18.661  0.00  0.00    +0.000 NA
BRANCH  20  21
ATOM     21  C   UNL     1       2.826   6.299  18.477  0.00  0.00    +0.000 C 
BRANCH  21  22
ATOM     22  C   UNL     1       2.159   5.033  18.981  0.00  0.00    +0.000 A 
ATOM     23  C   UNL     1       2.012   4.805  20.358  0.00  0.00    +0.000 A 
ATOM     24  C   UNL     1       1.385   3.646  20.820  0.00  0.00    +0.000 A 
ATOM     25  C   UNL     1       0.896   2.707  19.914  0.00  0.00    +0.000 A 
ATOM     26  C   UNL     1       1.030   2.926  18.544  0.00  0.00    +0.000 A 
ATOM     27  C   UNL     1       1.655   4.084  18.079  0.00  0.00    +0.000 A 
ENDBRANCH  21  22
ENDBRANCH  20  21
ENDBRANCH  18  20
ENDBRANCH   1  18
TORSDOF 6
ENDMDL
MODEL 8
REMARK VINA RESULT:      -6.8      1.468      3.277
REMARK  Name = 
REMARK  7 active torsions:
REMARK  status: ('A' for Active; 'I' for Inactive)
REMARK    1  A    between atoms: C_1  and  N_2
REMARK    2  A    between atoms: N_2  and  C_3
REMARK    3  A    between atoms: N_2  and  C_10
REMARK    4  A    between atoms: C_3  and  C_4
REMARK    5  A    between atoms: C_10  and  C_11
REMARK    6  A    between atoms: C_13  and  O_14
REMARK    7  A    between atoms: C_16  and  C_17
REMARK                            x       y       z     vdW  Elec       q    Type
REMARK                         _______ _______ _______ _____ _____    ______ ____
ROOT
ATOM      1  C   UNL     1       2.471   7.119  18.612  0.00  0.00    +0.000 A 
ATOM      2  N   UNL     1       2.448   8.156  17.749  0.00  0.00    +0.000 NA
ATOM      3  C   UNL     1       1.966   9.322  18.189  0.00  0.00    +0.000 A 
ATOM      4  C   UNL     1       1.453   9.489  19.473  0.00  0.00    +0.000 A 
ATOM      5  C   UNL     1       0.831  10.574  20.214  0.00  0.00    +0.000 A 
ATOM      6  C   UNL     1       0.517  10.172  21.504  0.00  0.00    +0.000 A 
ATOM      7  S   UNL     1       0.957   8.557  21.831  0.00  0.00    +0.000 S 
ATOM      8  C   UNL     1       1.551   8.342  20.252  0.00  0.00    +0.000 A 
ATOM      9  N   UNL     1       2.046   7.151  19.881  0.00  0.00    +0.000 NA
ENDROOT
BRANCH   5  10
ATOM     10  C   UNL     1       0.506  11.937  19.766  0.00  0.00    +0.000 A 
ATOM     11  C   UNL     1      -0.465  12.159  18.781  0.00  0.00    +0.000 A 
ATOM     12  C   UNL     1      -0.741  13.449  18.319  0.00  0.00    +0.000 A 
ATOM     13  C   UNL     1      -0.087  14.544  18.872  0.00  0.00    +0.000 A 
ATOM     14  C   UNL     1       0.847  14.349  19.886  0.00  0.00    +0.000 A 
ATOM     15  C   UNL     1       1.150  13.054  20.322  0.00  0.00    +0.000 A 
ENDBRANCH   5  10
BRANCH   3  16
ATOM     16  O   UNL     1       2.022  10.308  17.249  0.00  0.00    +0.000 OA
ATOM     17  H   UNL     1       2.972  10.519  17.268  0.00  0.00    +0.000 HD
ENDBRANCH   3  16
BRANCH   1  18
ATOM     18  C   UNL     1       3.005   5.797  18.071  0.00  0.00    +0.000 C 
BRANCH  18  20
ATOM     19  C   UNL     1       1.645   3.836  18.255  0.00  0.00    +0.000 C 
ATOM     20  N   UNL     1       2.736   4.585  18.891  0.00  0.00    +0.000 NA
BRANCH  20  21
ATOM     21  C   UNL     1       3.949   3.754  19.023  0.00  0.00    +0.000 C 
BRANCH  21  22
ATOM     22  C   UNL     1       5.018   4.047  17.988  0.00  0.00    +0.000 A 
ATOM     23  C   UNL     1       4.820   3.702  16.642  0.00  0.00    +0.000 A 
ATOM     24  C   UNL     1       5.799   3.986  15.688  0.00  0.00    +0.000 A 
ATOM     25  C   UNL     1       6.981   4.620  16.066  0.00  0.00    +0.000 A 
ATOM     26  C   UNL     1       7.186   4.974  17.399  0.00  0.00    +0.000 A 
ATOM     27  C   UNL     1       6.209   4.692  18.355  0.00  0.00    +0.000 A 
ENDBRANCH  21  22
ENDBRANCH  20  21
ENDBRANCH  18  20
ENDBRANCH   1  18
TORSDOF 6
ENDMDL
MODEL 9
REMARK VINA RESULT:      -6.7      2.122      7.985
REMARK  Name = 
REMARK  7 active torsions:
REMARK  status: ('A' for Active; 'I' for Inactive)
REMARK    1  A    between atoms: C_1  and  N_2
REMARK    2  A    between atoms: N_2  and  C_3
REMARK    3  A    between atoms: N_2  and  C_10
REMARK    4  A    between atoms: C_3  and  C_4
REMARK    5  A    between atoms: C_10  and  C_11
REMARK    6  A    between atoms: C_13  and  O_14
REMARK    7  A    between atoms: C_16  and  C_17
REMARK                            x       y       z     vdW  Elec       q    Type
REMARK                         _______ _______ _______ _____ _____    ______ ____
ROOT
ATOM      1  C   UNL     1       1.437   7.911  20.176  0.00  0.00    +0.000 A 
ATOM      2  N   UNL     1       2.181   8.239  19.098  0.00  0.00    +0.000 NA
ATOM      3  C   UNL     1       2.970   7.295  18.576  0.00  0.00    +0.000 A 
ATOM      4  C   UNL     1       3.083   6.019  19.123  0.00  0.00    +0.000 A 
ATOM      5  C   UNL     1       3.862   4.826  18.833  0.00  0.00    +0.000 A 
ATOM      6  C   UNL     1       3.554   3.809  19.723  0.00  0.00    +0.000 A 
ATOM      7  S   UNL     1       2.365   4.252  20.865  0.00  0.00    +0.000 S 
ATOM      8  C   UNL     1       2.253   5.821  20.220  0.00  0.00    +0.000 A 
ATOM      9  N   UNL     1       1.420   6.714  20.777  0.00  0.00    +0.000 NA
ENDROOT
BRANCH   5  10
ATOM     10  C   UNL     1       4.878   4.612  17.791  0.00  0.00    +0.000 A 
ATOM     11  C   UNL     1       6.241   4.773  18.069  0.00  0.00    +0.000 A 
ATOM     12  C   UNL     1       7.205   4.618  17.070  0.00  0.00    +0.000 A 
ATOM     13  C   UNL     1       6.825   4.247  15.784  0.00  0.00    +0.000 A 
ATOM     14  C   UNL     1       5.479   4.035  15.498  0.00  0.00    +0.000 A 
ATOM     15  C   UNL     1       4.511   4.227  16.491  0.00  0.00    +0.000 A 
ENDBRANCH   5  10
BRANCH   3  16
ATOM     16  O   UNL     1       3.647   7.723  17.473  0.00  0.00    +0.000 OA
ATOM     17  H   UNL     1       3.272   7.136  16.793  0.00  0.00    +0.000 HD
ENDBRANCH   3  16
BRANCH   1  18
ATOM     18  C   UNL     1       0.565   9.016  20.761  0.00  0.00    +0.000 C 
BRANCH  18  20
ATOM     19  C   UNL     1      -0.972  10.254  19.407  0.00  0.00    +0.000 C 
ATOM     20  N   UNL     1       0.399  10.241  19.934  0.00  0.00    +0.000 NA
BRANCH  20  21
ATOM     21  C   UNL     1       0.680  11.457  20.724  0.00  0.00    +0.000 C 
BRANCH  21  22
ATOM     22  C   UNL     1       1.609  12.440  20.038  0.00  0.00    +0.000 A 
ATOM     23  C   UNL     1       2.190  13.494  20.760  0.00  0.00    +0.000 A 
ATOM     24  C   UNL     1       3.057  14.390  20.130  0.00  0.00    +0.000 A 
ATOM     25  C   UNL     1       3.355  14.240  18.777  0.00  0.00    +0.000 A 
ATOM     26  C   UNL     1       2.790  13.192  18.051  0.00  0.00    +0.000 A 
ATOM     27  C   UNL     1       1.924  12.295  18.678  0.00  0.00    +0.000 A 
ENDBRANCH  21  22
ENDBRANCH  20  21
ENDBRANCH  18  20
ENDBRANCH   1  18
TORSDOF 6
ENDMDL
