MODEL 1
REMARK VINA RESULT:      -7.3      0.000      0.000
REMARK  Name = 
REMARK  13 active torsions:
REMARK  status: ('A' for Active; 'I' for Inactive)
REMARK    1  A    between atoms: C_2  and  C_3
REMARK    2  A    between atoms: C_2  and  C_4
REMARK    3  A    between atoms: C_4  and  C_5
REMARK    4  A    between atoms: C_5  and  N_6
REMARK    5  A    between atoms: N_6  and  C_14
REMARK    6  A    between atoms: C_7  and  O_9
REMARK    7  A    between atoms: O_9  and  C_10
REMARK    8  A    between atoms: C_10  and  C_11
REMARK    9  A    between atoms: C_10  and  C_12
REMARK   10  A    between atoms: C_10  and  C_13
REMARK   11  A    between atoms: C_16  and  C_17
REMARK   12  A    between atoms: C_17  and  C_18
REMARK   13  A    between atoms: C_17  and  C_19
REMARK                            x       y       z     vdW  Elec       q    Type
REMARK                         _______ _______ _______ _____ _____    ______ ____
ROOT
ATOM      1  N   UNL     1       5.587   4.132  15.616  0.00  0.00    +0.000 N 
ATOM      2  C   UNL     1       6.827   4.560  16.123  0.00  0.00    +0.000 C 
ATOM      3  O   UNL     1       7.743   4.961  15.412  0.00  0.00    +0.000 OA
ENDROOT
BRANCH   1   4
ATOM      4  C   UNL     1       4.582   3.747  16.504  0.00  0.00    +0.000 A 
ATOM      5  C   UNL     1       3.418   4.378  16.895  0.00  0.00    +0.000 A 
ATOM      6  C   UNL     1       2.753   3.511  17.813  0.00  0.00    +0.000 A 
ATOM      7  C   UNL     1       3.549   2.390  17.891  0.00  0.00    +0.000 A 
ATOM      8  O   UNL     1       4.639   2.524  17.102  0.00  0.00    +0.000 OA
BRANCH   6   9
ATOM      9  C   UNL     1       1.460   3.752  18.529  0.00  0.00    +0.000 C 
ATOM     10  C   UNL     1       0.717   2.442  18.802  0.00  0.00    +0.000 C 
ATOM     11  C   UNL     1       1.693   4.527  19.826  0.00  0.00    +0.000 C 
ENDBRANCH   6   9
ENDBRANCH   1   4
BRANCH   1  12
ATOM     12  C   UNL     1       5.273   4.313  14.182  0.00  0.00    +0.000 C 
BRANCH  12  13
ATOM     13  C   UNL     1       6.177   3.559  13.187  0.00  0.00    +0.000 C 
BRANCH  13  15
ATOM     14  C   UNL     1       4.275   3.434  11.576  0.00  0.00    +0.000 C 
ATOM     15  C   UNL     1       5.452   2.946  12.002  0.00  0.00    +0.000 C 
ATOM     16  C   UNL     1       6.051   1.707  11.395  0.00  0.00    +0.000 C 
ENDBRANCH  13  15
ENDBRANCH  12  13
ENDBRANCH   1  12
BRANCH   2  17
ATOM     17  O   UNL     1       6.924   4.547  17.482  0.00  0.00    +0.000 OA
BRANCH  17  18
ATOM     18  C   UNL     1       6.675   5.719  18.295  0.00  0.00    +0.000 C 
ATOM     19  C   UNL     1       5.622   5.431  19.368  0.00  0.00    +0.000 C 
ATOM     20  C   UNL     1       8.017   6.015  18.985  0.00  0.00    +0.000 C 
ATOM     21  C   UNL     1       6.306   6.926  17.427  0.00  0.00    +0.000 C 
ENDBRANCH  17  18
ENDBRANCH   2  17
TORSDOF 7
ENDMDL
MODEL 2
REMARK VINA RESULT:      -7.3      0.064      1.209
REMARK  Name = 
REMARK  13 active torsions:
REMARK  status: ('A' for Active; 'I' for Inactive)
REMARK    1  A    between atoms: C_2  and  C_3
REMARK    2  A    between atoms: C_2  and  C_4
REMARK    3  A    between atoms: C_4  and  C_5
REMARK    4  A    between atoms: C_5  and  N_6
REMARK    5  A    between atoms: N_6  and  C_14
REMARK    6  A    between atoms: C_7  and  O_9
REMARK    7  A    between atoms: O_9  and  C_10
REMARK    8  A    between atoms: C_10  and  C_11
REMARK    9  A    between atoms: C_10  and  C_12
REMARK   10  A    between atoms: C_10  and  C_13
REMARK   11  A    between atoms: C_16  and  C_17
REMARK   12  A    between atoms: C_17  and  C_18
REMARK   13  A    between atoms: C_17  and  C_19
REMARK                            x       y       z     vdW  Elec       q    Type
REMARK                         _______ _______ _______ _____ _____    ______ ____
ROOT
ATOM      1  N   UNL     1       5.582   4.121  15.616  0.00  0.00    +0.000 N 
ATOM      2  C   UNL     1       6.818   4.554  16.127  0.00  0.00    +0.000 C 
ATOM      3  O   UNL     1       7.738   4.955  15.420  0.00  0.00    +0.000 OA
ENDROOT
BRANCH   1   4
ATOM      4  C   UNL     1       4.572   3.737  16.499  0.00  0.00    +0.000 A 
ATOM      5  C   UNL     1       3.434   4.392  16.922  0.00  0.00    +0.000 A 
ATOM      6  C   UNL     1       2.749   3.515  17.816  0.00  0.00    +0.000 A 
ATOM      7  C   UNL     1       3.508   2.367  17.849  0.00  0.00    +0.000 A 
ATOM      8  O   UNL     1       4.595   2.493  17.054  0.00  0.00    +0.000 OA
BRANCH   6   9
ATOM      9  C   UNL     1       1.470   3.773  18.553  0.00  0.00    +0.000 C 
ATOM     10  C   UNL     1       0.715   2.472  18.838  0.00  0.00    +0.000 C 
ATOM     11  C   UNL     1       1.733   4.546  19.845  0.00  0.00    +0.000 C 
ENDBRANCH   6   9
ENDBRANCH   1   4
BRANCH   1  12
ATOM     12  C   UNL     1       5.276   4.293  14.178  0.00  0.00    +0.000 C 
BRANCH  12  13
ATOM     13  C   UNL     1       6.208   3.561  13.192  0.00  0.00    +0.000 C 
BRANCH  13  15
ATOM     14  C   UNL     1       6.036   1.787  11.445  0.00  0.00    +0.000 C 
ATOM     15  C   UNL     1       5.502   2.866  12.041  0.00  0.00    +0.000 C 
ATOM     16  C   UNL     1       4.239   3.499  11.526  0.00  0.00    +0.000 C 
ENDBRANCH  13  15
ENDBRANCH  12  13
ENDBRANCH   1  12
BRANCH   2  17
ATOM     17  O   UNL     1       6.907   4.549  17.487  0.00  0.00    +0.000 OA
BRANCH  17  18
ATOM     18  C   UNL     1       6.769   5.751  18.284  0.00  0.00    +0.000 C 
ATOM     19  C   UNL     1       6.232   6.911  17.442  0.00  0.00    +0.000 C 
ATOM     20  C   UNL     1       5.728   5.396  19.359  0.00  0.00    +0.000 C 
ATOM     21  C   UNL     1       8.083   6.101  18.987  0.00  0.00    +0.000 C 
ENDBRANCH  17  18
ENDBRANCH   2  17
TORSDOF 7
ENDMDL
MODEL 3
REMARK VINA RESULT:      -6.9      0.790      1.053
REMARK  Name = 
REMARK  13 active torsions:
REMARK  status: ('A' for Active; 'I' for Inactive)
REMARK    1  A    between atoms: C_2  and  C_3
REMARK    2  A    between atoms: C_2  and  C_4
REMARK    3  A    between atoms: C_4  and  C_5
REMARK    4  A    between atoms: C_5  and  N_6
REMARK    5  A    between atoms: N_6  and  C_14
REMARK    6  A    between atoms: C_7  and  O_9
REMARK    7  A    between atoms: O_9  and  C_10
REMARK    8  A    between atoms: C_10  and  C_11
REMARK    9  A    between atoms: C_10  and  C_12
REMARK   10  A    between atoms: C_10  and  C_13
REMARK   11  A    between atoms: C_16  and  C_17
REMARK   12  A    between atoms: C_17  and  C_18
REMARK   13  A    between atoms: C_17  and  C_19
REMARK                            x       y       z     vdW  Elec       q    Type
REMARK                         _______ _______ _______ _____ _____    ______ ____
ROOT
ATOM      1  N   UNL     1       5.832   4.125  15.551  0.00  0.00    +0.000 N 
ATOM      2  C   UNL     1       6.664   5.238  15.765  0.00  0.00    +0.000 C 
ATOM      3  O   UNL     1       7.550   5.578  14.987  0.00  0.00    +0.000 OA
ENDROOT
BRANCH   1   4
ATOM      4  C   UNL     1       4.812   3.848  16.462  0.00  0.00    +0.000 A 
ATOM      5  C   UNL     1       3.626   4.500  16.729  0.00  0.00    +0.000 A 
ATOM      6  C   UNL     1       2.955   3.759  17.748  0.00  0.00    +0.000 A 
ATOM      7  C   UNL     1       3.773   2.682  18.008  0.00  0.00    +0.000 A 
ATOM      8  O   UNL     1       4.880   2.727  17.233  0.00  0.00    +0.000 OA
BRANCH   6   9
ATOM      9  C   UNL     1       1.639   4.069  18.392  0.00  0.00    +0.000 C 
ATOM     10  C   UNL     1       0.840   2.795  18.678  0.00  0.00    +0.000 C 
ATOM     11  C   UNL     1       1.836   4.888  19.667  0.00  0.00    +0.000 C 
ENDBRANCH   6   9
ENDBRANCH   1   4
BRANCH   1  12
ATOM     12  C   UNL     1       5.884   3.401  14.262  0.00  0.00    +0.000 C 
BRANCH  12  13
ATOM     13  C   UNL     1       5.203   4.094  13.064  0.00  0.00    +0.000 C 
BRANCH  13  15
ATOM     14  C   UNL     1       3.819   3.301  11.146  0.00  0.00    +0.000 C 
ATOM     15  C   UNL     1       4.947   3.196  11.867  0.00  0.00    +0.000 C 
ATOM     16  C   UNL     1       5.955   2.115  11.589  0.00  0.00    +0.000 C 
ENDBRANCH  13  15
ENDBRANCH  12  13
ENDBRANCH   1  12
BRANCH   2  17
ATOM     17  O   UNL     1       6.380   5.955  16.888  0.00  0.00    +0.000 OA
BRANCH  17  18
ATOM     18  C   UNL     1       7.048   5.724  18.153  0.00  0.00    +0.000 C 
ATOM     19  C   UNL     1       7.990   4.521  18.066  0.00  0.00    +0.000 C 
ATOM     20  C   UNL     1       7.885   6.992  18.396  0.00  0.00    +0.000 C 
ATOM     21  C   UNL     1       6.037   5.591  19.295  0.00  0.00    +0.000 C 
ENDBRANCH  17  18
ENDBRANCH   2  17
TORSDOF 7
ENDMDL
MODEL 4
REMARK VINA RESULT:      -6.9      1.140      1.774
REMARK  Name = 
REMARK  13 active torsions:
REMARK  status: ('A' for Active; 'I' for Inactive)
REMARK    1  A    between atoms: C_2  and  C_3
REMARK    2  A    between atoms: C_2  and  C_4
REMARK    3  A    between atoms: C_4  and  C_5
REMARK    4  A    between atoms: C_5  and  N_6
REMARK    5  A    between atoms: N_6  and  C_14
REMARK    6  A    between atoms: C_7  and  O_9
REMARK    7  A    between atoms: O_9  and  C_10
REMARK    8  A    between atoms: C_10  and  C_11
REMARK    9  A    between atoms: C_10  and  C_12
REMARK   10  A    between atoms: C_10  and  C_13
REMARK   11  A    between atoms: C_16  and  C_17
REMARK   12  A    between atoms: C_17  and  C_18
REMARK   13  A    between atoms: C_17  and  C_19
REMARK                            x       y       z     vdW  Elec       q    Type
REMARK                         _______ _______ _______ _____ _____    ______ ____
ROOT
ATOM      1  N   UNL     1       5.836   4.162  15.610  0.00  0.00    +0.000 N 
ATOM      2  C   UNL     1       6.744   5.213  15.827  0.00  0.00    +0.000 C 
ATOM      3  O   UNL     1       7.671   5.472  15.066  0.00  0.00    +0.000 OA
ENDROOT
BRANCH   1   4
ATOM      4  C   UNL     1       4.777   3.978  16.500  0.00  0.00    +0.000 A 
ATOM      5  C   UNL     1       4.450   2.919  17.321  0.00  0.00    +0.000 A 
ATOM      6  C   UNL     1       3.269   3.284  18.034  0.00  0.00    +0.000 A 
ATOM      7  C   UNL     1       2.977   4.563  17.616  0.00  0.00    +0.000 A 
ATOM      8  O   UNL     1       3.882   4.985  16.706  0.00  0.00    +0.000 OA
BRANCH   6   9
ATOM      9  C   UNL     1       2.511   2.466  19.034  0.00  0.00    +0.000 C 
ATOM     10  C   UNL     1       2.684   3.013  20.453  0.00  0.00    +0.000 C 
ATOM     11  C   UNL     1       1.032   2.381  18.658  0.00  0.00    +0.000 C 
ENDBRANCH   6   9
ENDBRANCH   1   4
BRANCH   1  12
ATOM     12  C   UNL     1       5.863   3.414  14.334  0.00  0.00    +0.000 C 
BRANCH  12  13
ATOM     13  C   UNL     1       5.111   4.058  13.152  0.00  0.00    +0.000 C 
BRANCH  13  15
ATOM     14  C   UNL     1       5.892   2.240  11.631  0.00  0.00    +0.000 C 
ATOM     15  C   UNL     1       4.974   3.176  11.923  0.00  0.00    +0.000 C 
ATOM     16  C   UNL     1       3.831   3.467  10.991  0.00  0.00    +0.000 C 
ENDBRANCH  13  15
ENDBRANCH  12  13
ENDBRANCH   1  12
BRANCH   2  17
ATOM     17  O   UNL     1       6.490   5.968  16.932  0.00  0.00    +0.000 OA
BRANCH  17  18
ATOM     18  C   UNL     1       7.152   5.747  18.201  0.00  0.00    +0.000 C 
ATOM     19  C   UNL     1       8.104   4.550  18.123  0.00  0.00    +0.000 C 
ATOM     20  C   UNL     1       7.979   7.021  18.444  0.00  0.00    +0.000 C 
ATOM     21  C   UNL     1       6.136   5.610  19.339  0.00  0.00    +0.000 C 
ENDBRANCH  17  18
ENDBRANCH   2  17
TORSDOF 7
ENDMDL
MODEL 5
REMARK VINA RESULT:      -6.8      3.387      5.290
REMARK  Name = 
REMARK  13 active torsions:
REMARK  status: ('A' for Active; 'I' for Inactive)
REMARK    1  A    between atoms: C_2  and  C_3
REMARK    2  A    between atoms: C_2  and  C_4
REMARK    3  A    between atoms: C_4  and  C_5
REMARK    4  A    between atoms: C_5  and  N_6
REMARK    5  A    between atoms: N_6  and  C_14
REMARK    6  A    between atoms: C_7  and  O_9
REMARK    7  A    between atoms: O_9  and  C_10
REMARK    8  A    between atoms: C_10  and  C_11
REMARK    9  A    between atoms: C_10  and  C_12
REMARK   10  A    between atoms: C_10  and  C_13
REMARK   11  A    between atoms: C_16  and  C_17
REMARK   12  A    between atoms: C_17  and  C_18
REMARK   13  A    between atoms: C_17  and  C_19
REMARK                            x       y       z     vdW  Elec       q    Type
REMARK                         _______ _______ _______ _____ _____    ______ ____
ROOT
ATOM      1  N   UNL     1       3.593   6.045  17.713  0.00  0.00    +0.000 N 
ATOM      2  C   UNL     1       3.098   4.729  17.727  0.00  0.00    +0.000 C 
ATOM      3  O   UNL     1       3.710   3.773  17.260  0.00  0.00    +0.000 OA
ENDROOT
BRANCH   1   4
ATOM      4  C   UNL     1       2.853   7.060  18.320  0.00  0.00    +0.000 A 
ATOM      5  C   UNL     1       2.242   8.181  17.796  0.00  0.00    +0.000 A 
ATOM      6  C   UNL     1       1.604   8.860  18.877  0.00  0.00    +0.000 A 
ATOM      7  C   UNL     1       1.847   8.081  19.986  0.00  0.00    +0.000 A 
ATOM      8  O   UNL     1       2.585   6.998  19.654  0.00  0.00    +0.000 OA
BRANCH   6   9
ATOM      9  C   UNL     1       0.823  10.138  18.825  0.00  0.00    +0.000 C 
ATOM     10  C   UNL     1      -0.510   9.951  18.097  0.00  0.00    +0.000 C 
ATOM     11  C   UNL     1       0.604  10.699  20.230  0.00  0.00    +0.000 C 
ENDBRANCH   6   9
ENDBRANCH   1   4
BRANCH   1  12
ATOM     12  C   UNL     1       4.981   6.307  17.273  0.00  0.00    +0.000 C 
BRANCH  12  13
ATOM     13  C   UNL     1       5.229   6.279  15.751  0.00  0.00    +0.000 C 
BRANCH  13  15
ATOM     14  C   UNL     1       5.596   4.373  14.184  0.00  0.00    +0.000 C 
ATOM     15  C   UNL     1       6.007   5.075  15.252  0.00  0.00    +0.000 C 
ATOM     16  C   UNL     1       7.193   4.637  16.066  0.00  0.00    +0.000 C 
ENDBRANCH  13  15
ENDBRANCH  12  13
ENDBRANCH   1  12
BRANCH   2  17
ATOM     17  O   UNL     1       1.897   4.577  18.352  0.00  0.00    +0.000 OA
BRANCH  17  18
ATOM     18  C   UNL     1       1.671   3.583  19.381  0.00  0.00    +0.000 C 
ATOM     19  C   UNL     1       2.987   3.167  20.043  0.00  0.00    +0.000 C 
ATOM     20  C   UNL     1       0.793   4.290  20.428  0.00  0.00    +0.000 C 
ATOM     21  C   UNL     1       0.891   2.386  18.832  0.00  0.00    +0.000 C 
ENDBRANCH  17  18
ENDBRANCH   2  17
TORSDOF 7
ENDMDL
MODEL 6
REMARK VINA RESULT:      -6.7      3.192      5.701
REMARK  Name = 
REMARK  13 active torsions:
REMARK  status: ('A' for Active; 'I' for Inactive)
REMARK    1  A    between atoms: C_2  and  C_3
REMARK    2  A    between atoms: C_2  and  C_4
REMARK    3  A    between atoms: C_4  and  C_5
REMARK    4  A    between atoms: C_5  and  N_6
REMARK    5  A    between atoms: N_6  and  C_14
REMARK    6  A    between atoms: C_7  and  O_9
REMARK    7  A    between atoms: O_9  and  C_10
REMARK    8  A    between atoms: C_10  and  C_11
REMARK    9  A    between atoms: C_10  and  C_12
REMARK   10  A    between atoms: C_10  and  C_13
REMARK   11  A    between atoms: C_16  and  C_17
REMARK   12  A    between atoms: C_17  and  C_18
REMARK   13  A    between atoms: C_17  and  C_19
REMARK                            x       y       z     vdW  Elec       q    Type
REMARK                         _______ _______ _______ _____ _____    ______ ____
ROOT
ATOM      1  N   UNL     1       3.564   5.924  17.496  0.00  0.00    +0.000 N 
ATOM      2  C   UNL     1       3.110   4.594  17.496  0.00  0.00    +0.000 C 
ATOM      3  O   UNL     1       3.693   3.682  16.917  0.00  0.00    +0.000 OA
ENDROOT
BRANCH   1   4
ATOM      4  C   UNL     1       2.867   6.885  18.231  0.00  0.00    +0.000 A 
ATOM      5  C   UNL     1       2.149   7.993  17.833  0.00  0.00    +0.000 A 
ATOM      6  C   UNL     1       1.628   8.606  19.012  0.00  0.00    +0.000 A 
ATOM      7  C   UNL     1       2.043   7.802  20.050  0.00  0.00    +0.000 A 
ATOM      8  O   UNL     1       2.776   6.766  19.585  0.00  0.00    +0.000 OA
BRANCH   6   9
ATOM      9  C   UNL     1       0.795   9.848  19.108  0.00  0.00    +0.000 C 
ATOM     10  C   UNL     1      -0.244   9.915  17.988  0.00  0.00    +0.000 C 
ATOM     11  C   UNL     1       0.127   9.949  20.479  0.00  0.00    +0.000 C 
ENDBRANCH   6   9
ENDBRANCH   1   4
BRANCH   1  12
ATOM     12  C   UNL     1       4.887   6.253  16.923  0.00  0.00    +0.000 C 
BRANCH  12  13
ATOM     13  C   UNL     1       5.987   6.642  17.931  0.00  0.00    +0.000 C 
BRANCH  13  15
ATOM     14  C   UNL     1       7.258   4.620  17.207  0.00  0.00    +0.000 C 
ATOM     15  C   UNL     1       7.104   5.625  18.085  0.00  0.00    +0.000 C 
ATOM     16  C   UNL     1       7.960   5.724  19.317  0.00  0.00    +0.000 C 
ENDBRANCH  13  15
ENDBRANCH  12  13
ENDBRANCH   1  12
BRANCH   2  17
ATOM     17  O   UNL     1       1.989   4.372  18.238  0.00  0.00    +0.000 OA
BRANCH  17  18
ATOM     18  C   UNL     1       1.951   3.427  19.334  0.00  0.00    +0.000 C 
ATOM     19  C   UNL     1       3.319   3.313  20.011  0.00  0.00    +0.000 C 
ATOM     20  C   UNL     1       0.951   4.025  20.338  0.00  0.00    +0.000 C 
ATOM     21  C   UNL     1       1.414   2.068  18.874  0.00  0.00    +0.000 C 
ENDBRANCH  17  18
ENDBRANCH   2  17
TORSDOF 7
ENDMDL
MODEL 7
REMARK VINA RESULT:      -6.7      3.272      5.819
REMARK  Name = 
REMARK  13 active torsions:
REMARK  status: ('A' for Active; 'I' for Inactive)
REMARK    1  A    between atoms: C_2  and  C_3
REMARK    2  A    between atoms: C_2  and  C_4
REMARK    3  A    between atoms: C_4  and  C_5
REMARK    4  A    between atoms: C_5  and  N_6
REMARK    5  A    between atoms: N_6  and  C_14
REMARK    6  A    between atoms: C_7  and  O_9
REMARK    7  A    between atoms: O_9  and  C_10
REMARK    8  A    between atoms: C_10  and  C_11
REMARK    9  A    between atoms: C_10  and  C_12
REMARK   10  A    between atoms: C_10  and  C_13
REMARK   11  A    between atoms: C_16  and  C_17
REMARK   12  A    between atoms: C_17  and  C_18
REMARK   13  A    between atoms: C_17  and  C_19
REMARK                            x       y       z     vdW  Elec       q    Type
REMARK                         _______ _______ _______ _____ _____    ______ ____
ROOT
ATOM      1  N   UNL     1       4.076   5.189  17.835  0.00  0.00    +0.000 N 
ATOM      2  C   UNL     1       3.466   3.927  17.728  0.00  0.00    +0.000 C 
ATOM      3  O   UNL     1       4.061   2.918  17.362  0.00  0.00    +0.000 OA
ENDROOT
BRANCH   1   4
ATOM      4  C   UNL     1       3.335   6.269  18.316  0.00  0.00    +0.000 A 
ATOM      5  C   UNL     1       2.710   7.310  17.661  0.00  0.00    +0.000 A 
ATOM      6  C   UNL     1       2.078   8.117  18.654  0.00  0.00    +0.000 A 
ATOM      7  C   UNL     1       2.338   7.486  19.850  0.00  0.00    +0.000 A 
ATOM      8  O   UNL     1       3.081   6.375  19.650  0.00  0.00    +0.000 OA
BRANCH   6   9
ATOM      9  C   UNL     1       1.287   9.372  18.449  0.00  0.00    +0.000 C 
ATOM     10  C   UNL     1       0.542   9.781  19.722  0.00  0.00    +0.000 C 
ATOM     11  C   UNL     1       2.184  10.506  17.954  0.00  0.00    +0.000 C 
ENDBRANCH   6   9
ENDBRANCH   1   4
BRANCH   1  12
ATOM     12  C   UNL     1       5.540   5.318  17.666  0.00  0.00    +0.000 C 
BRANCH  12  13
ATOM     13  C   UNL     1       6.055   6.704  17.230  0.00  0.00    +0.000 C 
BRANCH  13  15
ATOM     14  C   UNL     1       7.985   6.353  18.772  0.00  0.00    +0.000 C 
ATOM     15  C   UNL     1       7.350   7.143  17.891  0.00  0.00    +0.000 C 
ATOM     16  C   UNL     1       7.832   8.537  17.601  0.00  0.00    +0.000 C 
ENDBRANCH  13  15
ENDBRANCH  12  13
ENDBRANCH   1  12
BRANCH   2  17
ATOM     17  O   UNL     1       2.160   3.889  18.115  0.00  0.00    +0.000 OA
BRANCH  17  18
ATOM     18  C   UNL     1       1.703   3.112  19.249  0.00  0.00    +0.000 C 
ATOM     19  C   UNL     1       2.882   2.636  20.101  0.00  0.00    +0.000 C 
ATOM     20  C   UNL     1       0.853   4.087  20.081  0.00  0.00    +0.000 C 
ATOM     21  C   UNL     1       0.804   1.956  18.800  0.00  0.00    +0.000 C 
ENDBRANCH  17  18
ENDBRANCH   2  17
TORSDOF 7
ENDMDL
MODEL 8
REMARK VINA RESULT:      -6.7      1.067      1.436
REMARK  Name = 
REMARK  13 active torsions:
REMARK  status: ('A' for Active; 'I' for Inactive)
REMARK    1  A    between atoms: C_2  and  C_3
REMARK    2  A    between atoms: C_2  and  C_4
REMARK    3  A    between atoms: C_4  and  C_5
REMARK    4  A    between atoms: C_5  and  N_6
REMARK    5  A    between atoms: N_6  and  C_14
REMARK    6  A    between atoms: C_7  and  O_9
REMARK    7  A    between atoms: O_9  and  C_10
REMARK    8  A    between atoms: C_10  and  C_11
REMARK    9  A    between atoms: C_10  and  C_12
REMARK   10  A    between atoms: C_10  and  C_13
REMARK   11  A    between atoms: C_16  and  C_17
REMARK   12  A    between atoms: C_17  and  C_18
REMARK   13  A    between atoms: C_17  and  C_19
REMARK                            x       y       z     vdW  Elec       q    Type
REMARK                         _______ _______ _______ _____ _____    ______ ____
ROOT
ATOM      1  N   UNL     1       5.593   4.351  15.740  0.00  0.00    +0.000 N 
ATOM      2  C   UNL     1       6.889   4.524  16.255  0.00  0.00    +0.000 C 
ATOM      3  O   UNL     1       7.863   4.789  15.557  0.00  0.00    +0.000 OA
ENDROOT
BRANCH   1   4
ATOM      4  C   UNL     1       4.535   4.108  16.617  0.00  0.00    +0.000 A 
ATOM      5  C   UNL     1       4.169   2.975  17.313  0.00  0.00    +0.000 A 
ATOM      6  C   UNL     1       3.011   3.303  18.080  0.00  0.00    +0.000 A 
ATOM      7  C   UNL     1       2.771   4.634  17.819  0.00  0.00    +0.000 A 
ATOM      8  O   UNL     1       3.687   5.121  16.952  0.00  0.00    +0.000 OA
BRANCH   6   9
ATOM      9  C   UNL     1       2.227   2.406  18.988  0.00  0.00    +0.000 C 
ATOM     10  C   UNL     1       2.553   2.673  20.459  0.00  0.00    +0.000 C 
ATOM     11  C   UNL     1       0.728   2.544  18.727  0.00  0.00    +0.000 C 
ENDBRANCH   6   9
ENDBRANCH   1   4
BRANCH   1  12
ATOM     12  C   UNL     1       5.316   4.657  14.320  0.00  0.00    +0.000 C 
BRANCH  12  13
ATOM     13  C   UNL     1       5.096   3.445  13.393  0.00  0.00    +0.000 C 
BRANCH  13  15
ATOM     14  C   UNL     1       7.094   4.190  12.097  0.00  0.00    +0.000 C 
ATOM     15  C   UNL     1       6.160   3.253  12.327  0.00  0.00    +0.000 C 
ATOM     16  C   UNL     1       6.059   2.023  11.468  0.00  0.00    +0.000 C 
ENDBRANCH  13  15
ENDBRANCH  12  13
ENDBRANCH   1  12
BRANCH   2  17
ATOM     17  O   UNL     1       6.983   4.426  17.611  0.00  0.00    +0.000 OA
BRANCH  17  18
ATOM     18  C   UNL     1       6.957   5.582  18.482  0.00  0.00    +0.000 C 
ATOM     19  C   UNL     1       5.823   5.475  19.506  0.00  0.00    +0.000 C 
ATOM     20  C   UNL     1       8.301   5.547  19.228  0.00  0.00    +0.000 C 
ATOM     21  C   UNL     1       6.891   6.882  17.675  0.00  0.00    +0.000 C 
ENDBRANCH  17  18
ENDBRANCH   2  17
TORSDOF 7
ENDMDL
MODEL 9
REMARK VINA RESULT:      -6.7      3.215      5.652
REMARK  Name = 
REMARK  13 active torsions:
REMARK  status: ('A' for Active; 'I' for Inactive)
REMARK    1  A    between atoms: C_2  and  C_3
REMARK    2  A    between atoms: C_2  and  C_4
REMARK    3  A    between atoms: C_4  and  C_5
REMARK    4  A    between atoms: C_5  and  N_6
REMARK    5  A    between atoms: N_6  and  C_14
REMARK    6  A    between atoms: C_7  and  O_9
REMARK    7  A    between atoms: O_9  and  C_10
REMARK    8  A    between atoms: C_10  and  C_11
REMARK    9  A    between atoms: C_10  and  C_12
REMARK   10  A    between atoms: C_10  and  C_13
REMARK   11  A    between atoms: C_16  and  C_17
REMARK   12  A    between atoms: C_17  and  C_18
REMARK   13  A    between atoms: C_17  and  C_19
REMARK                            x       y       z     vdW  Elec       q    Type
REMARK                         _______ _______ _______ _____ _____    ______ ____
ROOT
ATOM      1  N   UNL     1       3.582   5.935  17.435  0.00  0.00    +0.000 N 
ATOM      2  C   UNL     1       3.129   4.605  17.469  0.00  0.00    +0.000 C 
ATOM      3  O   UNL     1       3.703   3.682  16.900  0.00  0.00    +0.000 OA
ENDROOT
BRANCH   1   4
ATOM      4  C   UNL     1       2.897   6.910  18.161  0.00  0.00    +0.000 A 
ATOM      5  C   UNL     1       2.227   8.047  17.756  0.00  0.00    +0.000 A 
ATOM      6  C   UNL     1       1.693   8.664  18.927  0.00  0.00    +0.000 A 
ATOM      7  C   UNL     1       2.050   7.835  19.967  0.00  0.00    +0.000 A 
ATOM      8  O   UNL     1       2.762   6.780  19.511  0.00  0.00    +0.000 OA
BRANCH   6   9
ATOM      9  C   UNL     1       0.900   9.932  19.015  0.00  0.00    +0.000 C 
ATOM     10  C   UNL     1      -0.274   9.929  18.034  0.00  0.00    +0.000 C 
ATOM     11  C   UNL     1       0.417  10.173  20.445  0.00  0.00    +0.000 C 
ENDBRANCH   6   9
ENDBRANCH   1   4
BRANCH   1  12
ATOM     12  C   UNL     1       4.896   6.253  16.835  0.00  0.00    +0.000 C 
BRANCH  12  13
ATOM     13  C   UNL     1       5.997   6.712  17.811  0.00  0.00    +0.000 C 
BRANCH  13  15
ATOM     14  C   UNL     1       7.787   5.739  19.252  0.00  0.00    +0.000 C 
ATOM     15  C   UNL     1       7.044   5.662  18.135  0.00  0.00    +0.000 C 
ATOM     16  C   UNL     1       7.291   4.596  17.104  0.00  0.00    +0.000 C 
ENDBRANCH  13  15
ENDBRANCH  12  13
ENDBRANCH   1  12
BRANCH   2  17
ATOM     17  O   UNL     1       2.019   4.399  18.233  0.00  0.00    +0.000 OA
BRANCH  17  18
ATOM     18  C   UNL     1       2.010   3.504  19.372  0.00  0.00    +0.000 C 
ATOM     19  C   UNL     1       1.019   3.980  20.438  0.00  0.00    +0.000 C 
ATOM     20  C   UNL     1       1.524   2.156  18.812  0.00  0.00    +0.000 C 
ATOM     21  C   UNL     1       3.421   3.309  19.934  0.00  0.00    +0.000 C 
ENDBRANCH  17  18
ENDBRANCH   2  17
TORSDOF 7
ENDMDL
