MODEL 1
REMARK VINA RESULT:      -8.5      0.000      0.000
REMARK  Name = 
REMARK  3 active torsions:
REMARK  status: ('A' for Active; 'I' for Inactive)
REMARK    1  A    between atoms: C_1  and  O_2
REMARK    2  A    between atoms: O_2  and  C_3
REMARK    3  A    between atoms: C_8  and  C_9
REMARK                            x       y       z     vdW  Elec       q    Type
REMARK                         _______ _______ _______ _____ _____    ______ ____
ROOT
ATOM      1  C   UNL     1       4.283   3.532  17.828  0.00  0.00    +0.000 C 
ATOM      2  O   UNL     1       3.940   2.371  17.594  0.00  0.00    +0.000 OA
ATOM      3  N   UNL     1       3.759   4.255  18.891  0.00  0.00    +0.000 N 
ATOM      4  C   UNL     1       2.869   3.614  19.844  0.00  0.00    +0.000 C 
ATOM      5  C   UNL     1       1.763   4.632  20.016  0.00  0.00    +0.000 C 
ATOM      6  C   UNL     1       1.766   5.580  21.231  0.00  0.00    +0.000 C 
ATOM      7  N   UNL     1       1.827   6.662  20.308  0.00  0.00    +0.000 N 
ATOM      8  C   UNL     1       1.566   8.031  20.433  0.00  0.00    +0.000 A 
ATOM      9  C   UNL     1       1.273   8.583  21.684  0.00  0.00    +0.000 A 
ATOM     10  N   UNL     1       0.947   9.873  21.895  0.00  0.00    +0.000 NA
ATOM     11  C   UNL     1       0.941  10.653  20.806  0.00  0.00    +0.000 A 
ATOM     12  C   UNL     1       0.602  11.990  20.958  0.00  0.00    +0.000 A 
ATOM     13  C   UNL     1       0.643  12.872  19.878  0.00  0.00    +0.000 A 
ATOM     14  C   UNL     1       1.012  12.401  18.628  0.00  0.00    +0.000 A 
ATOM     15  C   UNL     1       1.313  11.043  18.460  0.00  0.00    +0.000 A 
ATOM     16  C   UNL     1       1.282  10.146  19.527  0.00  0.00    +0.000 A 
ATOM     17  N   UNL     1       1.586   8.835  19.344  0.00  0.00    +0.000 NA
ATOM     18  C   UNL     1       2.159   5.859  19.181  0.00  0.00    +0.000 C 
ATOM     19  C   UNL     1       3.654   5.705  18.945  0.00  0.00    +0.000 C 
ENDROOT
BRANCH   1  25
ATOM     20  C   UNL     1       6.556   4.566  17.289  0.00  0.00    +0.000 A 
ATOM     21  C   UNL     1       7.424   5.088  16.319  0.00  0.00    +0.000 A 
ATOM     22  C   UNL     1       7.052   5.132  14.974  0.00  0.00    +0.000 A 
ATOM     23  C   UNL     1       5.798   4.677  14.581  0.00  0.00    +0.000 A 
ATOM     24  C   UNL     1       4.907   4.197  15.541  0.00  0.00    +0.000 A 
ATOM     25  C   UNL     1       5.269   4.154  16.899  0.00  0.00    +0.000 A 
BRANCH  20  27
ATOM     26  C   UNL     1       7.359   5.608  19.266  0.00  0.00    +0.000 C 
ATOM     27  O   UNL     1       6.905   4.431  18.607  0.00  0.00    +0.000 OA
ENDBRANCH  20  27
ENDBRANCH   1  25
TORSDOF 2
ENDMDL
MODEL 2
REMARK VINA RESULT:      -7.3      5.119      8.136
REMARK  Name = 
REMARK  3 active torsions:
REMARK  status: ('A' for Active; 'I' for Inactive)
REMARK    1  A    between atoms: C_1  and  O_2
REMARK    2  A    between atoms: O_2  and  C_3
REMARK    3  A    between atoms: C_8  and  C_9
REMARK                            x       y       z     vdW  Elec       q    Type
REMARK                         _______ _______ _______ _____ _____    ______ ____
ROOT
ATOM      1  C   UNL     1      -0.152  10.725  18.985  0.00  0.00    +0.000 C 
ATOM      2  O   UNL     1      -1.243  10.489  18.462  0.00  0.00    +0.000 OA
ATOM      3  N   UNL     1       0.246  12.014  19.310  0.00  0.00    +0.000 N 
ATOM      4  C   UNL     1      -0.675  13.126  19.151  0.00  0.00    +0.000 C 
ATOM      5  C   UNL     1       0.182  14.189  18.496  0.00  0.00    +0.000 C 
ATOM      6  C   UNL     1       0.801  15.315  19.346  0.00  0.00    +0.000 C 
ATOM      7  N   UNL     1       2.077  14.849  18.921  0.00  0.00    +0.000 N 
ATOM      8  C   UNL     1       3.350  15.431  18.928  0.00  0.00    +0.000 A 
ATOM      9  C   UNL     1       3.554  16.674  19.532  0.00  0.00    +0.000 A 
ATOM     10  N   UNL     1       4.724  17.343  19.533  0.00  0.00    +0.000 NA
ATOM     11  C   UNL     1       5.744  16.723  18.925  0.00  0.00    +0.000 A 
ATOM     12  C   UNL     1       6.973  17.365  18.884  0.00  0.00    +0.000 A 
ATOM     13  C   UNL     1       8.093  16.748  18.328  0.00  0.00    +0.000 A 
ATOM     14  C   UNL     1       7.972  15.475  17.791  0.00  0.00    +0.000 A 
ATOM     15  C   UNL     1       6.723  14.840  17.791  0.00  0.00    +0.000 A 
ATOM     16  C   UNL     1       5.593  15.438  18.345  0.00  0.00    +0.000 A 
ATOM     17  N   UNL     1       4.394  14.800  18.342  0.00  0.00    +0.000 NA
ATOM     18  C   UNL     1       1.602  13.613  18.401  0.00  0.00    +0.000 C 
ATOM     19  C   UNL     1       1.627  12.465  19.400  0.00  0.00    +0.000 C 
ENDROOT
BRANCH   1  25
ATOM     20  C   UNL     1       0.775   8.836  20.433  0.00  0.00    +0.000 A 
ATOM     21  C   UNL     1       1.627   7.726  20.537  0.00  0.00    +0.000 A 
ATOM     22  C   UNL     1       2.387   7.302  19.445  0.00  0.00    +0.000 A 
ATOM     23  C   UNL     1       2.326   7.994  18.241  0.00  0.00    +0.000 A 
ATOM     24  C   UNL     1       1.518   9.126  18.137  0.00  0.00    +0.000 A 
ATOM     25  C   UNL     1       0.753   9.566  19.231  0.00  0.00    +0.000 A 
BRANCH  20  27
ATOM     26  C   UNL     1       0.567   9.445  22.719  0.00  0.00    +0.000 C 
ATOM     27  O   UNL     1      -0.048   9.241  21.451  0.00  0.00    +0.000 OA
ENDBRANCH  20  27
ENDBRANCH   1  25
TORSDOF 2
ENDMDL
MODEL 3
REMARK VINA RESULT:      -7.2      6.320      9.846
REMARK  Name = 
REMARK  3 active torsions:
REMARK  status: ('A' for Active; 'I' for Inactive)
REMARK    1  A    between atoms: C_1  and  O_2
REMARK    2  A    between atoms: O_2  and  C_3
REMARK    3  A    between atoms: C_8  and  C_9
REMARK                            x       y       z     vdW  Elec       q    Type
REMARK                         _______ _______ _______ _____ _____    ______ ____
ROOT
ATOM      1  C   UNL     1       0.734  13.345  18.994  0.00  0.00    +0.000 C 
ATOM      2  O   UNL     1      -0.328  13.633  18.437  0.00  0.00    +0.000 OA
ATOM      3  N   UNL     1       1.783  14.249  19.092  0.00  0.00    +0.000 N 
ATOM      4  C   UNL     1       1.612  15.619  18.641  0.00  0.00    +0.000 C 
ATOM      5  C   UNL     1       2.885  15.885  17.866  0.00  0.00    +0.000 C 
ATOM      6  C   UNL     1       4.049  16.647  18.528  0.00  0.00    +0.000 C 
ATOM      7  N   UNL     1       4.847  15.489  18.312  0.00  0.00    +0.000 N 
ATOM      8  C   UNL     1       6.231  15.277  18.312  0.00  0.00    +0.000 A 
ATOM      9  C   UNL     1       7.103  16.306  18.677  0.00  0.00    +0.000 A 
ATOM     10  N   UNL     1       8.447  16.219  18.646  0.00  0.00    +0.000 NA
ATOM     11  C   UNL     1       8.941  15.035  18.260  0.00  0.00    +0.000 A 
ATOM     12  C   UNL     1      10.318  14.887  18.198  0.00  0.00    +0.000 A 
ATOM     13  C   UNL     1      10.899  13.661  17.869  0.00  0.00    +0.000 A 
ATOM     14  C   UNL     1      10.084  12.577  17.583  0.00  0.00    +0.000 A 
ATOM     15  C   UNL     1       8.691  12.734  17.602  0.00  0.00    +0.000 A 
ATOM     16  C   UNL     1       8.092  13.948  17.931  0.00  0.00    +0.000 A 
ATOM     17  N   UNL     1       6.740  14.075  17.951  0.00  0.00    +0.000 NA
ATOM     18  C   UNL     1       3.757  14.628  18.006  0.00  0.00    +0.000 C 
ATOM     19  C   UNL     1       3.188  13.889  19.209  0.00  0.00    +0.000 C 
ENDROOT
BRANCH   1  25
ATOM     20  C   UNL     1       0.709  11.642  20.897  0.00  0.00    +0.000 A 
ATOM     21  C   UNL     1       0.801  10.299  21.292  0.00  0.00    +0.000 A 
ATOM     22  C   UNL     1       0.973   9.285  20.347  0.00  0.00    +0.000 A 
ATOM     23  C   UNL     1       1.079   9.599  18.997  0.00  0.00    +0.000 A 
ATOM     24  C   UNL     1       1.035  10.934  18.595  0.00  0.00    +0.000 A 
ATOM     25  C   UNL     1       0.868  11.964  19.537  0.00  0.00    +0.000 A 
BRANCH  20  27
ATOM     26  C   UNL     1      -0.802  12.643  22.432  0.00  0.00    +0.000 C 
ATOM     27  O   UNL     1       0.463  12.662  21.778  0.00  0.00    +0.000 OA
ENDBRANCH  20  27
ENDBRANCH   1  25
TORSDOF 2
ENDMDL
MODEL 4
REMARK VINA RESULT:      -6.9      3.166      8.061
REMARK  Name = 
REMARK  3 active torsions:
REMARK  status: ('A' for Active; 'I' for Inactive)
REMARK    1  A    between atoms: C_1  and  O_2
REMARK    2  A    between atoms: O_2  and  C_3
REMARK    3  A    between atoms: C_8  and  C_9
REMARK                            x       y       z     vdW  Elec       q    Type
REMARK                         _______ _______ _______ _____ _____    ______ ____
ROOT
ATOM      1  C   UNL     1       0.425  10.644  21.068  0.00  0.00    +0.000 C 
ATOM      2  O   UNL     1       0.211  10.977  22.235  0.00  0.00    +0.000 OA
ATOM      3  N   UNL     1       0.494   9.312  20.682  0.00  0.00    +0.000 N 
ATOM      4  C   UNL     1       0.192   8.259  21.636  0.00  0.00    +0.000 C 
ATOM      5  C   UNL     1       1.304   7.258  21.402  0.00  0.00    +0.000 C 
ATOM      6  C   UNL     1       1.057   6.016  20.524  0.00  0.00    +0.000 C 
ATOM      7  N   UNL     1       2.092   6.491  19.670  0.00  0.00    +0.000 N 
ATOM      8  C   UNL     1       2.860   5.872  18.677  0.00  0.00    +0.000 A 
ATOM      9  C   UNL     1       2.587   4.558  18.290  0.00  0.00    +0.000 A 
ATOM     10  N   UNL     1       3.308   3.857  17.392  0.00  0.00    +0.000 NA
ATOM     11  C   UNL     1       4.335   4.515  16.837  0.00  0.00    +0.000 A 
ATOM     12  C   UNL     1       5.121   3.844  15.913  0.00  0.00    +0.000 A 
ATOM     13  C   UNL     1       6.163   4.490  15.247  0.00  0.00    +0.000 A 
ATOM     14  C   UNL     1       6.427   5.822  15.526  0.00  0.00    +0.000 A 
ATOM     15  C   UNL     1       5.663   6.492  16.490  0.00  0.00    +0.000 A 
ATOM     16  C   UNL     1       4.615   5.866  17.163  0.00  0.00    +0.000 A 
ATOM     17  N   UNL     1       3.882   6.537  18.088  0.00  0.00    +0.000 NA
ATOM     18  C   UNL     1       2.143   7.796  20.234  0.00  0.00    +0.000 C 
ATOM     19  C   UNL     1       1.245   8.811  19.541  0.00  0.00    +0.000 C 
ENDROOT
BRANCH   1  25
ATOM     20  C   UNL     1      -0.335  12.161  19.158  0.00  0.00    +0.000 A 
ATOM     21  C   UNL     1      -0.043  13.236  18.305  0.00  0.00    +0.000 A 
ATOM     22  C   UNL     1       1.167  13.924  18.409  0.00  0.00    +0.000 A 
ATOM     23  C   UNL     1       2.113  13.534  19.351  0.00  0.00    +0.000 A 
ATOM     24  C   UNL     1       1.855  12.439  20.175  0.00  0.00    +0.000 A 
ATOM     25  C   UNL     1       0.643  11.734  20.074  0.00  0.00    +0.000 A 
BRANCH  20  27
ATOM     26  C   UNL     1      -1.777  10.639  18.041  0.00  0.00    +0.000 C 
ATOM     27  O   UNL     1      -1.539  11.505  19.146  0.00  0.00    +0.000 OA
ENDBRANCH  20  27
ENDBRANCH   1  25
TORSDOF 2
ENDMDL
MODEL 5
REMARK VINA RESULT:      -6.8      5.545      9.063
REMARK  Name = 
REMARK  3 active torsions:
REMARK  status: ('A' for Active; 'I' for Inactive)
REMARK    1  A    between atoms: C_1  and  O_2
REMARK    2  A    between atoms: O_2  and  C_3
REMARK    3  A    between atoms: C_8  and  C_9
REMARK                            x       y       z     vdW  Elec       q    Type
REMARK                         _______ _______ _______ _____ _____    ______ ____
ROOT
ATOM      1  C   UNL     1      -0.964  12.005  20.177  0.00  0.00    +0.000 C 
ATOM      2  O   UNL     1      -2.104  11.880  19.726  0.00  0.00    +0.000 OA
ATOM      3  N   UNL     1      -0.314  13.231  20.208  0.00  0.00    +0.000 N 
ATOM      4  C   UNL     1      -1.016  14.441  19.814  0.00  0.00    +0.000 C 
ATOM      5  C   UNL     1      -0.006  15.150  18.937  0.00  0.00    +0.000 C 
ATOM      6  C   UNL     1       0.855  16.290  19.514  0.00  0.00    +0.000 C 
ATOM      7  N   UNL     1       1.998  15.504  19.195  0.00  0.00    +0.000 N 
ATOM      8  C   UNL     1       3.357  15.814  19.066  0.00  0.00    +0.000 A 
ATOM      9  C   UNL     1       3.821  17.094  19.381  0.00  0.00    +0.000 A 
ATOM     10  N   UNL     1       5.095  17.506  19.228  0.00  0.00    +0.000 NA
ATOM     11  C   UNL     1       5.949  16.583  18.765  0.00  0.00    +0.000 A 
ATOM     12  C   UNL     1       7.273  16.950  18.576  0.00  0.00    +0.000 A 
ATOM     13  C   UNL     1       8.228  16.021  18.162  0.00  0.00    +0.000 A 
ATOM     14  C   UNL     1       7.843  14.712  17.919  0.00  0.00    +0.000 A 
ATOM     15  C   UNL     1       6.498  14.347  18.066  0.00  0.00    +0.000 A 
ATOM     16  C   UNL     1       5.530  15.259  18.482  0.00  0.00    +0.000 A 
ATOM     17  N   UNL     1       4.234  14.881  18.626  0.00  0.00    +0.000 NA
ATOM     18  C   UNL     1       1.273  14.302  18.962  0.00  0.00    +0.000 C 
ATOM     19  C   UNL     1       1.129  13.412  20.189  0.00  0.00    +0.000 C 
ENDROOT
BRANCH   1  25
ATOM     20  C   UNL     1       0.544   9.968  19.863  0.00  0.00    +0.000 A 
ATOM     21  C   UNL     1       1.183   8.861  20.442  0.00  0.00    +0.000 A 
ATOM     22  C   UNL     1       1.063   8.598  21.808  0.00  0.00    +0.000 A 
ATOM     23  C   UNL     1       0.285   9.424  22.612  0.00  0.00    +0.000 A 
ATOM     24  C   UNL     1      -0.392  10.502  22.042  0.00  0.00    +0.000 A 
ATOM     25  C   UNL     1      -0.283  10.772  20.667  0.00  0.00    +0.000 A 
BRANCH  20  27
ATOM     26  C   UNL     1       1.722   9.632  17.828  0.00  0.00    +0.000 C 
ATOM     27  O   UNL     1       0.696  10.310  18.545  0.00  0.00    +0.000 OA
ENDBRANCH  20  27
ENDBRANCH   1  25
TORSDOF 2
ENDMDL
MODEL 6
REMARK VINA RESULT:      -6.8      2.628      4.825
REMARK  Name = 
REMARK  3 active torsions:
REMARK  status: ('A' for Active; 'I' for Inactive)
REMARK    1  A    between atoms: C_1  and  O_2
REMARK    2  A    between atoms: O_2  and  C_3
REMARK    3  A    between atoms: C_8  and  C_9
REMARK                            x       y       z     vdW  Elec       q    Type
REMARK                         _______ _______ _______ _____ _____    ______ ____
ROOT
ATOM      1  C   UNL     1       3.188   5.362  18.766  0.00  0.00    +0.000 C 
ATOM      2  O   UNL     1       4.345   5.103  18.430  0.00  0.00    +0.000 OA
ATOM      3  N   UNL     1       2.554   6.536  18.380  0.00  0.00    +0.000 N 
ATOM      4  C   UNL     1       3.205   7.449  17.457  0.00  0.00    +0.000 C 
ATOM      5  C   UNL     1       2.962   8.803  18.089  0.00  0.00    +0.000 C 
ATOM      6  C   UNL     1       1.818   9.701  17.580  0.00  0.00    +0.000 C 
ATOM      7  N   UNL     1       1.268   9.637  18.891  0.00  0.00    +0.000 N 
ATOM      8  C   UNL     1       0.314  10.415  19.558  0.00  0.00    +0.000 A 
ATOM      9  C   UNL     1      -0.377  11.421  18.878  0.00  0.00    +0.000 A 
ATOM     10  N   UNL     1      -1.264  12.261  19.447  0.00  0.00    +0.000 NA
ATOM     11  C   UNL     1      -1.490  12.064  20.753  0.00  0.00    +0.000 A 
ATOM     12  C   UNL     1      -2.385  12.904  21.398  0.00  0.00    +0.000 A 
ATOM     13  C   UNL     1      -2.718  12.712  22.739  0.00  0.00    +0.000 A 
ATOM     14  C   UNL     1      -2.131  11.673  23.444  0.00  0.00    +0.000 A 
ATOM     15  C   UNL     1      -1.193  10.848  22.808  0.00  0.00    +0.000 A 
ATOM     16  C   UNL     1      -0.849  11.021  21.469  0.00  0.00    +0.000 A 
ATOM     17  N   UNL     1       0.056  10.205  20.870  0.00  0.00    +0.000 NA
ATOM     18  C   UNL     1       2.089   8.561  19.329  0.00  0.00    +0.000 C 
ATOM     19  C   UNL     1       1.478   7.184  19.114  0.00  0.00    +0.000 C 
ENDROOT
BRANCH   1  25
ATOM     20  C   UNL     1       1.810   3.246  19.150  0.00  0.00    +0.000 A 
ATOM     21  C   UNL     1       1.239   2.349  20.065  0.00  0.00    +0.000 A 
ATOM     22  C   UNL     1       1.403   2.527  21.440  0.00  0.00    +0.000 A 
ATOM     23  C   UNL     1       2.121   3.616  21.922  0.00  0.00    +0.000 A 
ATOM     24  C   UNL     1       2.656   4.540  21.025  0.00  0.00    +0.000 A 
ATOM     25  C   UNL     1       2.492   4.374  19.639  0.00  0.00    +0.000 A 
BRANCH  20  27
ATOM     26  C   UNL     1       2.687   2.171  17.222  0.00  0.00    +0.000 C 
ATOM     27  O   UNL     1       1.742   3.070  17.792  0.00  0.00    +0.000 OA
ENDBRANCH  20  27
ENDBRANCH   1  25
TORSDOF 2
ENDMDL
MODEL 7
REMARK VINA RESULT:      -6.6      5.740      9.015
REMARK  Name = 
REMARK  3 active torsions:
REMARK  status: ('A' for Active; 'I' for Inactive)
REMARK    1  A    between atoms: C_1  and  O_2
REMARK    2  A    between atoms: O_2  and  C_3
REMARK    3  A    between atoms: C_8  and  C_9
REMARK                            x       y       z     vdW  Elec       q    Type
REMARK                         _______ _______ _______ _____ _____    ______ ____
ROOT
ATOM      1  C   UNL     1      -0.144  12.024  19.122  0.00  0.00    +0.000 C 
ATOM      2  O   UNL     1      -1.268  11.975  18.619  0.00  0.00    +0.000 OA
ATOM      3  N   UNL     1       0.459  13.228  19.462  0.00  0.00    +0.000 N 
ATOM      4  C   UNL     1      -0.278  14.474  19.346  0.00  0.00    +0.000 C 
ATOM      5  C   UNL     1       0.723  15.403  18.693  0.00  0.00    +0.000 C 
ATOM      6  C   UNL     1       1.529  16.398  19.551  0.00  0.00    +0.000 C 
ATOM      7  N   UNL     1       2.707  15.746  19.089  0.00  0.00    +0.000 N 
ATOM      8  C   UNL     1       4.056  16.120  19.078  0.00  0.00    +0.000 A 
ATOM      9  C   UNL     1       4.465  17.302  19.702  0.00  0.00    +0.000 A 
ATOM     10  N   UNL     1       5.726  17.778  19.690  0.00  0.00    +0.000 NA
ATOM     11  C   UNL     1       6.624  17.019  19.048  0.00  0.00    +0.000 A 
ATOM     12  C   UNL     1       7.937  17.461  18.992  0.00  0.00    +0.000 A 
ATOM     13  C   UNL     1       8.935  16.687  18.398  0.00  0.00    +0.000 A 
ATOM     14  C   UNL     1       8.604  15.463  17.839  0.00  0.00    +0.000 A 
ATOM     15  C   UNL     1       7.271  15.032  17.854  0.00  0.00    +0.000 A 
ATOM     16  C   UNL     1       6.261  15.788  18.446  0.00  0.00    +0.000 A 
ATOM     17  N   UNL     1       4.976  15.347  18.457  0.00  0.00    +0.000 NA
ATOM     18  C   UNL     1       2.033  14.613  18.555  0.00  0.00    +0.000 C 
ATOM     19  C   UNL     1       1.895  13.453  19.531  0.00  0.00    +0.000 C 
ENDROOT
BRANCH   1  25
ATOM     20  C   UNL     1       0.494   9.976  20.508  0.00  0.00    +0.000 A 
ATOM     21  C   UNL     1       1.163   8.745  20.571  0.00  0.00    +0.000 A 
ATOM     22  C   UNL     1       1.833   8.236  19.457  0.00  0.00    +0.000 A 
ATOM     23  C   UNL     1       1.866   8.960  18.270  0.00  0.00    +0.000 A 
ATOM     24  C   UNL     1       1.244  10.207  18.207  0.00  0.00    +0.000 A 
ATOM     25  C   UNL     1       0.571  10.732  19.325  0.00  0.00    +0.000 A 
BRANCH  20  27
ATOM     26  C   UNL     1      -0.175   9.759  22.776  0.00  0.00    +0.000 C 
ATOM     27  O   UNL     1      -0.241  10.479  21.550  0.00  0.00    +0.000 OA
ENDBRANCH  20  27
ENDBRANCH   1  25
TORSDOF 2
ENDMDL
MODEL 8
REMARK VINA RESULT:      -6.4      1.458      2.358
REMARK  Name = 
REMARK  3 active torsions:
REMARK  status: ('A' for Active; 'I' for Inactive)
REMARK    1  A    between atoms: C_1  and  O_2
REMARK    2  A    between atoms: O_2  and  C_3
REMARK    3  A    between atoms: C_8  and  C_9
REMARK                            x       y       z     vdW  Elec       q    Type
REMARK                         _______ _______ _______ _____ _____    ______ ____
ROOT
ATOM      1  C   UNL     1       4.983   4.625  18.375  0.00  0.00    +0.000 C 
ATOM      2  O   UNL     1       4.927   3.628  17.651  0.00  0.00    +0.000 OA
ATOM      3  N   UNL     1       3.988   4.922  19.297  0.00  0.00    +0.000 N 
ATOM      4  C   UNL     1       2.899   3.989  19.524  0.00  0.00    +0.000 C 
ATOM      5  C   UNL     1       1.680   4.887  19.546  0.00  0.00    +0.000 C 
ATOM      6  C   UNL     1       1.074   5.335  20.890  0.00  0.00    +0.000 C 
ATOM      7  N   UNL     1       1.335   6.675  20.489  0.00  0.00    +0.000 N 
ATOM      8  C   UNL     1       0.854   7.911  20.939  0.00  0.00    +0.000 A 
ATOM      9  C   UNL     1       0.022   7.978  22.059  0.00  0.00    +0.000 A 
ATOM     10  N   UNL     1      -0.542   9.109  22.528  0.00  0.00    +0.000 NA
ATOM     11  C   UNL     1      -0.232  10.229  21.860  0.00  0.00    +0.000 A 
ATOM     12  C   UNL     1      -0.790  11.424  22.289  0.00  0.00    +0.000 A 
ATOM     13  C   UNL     1      -0.457  12.635  21.681  0.00  0.00    +0.000 A 
ATOM     14  C   UNL     1       0.433  12.641  20.619  0.00  0.00    +0.000 A 
ATOM     15  C   UNL     1       0.966  11.431  20.154  0.00  0.00    +0.000 A 
ATOM     16  C   UNL     1       0.649  10.212  20.750  0.00  0.00    +0.000 A 
ATOM     17  N   UNL     1       1.183   9.052  20.289  0.00  0.00    +0.000 NA
ATOM     18  C   UNL     1       2.191   6.328  19.408  0.00  0.00    +0.000 C 
ATOM     19  C   UNL     1       3.666   6.257  19.777  0.00  0.00    +0.000 C 
ENDROOT
BRANCH   1  25
ATOM     20  C   UNL     1       6.273   6.458  17.150  0.00  0.00    +0.000 A 
ATOM     21  C   UNL     1       7.392   7.303  17.115  0.00  0.00    +0.000 A 
ATOM     22  C   UNL     1       8.337   7.284  18.143  0.00  0.00    +0.000 A 
ATOM     23  C   UNL     1       8.191   6.403  19.209  0.00  0.00    +0.000 A 
ATOM     24  C   UNL     1       7.108   5.525  19.234  0.00  0.00    +0.000 A 
ATOM     25  C   UNL     1       6.153   5.531  18.201  0.00  0.00    +0.000 A 
BRANCH  20  27
ATOM     26  C   UNL     1       5.504   5.737  15.022  0.00  0.00    +0.000 C 
ATOM     27  O   UNL     1       5.280   6.495  16.206  0.00  0.00    +0.000 OA
ENDBRANCH  20  27
ENDBRANCH   1  25
TORSDOF 2
ENDMDL
MODEL 9
REMARK VINA RESULT:      -6.4      4.377      8.817
REMARK  Name = 
REMARK  3 active torsions:
REMARK  status: ('A' for Active; 'I' for Inactive)
REMARK    1  A    between atoms: C_1  and  O_2
REMARK    2  A    between atoms: O_2  and  C_3
REMARK    3  A    between atoms: C_8  and  C_9
REMARK                            x       y       z     vdW  Elec       q    Type
REMARK                         _______ _______ _______ _____ _____    ______ ____
ROOT
ATOM      1  C   UNL     1      -1.350  11.695  19.392  0.00  0.00    +0.000 C 
ATOM      2  O   UNL     1      -1.098  12.888  19.569  0.00  0.00    +0.000 OA
ATOM      3  N   UNL     1      -0.764  10.696  20.159  0.00  0.00    +0.000 N 
ATOM      4  C   UNL     1       0.084  11.043  21.286  0.00  0.00    +0.000 C 
ATOM      5  C   UNL     1       1.266  10.110  21.123  0.00  0.00    +0.000 C 
ATOM      6  C   UNL     1       1.345   8.810  21.947  0.00  0.00    +0.000 C 
ATOM      7  N   UNL     1       1.357   8.102  20.713  0.00  0.00    +0.000 N 
ATOM      8  C   UNL     1       1.720   6.793  20.374  0.00  0.00    +0.000 A 
ATOM      9  C   UNL     1       2.065   5.876  21.371  0.00  0.00    +0.000 A 
ATOM     10  N   UNL     1       2.490   4.618  21.141  0.00  0.00    +0.000 NA
ATOM     11  C   UNL     1       2.543   4.253  19.853  0.00  0.00    +0.000 A 
ATOM     12  C   UNL     1       2.983   2.972  19.551  0.00  0.00    +0.000 A 
ATOM     13  C   UNL     1       2.998   2.505  18.237  0.00  0.00    +0.000 A 
ATOM     14  C   UNL     1       2.583   3.341  17.212  0.00  0.00    +0.000 A 
ATOM     15  C   UNL     1       2.180   4.650  17.507  0.00  0.00    +0.000 A 
ATOM     16  C   UNL     1       2.153   5.135  18.814  0.00  0.00    +0.000 A 
ATOM     17  N   UNL     1       1.751   6.404  19.078  0.00  0.00    +0.000 NA
ATOM     18  C   UNL     1       0.955   9.210  19.918  0.00  0.00    +0.000 C 
ATOM     19  C   UNL     1      -0.550   9.325  19.722  0.00  0.00    +0.000 C 
ENDROOT
BRANCH   1  25
ATOM     20  C   UNL     1      -3.673  11.629  18.332  0.00  0.00    +0.000 A 
ATOM     21  C   UNL     1      -4.462  11.314  17.216  0.00  0.00    +0.000 A 
ATOM     22  C   UNL     1      -3.884  10.802  16.052  0.00  0.00    +0.000 A 
ATOM     23  C   UNL     1      -2.513  10.575  15.995  0.00  0.00    +0.000 A 
ATOM     24  C   UNL     1      -1.724  10.841  17.113  0.00  0.00    +0.000 A 
ATOM     25  C   UNL     1      -2.295  11.351  18.292  0.00  0.00    +0.000 A 
BRANCH  20  27
ATOM     26  C   UNL     1      -5.573  12.009  19.705  0.00  0.00    +0.000 C 
ATOM     27  O   UNL     1      -4.184  12.205  19.466  0.00  0.00    +0.000 OA
ENDBRANCH  20  27
ENDBRANCH   1  25
TORSDOF 2
ENDMDL
