MODEL 1
REMARK VINA RESULT:      -7.2      0.000      0.000
REMARK  Name = 
REMARK  4 active torsions:
REMARK  status: ('A' for Active; 'I' for Inactive)
REMARK    1  A    between atoms: N_3  and  C_4
REMARK    2  A    between atoms: C_4  and  C_5
REMARK    3  A    between atoms: N_7  and  C_8
REMARK    4  A    between atoms: N_15  and  C_16
REMARK                            x       y       z     vdW  Elec       q    Type
REMARK                         _______ _______ _______ _____ _____    ______ ____
ROOT
ATOM      1  O   UNL     1       4.271   4.832  18.445  0.00  0.00    +0.000 OA
ATOM      2  C   UNL     1       5.083   3.962  18.737  0.00  0.00    +0.000 C 
ATOM      3  N   UNL     1       6.418   4.040  18.455  0.00  0.00    +0.000 N 
ATOM      4  N   UNL     1       4.747   2.771  19.322  0.00  0.00    +0.000 N 
ATOM      5  H   UNL     1       7.056   3.486  19.002  0.00  0.00    +0.000 HD
ATOM      6  H   UNL     1       5.486   2.135  19.579  0.00  0.00    +0.000 HD
ENDROOT
BRANCH   4   7
ATOM      7  C   UNL     1       3.374   2.436  19.693  0.00  0.00    +0.000 C 
ATOM      8  C   UNL     1       2.438   2.451  18.481  0.00  0.00    +0.000 C 
ATOM      9  C   UNL     1       1.002   2.204  18.924  0.00  0.00    +0.000 C 
ATOM     10  O   UNL     1       0.602   3.160  19.907  0.00  0.00    +0.000 OA
ATOM     11  C   UNL     1       1.400   3.088  21.087  0.00  0.00    +0.000 C 
ATOM     12  C   UNL     1       2.855   3.396  20.765  0.00  0.00    +0.000 C 
ENDBRANCH   4   7
BRANCH   3  13
ATOM     13  C   UNL     1       6.976   5.195  17.779  0.00  0.00    +0.000 C 
BRANCH  13  14
ATOM     14  C   UNL     1       6.919   4.999  16.309  0.00  0.00    +0.000 A 
ATOM     15  C   UNL     1       6.244   4.049  15.577  0.00  0.00    +0.000 A 
ATOM     16  N   UNL     1       6.546   4.322  14.263  0.00  0.00    +0.000 N 
ATOM     17  N   UNL     1       7.381   5.392  14.214  0.00  0.00    +0.000 NA
ATOM     18  N   UNL     1       7.609   5.811  15.452  0.00  0.00    +0.000 NA
BRANCH  16  19
ATOM     19  C   UNL     1       6.086   3.625  13.109  0.00  0.00    +0.000 A 
ATOM     20  C   UNL     1       4.758   3.696  12.585  0.00  0.00    +0.000 A 
ATOM     21  C   UNL     1       4.603   2.918  11.459  0.00  0.00    +0.000 A 
ATOM     22  S   UNL     1       6.045   2.101  11.036  0.00  0.00    +0.000 S 
ATOM     23  C   UNL     1       6.889   2.792  12.355  0.00  0.00    +0.000 A 
ENDBRANCH  16  19
ENDBRANCH  13  14
ENDBRANCH   3  13
TORSDOF 4
ENDMDL
MODEL 2
REMARK VINA RESULT:      -7.2      0.957      1.466
REMARK  Name = 
REMARK  4 active torsions:
REMARK  status: ('A' for Active; 'I' for Inactive)
REMARK    1  A    between atoms: N_3  and  C_4
REMARK    2  A    between atoms: C_4  and  C_5
REMARK    3  A    between atoms: N_7  and  C_8
REMARK    4  A    between atoms: N_15  and  C_16
REMARK                            x       y       z     vdW  Elec       q    Type
REMARK                         _______ _______ _______ _____ _____    ______ ____
ROOT
ATOM      1  O   UNL     1       4.966   5.638  18.760  0.00  0.00    +0.000 OA
ATOM      2  C   UNL     1       5.367   4.479  18.788  0.00  0.00    +0.000 C 
ATOM      3  N   UNL     1       6.509   4.054  18.171  0.00  0.00    +0.000 N 
ATOM      4  N   UNL     1       4.687   3.451  19.384  0.00  0.00    +0.000 N 
ATOM      5  H   UNL     1       6.949   3.212  18.505  0.00  0.00    +0.000 HD
ATOM      6  H   UNL     1       5.117   2.539  19.408  0.00  0.00    +0.000 HD
ENDROOT
BRANCH   4   7
ATOM      7  C   UNL     1       3.419   3.647  20.084  0.00  0.00    +0.000 C 
ATOM      8  C   UNL     1       3.174   2.558  21.131  0.00  0.00    +0.000 C 
ATOM      9  C   UNL     1       1.799   2.735  21.761  0.00  0.00    +0.000 C 
ATOM     10  O   UNL     1       0.779   2.739  20.762  0.00  0.00    +0.000 OA
ATOM     11  C   UNL     1       0.934   3.812  19.835  0.00  0.00    +0.000 C 
ATOM     12  C   UNL     1       2.256   3.687  19.091  0.00  0.00    +0.000 C 
ENDBRANCH   4   7
BRANCH   3  13
ATOM     13  C   UNL     1       7.349   4.974  17.429  0.00  0.00    +0.000 C 
BRANCH  13  14
ATOM     14  C   UNL     1       7.107   4.820  15.973  0.00  0.00    +0.000 A 
ATOM     15  C   UNL     1       6.328   3.900  15.306  0.00  0.00    +0.000 A 
ATOM     16  N   UNL     1       6.470   4.205  13.972  0.00  0.00    +0.000 N 
ATOM     17  N   UNL     1       7.313   5.262  13.847  0.00  0.00    +0.000 NA
ATOM     18  N   UNL     1       7.701   5.643  15.057  0.00  0.00    +0.000 NA
BRANCH  16  19
ATOM     19  C   UNL     1       5.858   3.548  12.867  0.00  0.00    +0.000 A 
ATOM     20  C   UNL     1       6.459   2.500  12.102  0.00  0.00    +0.000 A 
ATOM     21  C   UNL     1       5.633   2.055  11.094  0.00  0.00    +0.000 A 
ATOM     22  S   UNL     1       4.143   2.895  11.063  0.00  0.00    +0.000 S 
ATOM     23  C   UNL     1       4.594   3.856  12.406  0.00  0.00    +0.000 A 
ENDBRANCH  16  19
ENDBRANCH  13  14
ENDBRANCH   3  13
TORSDOF 4
ENDMDL
MODEL 3
REMARK VINA RESULT:      -7.1      5.455      8.386
REMARK  Name = 
REMARK  4 active torsions:
REMARK  status: ('A' for Active; 'I' for Inactive)
REMARK    1  A    between atoms: N_3  and  C_4
REMARK    2  A    between atoms: C_4  and  C_5
REMARK    3  A    between atoms: N_7  and  C_8
REMARK    4  A    between atoms: N_15  and  C_16
REMARK                            x       y       z     vdW  Elec       q    Type
REMARK                         _______ _______ _______ _____ _____    ______ ____
ROOT
ATOM      1  O   UNL     1       7.677   9.645  17.556  0.00  0.00    +0.000 OA
ATOM      2  C   UNL     1       8.322   8.931  18.316  0.00  0.00    +0.000 C 
ATOM      3  N   UNL     1       8.257   7.565  18.317  0.00  0.00    +0.000 N 
ATOM      4  N   UNL     1       9.137   9.411  19.306  0.00  0.00    +0.000 N 
ATOM      5  H   UNL     1       9.030   7.050  18.704  0.00  0.00    +0.000 HD
ATOM      6  H   UNL     1       9.674   8.752  19.849  0.00  0.00    +0.000 HD
ENDROOT
BRANCH   4   7
ATOM      7  C   UNL     1       9.348  10.839  19.528  0.00  0.00    +0.000 C 
ATOM      8  C   UNL     1      10.646  11.330  18.881  0.00  0.00    +0.000 C 
ATOM      9  C   UNL     1      10.883  12.795  19.226  0.00  0.00    +0.000 C 
ATOM     10  O   UNL     1      10.897  12.987  20.641  0.00  0.00    +0.000 OA
ATOM     11  C   UNL     1       9.657  12.631  21.248  0.00  0.00    +0.000 C 
ATOM     12  C   UNL     1       9.359  11.156  21.025  0.00  0.00    +0.000 C 
ENDBRANCH   4   7
BRANCH   3  13
ATOM     13  C   UNL     1       7.402   6.854  17.387  0.00  0.00    +0.000 C 
BRANCH  13  14
ATOM     14  C   UNL     1       6.491   5.947  18.127  0.00  0.00    +0.000 A 
ATOM     15  C   UNL     1       5.194   5.583  17.843  0.00  0.00    +0.000 A 
ATOM     16  N   UNL     1       4.824   4.733  18.859  0.00  0.00    +0.000 N 
ATOM     17  N   UNL     1       5.861   4.604  19.727  0.00  0.00    +0.000 NA
ATOM     18  N   UNL     1       6.877   5.336  19.287  0.00  0.00    +0.000 NA
BRANCH  16  19
ATOM     19  C   UNL     1       3.572   4.074  19.022  0.00  0.00    +0.000 A 
ATOM     20  C   UNL     1       2.428   4.275  18.189  0.00  0.00    +0.000 A 
ATOM     21  C   UNL     1       1.358   3.501  18.583  0.00  0.00    +0.000 A 
ATOM     22  S   UNL     1       1.725   2.543  19.952  0.00  0.00    +0.000 S 
ATOM     23  C   UNL     1       3.323   3.153  20.019  0.00  0.00    +0.000 A 
ENDBRANCH  16  19
ENDBRANCH  13  14
ENDBRANCH   3  13
TORSDOF 4
ENDMDL
MODEL 4
REMARK VINA RESULT:      -6.9      4.696      6.342
REMARK  Name = 
REMARK  4 active torsions:
REMARK  status: ('A' for Active; 'I' for Inactive)
REMARK    1  A    between atoms: N_3  and  C_4
REMARK    2  A    between atoms: C_4  and  C_5
REMARK    3  A    between atoms: N_7  and  C_8
REMARK    4  A    between atoms: N_15  and  C_16
REMARK                            x       y       z     vdW  Elec       q    Type
REMARK                         _______ _______ _______ _____ _____    ______ ____
ROOT
ATOM      1  O   UNL     1       5.778   3.748  19.318  0.00  0.00    +0.000 OA
ATOM      2  C   UNL     1       5.239   4.566  18.580  0.00  0.00    +0.000 C 
ATOM      3  N   UNL     1       5.910   5.563  17.929  0.00  0.00    +0.000 N 
ATOM      4  N   UNL     1       3.888   4.627  18.368  0.00  0.00    +0.000 N 
ATOM      5  H   UNL     1       5.490   5.963  17.107  0.00  0.00    +0.000 HD
ATOM      6  H   UNL     1       3.535   5.296  17.701  0.00  0.00    +0.000 HD
ENDROOT
BRANCH   4   7
ATOM      7  C   UNL     1       2.952   3.686  18.980  0.00  0.00    +0.000 C 
ATOM      8  C   UNL     1       1.733   3.437  18.088  0.00  0.00    +0.000 C 
ATOM      9  C   UNL     1       0.733   2.538  18.806  0.00  0.00    +0.000 C 
ATOM     10  O   UNL     1       0.356   3.101  20.063  0.00  0.00    +0.000 OA
ATOM     11  C   UNL     1       1.467   3.245  20.946  0.00  0.00    +0.000 C 
ATOM     12  C   UNL     1       2.500   4.191  20.352  0.00  0.00    +0.000 C 
ENDBRANCH   4   7
BRANCH   3  13
ATOM     13  C   UNL     1       7.345   5.717  18.068  0.00  0.00    +0.000 C 
BRANCH  13  14
ATOM     14  C   UNL     1       7.706   7.155  18.032  0.00  0.00    +0.000 A 
ATOM     15  C   UNL     1       8.553   7.868  18.851  0.00  0.00    +0.000 A 
ATOM     16  N   UNL     1       8.513   9.159  18.380  0.00  0.00    +0.000 N 
ATOM     17  N   UNL     1       7.663   9.217  17.323  0.00  0.00    +0.000 NA
ATOM     18  N   UNL     1       7.172   8.004  17.104  0.00  0.00    +0.000 NA
BRANCH  16  19
ATOM     19  C   UNL     1       9.225  10.285  18.884  0.00  0.00    +0.000 A 
ATOM     20  C   UNL     1       9.915  11.243  18.080  0.00  0.00    +0.000 A 
ATOM     21  C   UNL     1      10.512  12.225  18.841  0.00  0.00    +0.000 A 
ATOM     22  S   UNL     1      10.249  11.992  20.515  0.00  0.00    +0.000 S 
ATOM     23  C   UNL     1       9.327  10.578  20.230  0.00  0.00    +0.000 A 
ENDBRANCH  16  19
ENDBRANCH  13  14
ENDBRANCH   3  13
TORSDOF 4
ENDMDL
MODEL 5
REMARK VINA RESULT:      -6.9      5.423      8.579
REMARK  Name = 
REMARK  4 active torsions:
REMARK  status: ('A' for Active; 'I' for Inactive)
REMARK    1  A    between atoms: N_3  and  C_4
REMARK    2  A    between atoms: C_4  and  C_5
REMARK    3  A    between atoms: N_7  and  C_8
REMARK    4  A    between atoms: N_15  and  C_16
REMARK                            x       y       z     vdW  Elec       q    Type
REMARK                         _______ _______ _______ _____ _____    ______ ____
ROOT
ATOM      1  O   UNL     1       7.759   9.497  17.272  0.00  0.00    +0.000 OA
ATOM      2  C   UNL     1       8.246   8.806  18.160  0.00  0.00    +0.000 C 
ATOM      3  N   UNL     1       8.043   7.459  18.274  0.00  0.00    +0.000 N 
ATOM      4  N   UNL     1       8.999   9.304  19.189  0.00  0.00    +0.000 N 
ATOM      5  H   UNL     1       8.716   6.916  18.788  0.00  0.00    +0.000 HD
ATOM      6  H   UNL     1       9.407   8.656  19.845  0.00  0.00    +0.000 HD
ENDROOT
BRANCH   4   7
ATOM      7  C   UNL     1       9.328  10.723  19.307  0.00  0.00    +0.000 C 
ATOM      8  C   UNL     1      10.557  11.092  18.473  0.00  0.00    +0.000 C 
ATOM      9  C   UNL     1      10.931  12.551  18.707  0.00  0.00    +0.000 C 
ATOM     10  O   UNL     1      11.147  12.802  20.096  0.00  0.00    +0.000 OA
ATOM     11  C   UNL     1       9.978  12.561  20.877  0.00  0.00    +0.000 C 
ATOM     12  C   UNL     1       9.559  11.102  20.772  0.00  0.00    +0.000 C 
ENDBRANCH   4   7
BRANCH   3  13
ATOM     13  C   UNL     1       7.222   6.740  17.319  0.00  0.00    +0.000 C 
BRANCH  13  14
ATOM     14  C   UNL     1       6.383   5.739  18.023  0.00  0.00    +0.000 A 
ATOM     15  C   UNL     1       5.065   5.818  18.412  0.00  0.00    +0.000 A 
ATOM     16  N   UNL     1       4.798   4.619  19.032  0.00  0.00    +0.000 N 
ATOM     17  N   UNL     1       5.922   3.857  19.023  0.00  0.00    +0.000 NA
ATOM     18  N   UNL     1       6.887   4.529  18.410  0.00  0.00    +0.000 NA
BRANCH  16  19
ATOM     19  C   UNL     1       3.564   4.200  19.606  0.00  0.00    +0.000 A 
ATOM     20  C   UNL     1       3.358   2.962  20.290  0.00  0.00    +0.000 A 
ATOM     21  C   UNL     1       2.063   2.828  20.741  0.00  0.00    +0.000 A 
ATOM     22  S   UNL     1       1.097   4.181  20.339  0.00  0.00    +0.000 S 
ATOM     23  C   UNL     1       2.411   4.959  19.566  0.00  0.00    +0.000 A 
ENDBRANCH  16  19
ENDBRANCH  13  14
ENDBRANCH   3  13
TORSDOF 4
ENDMDL
MODEL 6
REMARK VINA RESULT:      -6.8      4.458      6.251
REMARK  Name = 
REMARK  4 active torsions:
REMARK  status: ('A' for Active; 'I' for Inactive)
REMARK    1  A    between atoms: N_3  and  C_4
REMARK    2  A    between atoms: C_4  and  C_5
REMARK    3  A    between atoms: N_7  and  C_8
REMARK    4  A    between atoms: N_15  and  C_16
REMARK                            x       y       z     vdW  Elec       q    Type
REMARK                         _______ _______ _______ _____ _____    ______ ____
ROOT
ATOM      1  O   UNL     1       5.009   4.877  17.440  0.00  0.00    +0.000 OA
ATOM      2  C   UNL     1       5.319   4.852  18.626  0.00  0.00    +0.000 C 
ATOM      3  N   UNL     1       6.585   5.082  19.087  0.00  0.00    +0.000 N 
ATOM      4  N   UNL     1       4.453   4.524  19.634  0.00  0.00    +0.000 N 
ATOM      5  H   UNL     1       6.700   5.380  20.041  0.00  0.00    +0.000 HD
ATOM      6  H   UNL     1       4.779   4.583  20.587  0.00  0.00    +0.000 HD
ENDROOT
BRANCH   4   7
ATOM      7  C   UNL     1       3.048   4.204  19.392  0.00  0.00    +0.000 C 
ATOM      8  C   UNL     1       2.179   4.499  20.618  0.00  0.00    +0.000 C 
ATOM      9  C   UNL     1       0.745   4.052  20.363  0.00  0.00    +0.000 C 
ATOM     10  O   UNL     1       0.699   2.670  20.009  0.00  0.00    +0.000 OA
ATOM     11  C   UNL     1       1.420   2.395  18.809  0.00  0.00    +0.000 C 
ATOM     12  C   UNL     1       2.892   2.738  18.982  0.00  0.00    +0.000 C 
ENDBRANCH   4   7
BRANCH   3  13
ATOM     13  C   UNL     1       7.671   5.388  18.176  0.00  0.00    +0.000 C 
BRANCH  13  14
ATOM     14  C   UNL     1       7.835   6.858  18.057  0.00  0.00    +0.000 A 
ATOM     15  C   UNL     1       8.568   7.725  18.836  0.00  0.00    +0.000 A 
ATOM     16  N   UNL     1       8.359   8.969  18.289  0.00  0.00    +0.000 N 
ATOM     17  N   UNL     1       7.519   8.851  17.228  0.00  0.00    +0.000 NA
ATOM     18  N   UNL     1       7.200   7.571  17.079  0.00  0.00    +0.000 NA
BRANCH  16  19
ATOM     19  C   UNL     1       8.906  10.209  18.729  0.00  0.00    +0.000 A 
ATOM     20  C   UNL     1       9.488  10.436  20.014  0.00  0.00    +0.000 A 
ATOM     21  C   UNL     1       9.935  11.731  20.158  0.00  0.00    +0.000 A 
ATOM     22  S   UNL     1       9.651  12.671  18.757  0.00  0.00    +0.000 S 
ATOM     23  C   UNL     1       8.934  11.346  17.946  0.00  0.00    +0.000 A 
ENDBRANCH  16  19
ENDBRANCH  13  14
ENDBRANCH   3  13
TORSDOF 4
ENDMDL
MODEL 7
REMARK VINA RESULT:      -6.8      5.717      8.616
REMARK  Name = 
REMARK  4 active torsions:
REMARK  status: ('A' for Active; 'I' for Inactive)
REMARK    1  A    between atoms: N_3  and  C_4
REMARK    2  A    between atoms: C_4  and  C_5
REMARK    3  A    between atoms: N_7  and  C_8
REMARK    4  A    between atoms: N_15  and  C_16
REMARK                            x       y       z     vdW  Elec       q    Type
REMARK                         _______ _______ _______ _____ _____    ______ ____
ROOT
ATOM      1  O   UNL     1       9.078   9.112  19.233  0.00  0.00    +0.000 OA
ATOM      2  C   UNL     1       8.439   9.330  18.209  0.00  0.00    +0.000 C 
ATOM      3  N   UNL     1       7.762   8.366  17.515  0.00  0.00    +0.000 N 
ATOM      4  N   UNL     1       8.377  10.551  17.594  0.00  0.00    +0.000 N 
ATOM      5  H   UNL     1       7.008   8.651  16.913  0.00  0.00    +0.000 HD
ATOM      6  H   UNL     1       7.782  10.653  16.786  0.00  0.00    +0.000 HD
ENDROOT
BRANCH   4   7
ATOM      7  C   UNL     1       9.046  11.736  18.126  0.00  0.00    +0.000 C 
ATOM      8  C   UNL     1       8.360  13.027  17.672  0.00  0.00    +0.000 C 
ATOM      9  C   UNL     1       9.148  14.238  18.158  0.00  0.00    +0.000 C 
ATOM     10  O   UNL     1      10.501  14.177  17.707  0.00  0.00    +0.000 OA
ATOM     11  C   UNL     1      11.186  13.030  18.206  0.00  0.00    +0.000 C 
ATOM     12  C   UNL     1      10.519  11.754  17.713  0.00  0.00    +0.000 C 
ENDBRANCH   4   7
BRANCH   3  13
ATOM     13  C   UNL     1       7.751   6.987  17.963  0.00  0.00    +0.000 C 
BRANCH  13  14
ATOM     14  C   UNL     1       6.395   6.410  17.791  0.00  0.00    +0.000 A 
ATOM     15  C   UNL     1       5.757   5.435  18.525  0.00  0.00    +0.000 A 
ATOM     16  N   UNL     1       4.528   5.277  17.928  0.00  0.00    +0.000 N 
ATOM     17  N   UNL     1       4.440   6.122  16.867  0.00  0.00    +0.000 NA
ATOM     18  N   UNL     1       5.568   6.814  16.780  0.00  0.00    +0.000 NA
BRANCH  16  19
ATOM     19  C   UNL     1       3.486   4.388  18.318  0.00  0.00    +0.000 A 
ATOM     20  C   UNL     1       2.151   4.420  17.809  0.00  0.00    +0.000 A 
ATOM     21  C   UNL     1       1.361   3.438  18.367  0.00  0.00    +0.000 A 
ATOM     22  S   UNL     1       2.218   2.487  19.501  0.00  0.00    +0.000 S 
ATOM     23  C   UNL     1       3.656   3.379  19.245  0.00  0.00    +0.000 A 
ENDBRANCH  16  19
ENDBRANCH  13  14
ENDBRANCH   3  13
TORSDOF 4
ENDMDL
MODEL 8
REMARK VINA RESULT:      -6.7      5.279      8.392
REMARK  Name = 
REMARK  4 active torsions:
REMARK  status: ('A' for Active; 'I' for Inactive)
REMARK    1  A    between atoms: N_3  and  C_4
REMARK    2  A    between atoms: C_4  and  C_5
REMARK    3  A    between atoms: N_7  and  C_8
REMARK    4  A    between atoms: N_15  and  C_16
REMARK                            x       y       z     vdW  Elec       q    Type
REMARK                         _______ _______ _______ _____ _____    ______ ____
ROOT
ATOM      1  O   UNL     1       7.580   8.831  17.203  0.00  0.00    +0.000 OA
ATOM      2  C   UNL     1       8.143   8.257  18.129  0.00  0.00    +0.000 C 
ATOM      3  N   UNL     1       8.079   6.908  18.340  0.00  0.00    +0.000 N 
ATOM      4  N   UNL     1       8.850   8.901  19.109  0.00  0.00    +0.000 N 
ATOM      5  H   UNL     1       8.809   6.474  18.880  0.00  0.00    +0.000 HD
ATOM      6  H   UNL     1       9.327   8.346  19.802  0.00  0.00    +0.000 HD
ENDROOT
BRANCH   4   7
ATOM      7  C   UNL     1       9.034  10.350  19.123  0.00  0.00    +0.000 C 
ATOM      8  C   UNL     1      10.086  10.799  18.106  0.00  0.00    +0.000 C 
ATOM      9  C   UNL     1      10.326  12.299  18.226  0.00  0.00    +0.000 C 
ATOM     10  O   UNL     1      10.704  12.647  19.558  0.00  0.00    +0.000 OA
ATOM     11  C   UNL     1       9.688  12.329  20.509  0.00  0.00    +0.000 C 
ATOM     12  C   UNL     1       9.422  10.831  20.522  0.00  0.00    +0.000 C 
ENDBRANCH   4   7
BRANCH   3  13
ATOM     13  C   UNL     1       7.328   6.044  17.450  0.00  0.00    +0.000 C 
BRANCH  13  14
ATOM     14  C   UNL     1       5.948   5.863  17.966  0.00  0.00    +0.000 A 
ATOM     15  C   UNL     1       5.440   4.880  18.785  0.00  0.00    +0.000 A 
ATOM     16  N   UNL     1       4.109   5.187  18.938  0.00  0.00    +0.000 N 
ATOM     17  N   UNL     1       3.829   6.309  18.225  0.00  0.00    +0.000 NA
ATOM     18  N   UNL     1       4.942   6.726  17.635  0.00  0.00    +0.000 NA
BRANCH  16  19
ATOM     19  C   UNL     1       3.141   4.477  19.705  0.00  0.00    +0.000 A 
ATOM     20  C   UNL     1       1.747   4.787  19.751  0.00  0.00    +0.000 A 
ATOM     21  C   UNL     1       1.052   3.929  20.576  0.00  0.00    +0.000 A 
ATOM     22  S   UNL     1       2.073   2.760  21.296  0.00  0.00    +0.000 S 
ATOM     23  C   UNL     1       3.450   3.392  20.500  0.00  0.00    +0.000 A 
ENDBRANCH  16  19
ENDBRANCH  13  14
ENDBRANCH   3  13
TORSDOF 4
ENDMDL
MODEL 9
REMARK VINA RESULT:      -6.5      1.094      1.449
REMARK  Name = 
REMARK  4 active torsions:
REMARK  status: ('A' for Active; 'I' for Inactive)
REMARK    1  A    between atoms: N_3  and  C_4
REMARK    2  A    between atoms: C_4  and  C_5
REMARK    3  A    between atoms: N_7  and  C_8
REMARK    4  A    between atoms: N_15  and  C_16
REMARK                            x       y       z     vdW  Elec       q    Type
REMARK                         _______ _______ _______ _____ _____    ______ ____
ROOT
ATOM      1  O   UNL     1       4.164   5.064  18.944  0.00  0.00    +0.000 OA
ATOM      2  C   UNL     1       5.016   4.313  19.407  0.00  0.00    +0.000 C 
ATOM      3  N   UNL     1       6.358   4.565  19.363  0.00  0.00    +0.000 N 
ATOM      4  N   UNL     1       4.735   3.096  19.968  0.00  0.00    +0.000 N 
ATOM      5  H   UNL     1       6.952   4.108  20.035  0.00  0.00    +0.000 HD
ATOM      6  H   UNL     1       5.492   2.567  20.375  0.00  0.00    +0.000 HD
ENDROOT
BRANCH   4   7
ATOM      7  C   UNL     1       3.373   2.586  20.101  0.00  0.00    +0.000 C 
ATOM      8  C   UNL     1       2.634   2.581  18.760  0.00  0.00    +0.000 C 
ATOM      9  C   UNL     1       1.187   2.146  18.960  0.00  0.00    +0.000 C 
ATOM     10  O   UNL     1       0.533   2.981  19.915  0.00  0.00    +0.000 OA
ATOM     11  C   UNL     1       1.149   2.917  21.200  0.00  0.00    +0.000 C 
ATOM     12  C   UNL     1       2.588   3.406  21.127  0.00  0.00    +0.000 C 
ENDBRANCH   4   7
BRANCH   3  13
ATOM     13  C   UNL     1       6.875   5.775  18.755  0.00  0.00    +0.000 C 
BRANCH  13  14
ATOM     14  C   UNL     1       6.627   5.753  17.292  0.00  0.00    +0.000 A 
ATOM     15  C   UNL     1       6.918   4.774  16.368  0.00  0.00    +0.000 A 
ATOM     16  N   UNL     1       6.485   5.274  15.163  0.00  0.00    +0.000 N 
ATOM     17  N   UNL     1       5.964   6.513  15.359  0.00  0.00    +0.000 NA
ATOM     18  N   UNL     1       6.044   6.809  16.650  0.00  0.00    +0.000 NA
BRANCH  16  19
ATOM     19  C   UNL     1       6.551   4.638  13.890  0.00  0.00    +0.000 A 
ATOM     20  C   UNL     1       7.488   4.964  12.860  0.00  0.00    +0.000 A 
ATOM     21  C   UNL     1       7.317   4.183  11.738  0.00  0.00    +0.000 A 
ATOM     22  S   UNL     1       6.033   3.066  11.919  0.00  0.00    +0.000 S 
ATOM     23  C   UNL     1       5.704   3.618  13.506  0.00  0.00    +0.000 A 
ENDBRANCH  16  19
ENDBRANCH  13  14
ENDBRANCH   3  13
TORSDOF 4
ENDMDL
