MODEL 1
REMARK VINA RESULT:      -9.2      0.000      0.000
REMARK  Name = 
REMARK  5 active torsions:
REMARK  status: ('A' for Active; 'I' for Inactive)
REMARK    1  A    between atoms: C_1  and  C_2
REMARK    2  A    between atoms: C_16  and  N_17
REMARK    3  A    between atoms: N_17  and  C_18
REMARK    4  A    between atoms: C_18  and  C_19
REMARK    5  A    between atoms: C_24  and  C_25
REMARK                            x       y       z     vdW  Elec       q    Type
REMARK                         _______ _______ _______ _____ _____    ______ ____
ROOT
ATOM      1  C   UNL     1       2.273   8.649  17.843  0.00  0.00    +0.000 C 
ATOM      2  C   UNL     1       1.581   8.965  19.116  0.00  0.00    +0.000 A 
ATOM      3  N   UNL     1       1.120  10.242  19.327  0.00  0.00    +0.000 NA
ATOM      4  C   UNL     1       0.649  10.224  20.555  0.00  0.00    +0.000 A 
ATOM      5  C   UNL     1       0.132  11.360  21.321  0.00  0.00    +0.000 A 
ATOM      6  N   UNL     1       0.030  12.626  20.755  0.00  0.00    +0.000 N 
ATOM      7  C   UNL     1      -0.747  12.788  19.514  0.00  0.00    +0.000 C 
ATOM      8  C   UNL     1      -0.314  14.063  18.785  0.00  0.00    +0.000 C 
ATOM      9  O   UNL     1      -0.423  15.217  19.636  0.00  0.00    +0.000 OA
ATOM     10  C   UNL     1       0.401  15.047  20.802  0.00  0.00    +0.000 C 
ATOM     11  C   UNL     1      -0.016  13.812  21.614  0.00  0.00    +0.000 C 
ATOM     12  N   UNL     1      -0.221  11.174  22.576  0.00  0.00    +0.000 NA
ATOM     13  C   UNL     1      -0.103   9.909  23.124  0.00  0.00    +0.000 A 
ATOM     14  C   UNL     1       0.374   8.840  22.470  0.00  0.00    +0.000 A 
ATOM     15  N   UNL     1       0.758   8.991  21.150  0.00  0.00    +0.000 N 
ATOM     16  C   UNL     1       1.326   8.145  20.212  0.00  0.00    +0.000 A 
ENDROOT
BRANCH  16  17
ATOM     17  N   UNL     1       1.666   6.842  20.413  0.00  0.00    +0.000 N 
ATOM     18  H   UNL     1       1.268   6.392  21.237  0.00  0.00    +0.000 HD
BRANCH  17  19
ATOM     19  C   UNL     1       2.985   6.283  20.111  0.00  0.00    +0.000 C 
BRANCH  19  20
ATOM     20  C   UNL     1       2.928   5.166  19.068  0.00  0.00    +0.000 A 
ATOM     21  C   UNL     1       1.699   4.470  18.913  0.00  0.00    +0.000 A 
ATOM     22  C   UNL     1       1.543   3.422  18.015  0.00  0.00    +0.000 A 
ATOM     23  C   UNL     1       2.624   3.019  17.258  0.00  0.00    +0.000 A 
ATOM     24  C   UNL     1       3.852   3.672  17.401  0.00  0.00    +0.000 A 
ATOM     25  C   UNL     1       4.046   4.785  18.259  0.00  0.00    +0.000 A 
BRANCH  25  26
ATOM     26  C   UNL     1       5.394   5.463  18.262  0.00  0.00    +0.000 A 
ATOM     27  C   UNL     1       6.323   5.202  19.291  0.00  0.00    +0.000 A 
ATOM     28  C   UNL     1       7.568   5.840  19.378  0.00  0.00    +0.000 A 
ATOM     29  C   UNL     1       7.983   6.693  18.370  0.00  0.00    +0.000 A 
ATOM     30  C   UNL     1       7.137   6.927  17.295  0.00  0.00    +0.000 A 
ATOM     31  C   UNL     1       5.848   6.358  17.254  0.00  0.00    +0.000 A 
ATOM     32 CL   UNL     1       4.880   6.881  15.910  0.00  0.00    +0.000 Cl
ENDBRANCH  25  26
ENDBRANCH  19  20
ENDBRANCH  17  19
ENDBRANCH  16  17
TORSDOF 4
ENDMDL
MODEL 2
REMARK VINA RESULT:      -8.7      1.496      1.917
REMARK  Name = 
REMARK  5 active torsions:
REMARK  status: ('A' for Active; 'I' for Inactive)
REMARK    1  A    between atoms: C_1  and  C_2
REMARK    2  A    between atoms: C_16  and  N_17
REMARK    3  A    between atoms: N_17  and  C_18
REMARK    4  A    between atoms: C_18  and  C_19
REMARK    5  A    between atoms: C_24  and  C_25
REMARK                            x       y       z     vdW  Elec       q    Type
REMARK                         _______ _______ _______ _____ _____    ______ ____
ROOT
ATOM      1  C   UNL     1       2.370   8.872  17.829  0.00  0.00    +0.000 C 
ATOM      2  C   UNL     1       1.671   9.117  19.114  0.00  0.00    +0.000 A 
ATOM      3  N   UNL     1       1.114  10.351  19.347  0.00  0.00    +0.000 NA
ATOM      4  C   UNL     1       0.661  10.281  20.581  0.00  0.00    +0.000 A 
ATOM      5  C   UNL     1       0.068  11.362  21.368  0.00  0.00    +0.000 A 
ATOM      6  N   UNL     1      -0.141  12.624  20.820  0.00  0.00    +0.000 N 
ATOM      7  C   UNL     1      -0.944  12.740  19.592  0.00  0.00    +0.000 C 
ATOM      8  C   UNL     1      -0.622  14.054  18.875  0.00  0.00    +0.000 C 
ATOM      9  O   UNL     1      -0.809  15.185  19.742  0.00  0.00    +0.000 OA
ATOM     10  C   UNL     1       0.040  15.066  20.896  0.00  0.00    +0.000 C 
ATOM     11  C   UNL     1      -0.268  13.792  21.696  0.00  0.00    +0.000 C 
ATOM     12  N   UNL     1      -0.254  11.134  22.624  0.00  0.00    +0.000 NA
ATOM     13  C   UNL     1      -0.030   9.876  23.155  0.00  0.00    +0.000 A 
ATOM     14  C   UNL     1       0.521   8.856  22.480  0.00  0.00    +0.000 A 
ATOM     15  N   UNL     1       0.875   9.053  21.158  0.00  0.00    +0.000 N 
ATOM     16  C   UNL     1       1.495   8.265  20.201  0.00  0.00    +0.000 A 
ENDROOT
BRANCH  16  17
ATOM     17  N   UNL     1       1.938   6.991  20.381  0.00  0.00    +0.000 N 
ATOM     18  H   UNL     1       2.235   6.743  21.325  0.00  0.00    +0.000 HD
BRANCH  17  19
ATOM     19  C   UNL     1       2.715   6.245  19.389  0.00  0.00    +0.000 C 
BRANCH  19  20
ATOM     20  C   UNL     1       3.016   4.813  19.830  0.00  0.00    +0.000 A 
ATOM     21  C   UNL     1       2.265   4.284  20.914  0.00  0.00    +0.000 A 
ATOM     22  C   UNL     1       2.473   3.005  21.414  0.00  0.00    +0.000 A 
ATOM     23  C   UNL     1       3.464   2.220  20.858  0.00  0.00    +0.000 A 
ATOM     24  C   UNL     1       4.232   2.718  19.803  0.00  0.00    +0.000 A 
ATOM     25  C   UNL     1       4.018   3.993  19.218  0.00  0.00    +0.000 A 
BRANCH  25  26
ATOM     26  C   UNL     1       4.853   4.385  18.024  0.00  0.00    +0.000 A 
ATOM     27  C   UNL     1       4.407   4.100  16.716  0.00  0.00    +0.000 A 
ATOM     28  C   UNL     1       5.162   4.391  15.571  0.00  0.00    +0.000 A 
ATOM     29  C   UNL     1       6.356   5.084  15.682  0.00  0.00    +0.000 A 
ATOM     30  C   UNL     1       6.803   5.454  16.943  0.00  0.00    +0.000 A 
ATOM     31  C   UNL     1       6.092   5.081  18.100  0.00  0.00    +0.000 A 
ATOM     32 CL   UNL     1       6.880   5.503  19.589  0.00  0.00    +0.000 Cl
ENDBRANCH  25  26
ENDBRANCH  19  20
ENDBRANCH  17  19
ENDBRANCH  16  17
TORSDOF 4
ENDMDL
MODEL 3
REMARK VINA RESULT:      -8.5      1.354      1.529
REMARK  Name = 
REMARK  5 active torsions:
REMARK  status: ('A' for Active; 'I' for Inactive)
REMARK    1  A    between atoms: C_1  and  C_2
REMARK    2  A    between atoms: C_16  and  N_17
REMARK    3  A    between atoms: N_17  and  C_18
REMARK    4  A    between atoms: C_18  and  C_19
REMARK    5  A    between atoms: C_24  and  C_25
REMARK                            x       y       z     vdW  Elec       q    Type
REMARK                         _______ _______ _______ _____ _____    ______ ____
ROOT
ATOM      1  C   UNL     1       2.215   9.027  17.980  0.00  0.00    +0.000 C 
ATOM      2  C   UNL     1       1.493   9.292  19.247  0.00  0.00    +0.000 A 
ATOM      3  N   UNL     1       1.007  10.554  19.489  0.00  0.00    +0.000 NA
ATOM      4  C   UNL     1       0.512  10.490  20.706  0.00  0.00    +0.000 A 
ATOM      5  C   UNL     1      -0.038  11.592  21.497  0.00  0.00    +0.000 A 
ATOM      6  N   UNL     1      -0.151  12.874  20.968  0.00  0.00    +0.000 N 
ATOM      7  C   UNL     1      -0.906  13.062  19.718  0.00  0.00    +0.000 C 
ATOM      8  C   UNL     1      -0.481  14.367  19.038  0.00  0.00    +0.000 C 
ATOM      9  O   UNL     1      -0.626  15.491  19.921  0.00  0.00    +0.000 OA
ATOM     10  C   UNL     1       0.178  15.299  21.097  0.00  0.00    +0.000 C 
ATOM     11  C   UNL     1      -0.232  14.032  21.863  0.00  0.00    +0.000 C 
ATOM     12  N   UNL     1      -0.412  11.362  22.738  0.00  0.00    +0.000 NA
ATOM     13  C   UNL     1      -0.283  10.083  23.250  0.00  0.00    +0.000 A 
ATOM     14  C   UNL     1       0.225   9.043  22.572  0.00  0.00    +0.000 A 
ATOM     15  N   UNL     1       0.631   9.241  21.265  0.00  0.00    +0.000 N 
ATOM     16  C   UNL     1       1.231   8.434  20.312  0.00  0.00    +0.000 A 
ENDROOT
BRANCH  16  17
ATOM     17  N   UNL     1       1.589   7.131  20.480  0.00  0.00    +0.000 N 
ATOM     18  H   UNL     1       1.521   6.761  21.427  0.00  0.00    +0.000 HD
BRANCH  17  19
ATOM     19  C   UNL     1       2.682   6.481  19.754  0.00  0.00    +0.000 C 
BRANCH  19  20
ATOM     20  C   UNL     1       2.843   5.007  20.126  0.00  0.00    +0.000 A 
ATOM     21  C   UNL     1       1.845   4.421  20.951  0.00  0.00    +0.000 A 
ATOM     22  C   UNL     1       1.904   3.099  21.370  0.00  0.00    +0.000 A 
ATOM     23  C   UNL     1       2.984   2.323  20.997  0.00  0.00    +0.000 A 
ATOM     24  C   UNL     1       3.991   2.876  20.201  0.00  0.00    +0.000 A 
ATOM     25  C   UNL     1       3.946   4.201  19.697  0.00  0.00    +0.000 A 
BRANCH  25  26
ATOM     26  C   UNL     1       5.049   4.656  18.773  0.00  0.00    +0.000 A 
ATOM     27  C   UNL     1       6.175   5.334  19.286  0.00  0.00    +0.000 A 
ATOM     28  C   UNL     1       7.206   5.828  18.474  0.00  0.00    +0.000 A 
ATOM     29  C   UNL     1       7.205   5.566  17.114  0.00  0.00    +0.000 A 
ATOM     30  C   UNL     1       6.156   4.838  16.570  0.00  0.00    +0.000 A 
ATOM     31  C   UNL     1       5.075   4.422  17.371  0.00  0.00    +0.000 A 
ATOM     32 CL   UNL     1       3.788   3.655  16.490  0.00  0.00    +0.000 Cl
ENDBRANCH  25  26
ENDBRANCH  19  20
ENDBRANCH  17  19
ENDBRANCH  16  17
TORSDOF 4
ENDMDL
MODEL 4
REMARK VINA RESULT:      -8.5      1.730      3.337
REMARK  Name = 
REMARK  5 active torsions:
REMARK  status: ('A' for Active; 'I' for Inactive)
REMARK    1  A    between atoms: C_1  and  C_2
REMARK    2  A    between atoms: C_16  and  N_17
REMARK    3  A    between atoms: N_17  and  C_18
REMARK    4  A    between atoms: C_18  and  C_19
REMARK    5  A    between atoms: C_24  and  C_25
REMARK                            x       y       z     vdW  Elec       q    Type
REMARK                         _______ _______ _______ _____ _____    ______ ____
ROOT
ATOM      1  C   UNL     1       2.043  10.273  17.742  0.00  0.00    +0.000 C 
ATOM      2  C   UNL     1       1.411  10.075  19.069  0.00  0.00    +0.000 A 
ATOM      3  N   UNL     1       0.739  11.121  19.653  0.00  0.00    +0.000 NA
ATOM      4  C   UNL     1       0.382  10.666  20.834  0.00  0.00    +0.000 A 
ATOM      5  C   UNL     1      -0.272  11.413  21.910  0.00  0.00    +0.000 A 
ATOM      6  N   UNL     1      -0.654  12.740  21.739  0.00  0.00    +0.000 N 
ATOM      7  C   UNL     1      -1.547  13.082  20.619  0.00  0.00    +0.000 C 
ATOM      8  C   UNL     1      -1.420  14.570  20.281  0.00  0.00    +0.000 C 
ATOM      9  O   UNL     1      -1.671  15.393  21.433  0.00  0.00    +0.000 OA
ATOM     10  C   UNL     1      -0.737  15.074  22.478  0.00  0.00    +0.000 C 
ATOM     11  C   UNL     1      -0.848  13.604  22.907  0.00  0.00    +0.000 C 
ATOM     12  N   UNL     1      -0.480  10.817  23.066  0.00  0.00    +0.000 NA
ATOM     13  C   UNL     1      -0.084   9.500  23.220  0.00  0.00    +0.000 A 
ATOM     14  C   UNL     1       0.528   8.776  22.271  0.00  0.00    +0.000 A 
ATOM     15  N   UNL     1       0.767   9.364  21.044  0.00  0.00    +0.000 N 
ATOM     16  C   UNL     1       1.404   8.947  19.885  0.00  0.00    +0.000 A 
ENDROOT
BRANCH  16  17
ATOM     17  N   UNL     1       1.995   7.736  19.691  0.00  0.00    +0.000 N 
ATOM     18  H   UNL     1       2.852   7.560  20.216  0.00  0.00    +0.000 HD
BRANCH  17  19
ATOM     19  C   UNL     1       2.031   7.039  18.404  0.00  0.00    +0.000 C 
BRANCH  19  20
ATOM     20  C   UNL     1       3.401   6.431  18.101  0.00  0.00    +0.000 A 
ATOM     21  C   UNL     1       4.308   7.201  17.322  0.00  0.00    +0.000 A 
ATOM     22  C   UNL     1       5.568   6.736  16.966  0.00  0.00    +0.000 A 
ATOM     23  C   UNL     1       5.952   5.469  17.358  0.00  0.00    +0.000 A 
ATOM     24  C   UNL     1       5.075   4.681  18.109  0.00  0.00    +0.000 A 
ATOM     25  C   UNL     1       3.804   5.132  18.548  0.00  0.00    +0.000 A 
BRANCH  25  26
ATOM     26  C   UNL     1       2.984   4.222  19.429  0.00  0.00    +0.000 A 
ATOM     27  C   UNL     1       2.815   4.517  20.799  0.00  0.00    +0.000 A 
ATOM     28  C   UNL     1       2.111   3.683  21.679  0.00  0.00    +0.000 A 
ATOM     29  C   UNL     1       1.448   2.567  21.198  0.00  0.00    +0.000 A 
ATOM     30  C   UNL     1       1.520   2.273  19.843  0.00  0.00    +0.000 A 
ATOM     31  C   UNL     1       2.304   3.058  18.976  0.00  0.00    +0.000 A 
ATOM     32 CL   UNL     1       2.393   2.453  17.350  0.00  0.00    +0.000 Cl
ENDBRANCH  25  26
ENDBRANCH  19  20
ENDBRANCH  17  19
ENDBRANCH  16  17
TORSDOF 4
ENDMDL
MODEL 5
REMARK VINA RESULT:      -8.3      1.977      3.100
REMARK  Name = 
REMARK  5 active torsions:
REMARK  status: ('A' for Active; 'I' for Inactive)
REMARK    1  A    between atoms: C_1  and  C_2
REMARK    2  A    between atoms: C_16  and  N_17
REMARK    3  A    between atoms: N_17  and  C_18
REMARK    4  A    between atoms: C_18  and  C_19
REMARK    5  A    between atoms: C_24  and  C_25
REMARK                            x       y       z     vdW  Elec       q    Type
REMARK                         _______ _______ _______ _____ _____    ______ ____
ROOT
ATOM      1  C   UNL     1       1.314   6.104  21.198  0.00  0.00    +0.000 C 
ATOM      2  C   UNL     1       1.442   7.386  20.465  0.00  0.00    +0.000 A 
ATOM      3  N   UNL     1       0.711   8.471  20.883  0.00  0.00    +0.000 NA
ATOM      4  C   UNL     1       0.968   9.406  19.994  0.00  0.00    +0.000 A 
ATOM      5  C   UNL     1       0.361  10.735  19.906  0.00  0.00    +0.000 A 
ATOM      6  N   UNL     1      -0.553  11.176  20.857  0.00  0.00    +0.000 N 
ATOM      7  C   UNL     1      -0.157  11.175  22.276  0.00  0.00    +0.000 C 
ATOM      8  C   UNL     1      -1.401  11.168  23.169  0.00  0.00    +0.000 C 
ATOM      9  O   UNL     1      -2.276  12.266  22.861  0.00  0.00    +0.000 OA
ATOM     10  C   UNL     1      -2.692  12.192  21.487  0.00  0.00    +0.000 C 
ATOM     11  C   UNL     1      -1.493  12.251  20.529  0.00  0.00    +0.000 C 
ATOM     12  N   UNL     1       0.677  11.515  18.893  0.00  0.00    +0.000 NA
ATOM     13  C   UNL     1       1.581  11.055  17.952  0.00  0.00    +0.000 A 
ATOM     14  C   UNL     1       2.155   9.844  17.980  0.00  0.00    +0.000 A 
ATOM     15  N   UNL     1       1.850   8.993  19.026  0.00  0.00    +0.000 N 
ATOM     16  C   UNL     1       2.204   7.690  19.340  0.00  0.00    +0.000 A 
ENDROOT
BRANCH  16  17
ATOM     17  N   UNL     1       3.015   6.883  18.602  0.00  0.00    +0.000 N 
ATOM     18  H   UNL     1       3.955   7.232  18.416  0.00  0.00    +0.000 HD
BRANCH  17  19
ATOM     19  C   UNL     1       2.550   6.049  17.492  0.00  0.00    +0.000 C 
BRANCH  19  20
ATOM     20  C   UNL     1       2.576   4.556  17.825  0.00  0.00    +0.000 A 
ATOM     21  C   UNL     1       1.410   3.989  18.406  0.00  0.00    +0.000 A 
ATOM     22  C   UNL     1       1.333   2.651  18.772  0.00  0.00    +0.000 A 
ATOM     23  C   UNL     1       2.436   1.841  18.591  0.00  0.00    +0.000 A 
ATOM     24  C   UNL     1       3.604   2.374  18.039  0.00  0.00    +0.000 A 
ATOM     25  C   UNL     1       3.713   3.716  17.594  0.00  0.00    +0.000 A 
BRANCH  25  26
ATOM     26  C   UNL     1       4.997   4.152  16.932  0.00  0.00    +0.000 A 
ATOM     27  C   UNL     1       5.200   3.932  15.554  0.00  0.00    +0.000 A 
ATOM     28  C   UNL     1       6.391   4.265  14.893  0.00  0.00    +0.000 A 
ATOM     29  C   UNL     1       7.395   4.938  15.569  0.00  0.00    +0.000 A 
ATOM     30  C   UNL     1       7.214   5.246  16.910  0.00  0.00    +0.000 A 
ATOM     31  C   UNL     1       6.057   4.829  17.597  0.00  0.00    +0.000 A 
ATOM     32 CL   UNL     1       6.073   5.174  19.299  0.00  0.00    +0.000 Cl
ENDBRANCH  25  26
ENDBRANCH  19  20
ENDBRANCH  17  19
ENDBRANCH  16  17
TORSDOF 4
ENDMDL
MODEL 6
REMARK VINA RESULT:      -8.3      1.847      2.779
REMARK  Name = 
REMARK  5 active torsions:
REMARK  status: ('A' for Active; 'I' for Inactive)
REMARK    1  A    between atoms: C_1  and  C_2
REMARK    2  A    between atoms: C_16  and  N_17
REMARK    3  A    between atoms: N_17  and  C_18
REMARK    4  A    between atoms: C_18  and  C_19
REMARK    5  A    between atoms: C_24  and  C_25
REMARK                            x       y       z     vdW  Elec       q    Type
REMARK                         _______ _______ _______ _____ _____    ______ ____
ROOT
ATOM      1  C   UNL     1       1.295   6.171  21.109  0.00  0.00    +0.000 C 
ATOM      2  C   UNL     1       1.421   7.475  20.414  0.00  0.00    +0.000 A 
ATOM      3  N   UNL     1       0.676   8.542  20.855  0.00  0.00    +0.000 NA
ATOM      4  C   UNL     1       0.936   9.503  19.995  0.00  0.00    +0.000 A 
ATOM      5  C   UNL     1       0.320  10.830  19.938  0.00  0.00    +0.000 A 
ATOM      6  N   UNL     1      -0.609  11.237  20.890  0.00  0.00    +0.000 N 
ATOM      7  C   UNL     1      -0.229  11.199  22.313  0.00  0.00    +0.000 C 
ATOM      8  C   UNL     1      -1.482  11.156  23.191  0.00  0.00    +0.000 C 
ATOM      9  O   UNL     1      -2.362  12.256  22.904  0.00  0.00    +0.000 OA
ATOM     10  C   UNL     1      -2.762  12.219  21.524  0.00  0.00    +0.000 C 
ATOM     11  C   UNL     1      -1.553  12.314  20.581  0.00  0.00    +0.000 C 
ATOM     12  N   UNL     1       0.641  11.640  18.951  0.00  0.00    +0.000 NA
ATOM     13  C   UNL     1       1.559  11.214  18.007  0.00  0.00    +0.000 A 
ATOM     14  C   UNL     1       2.143  10.007  18.008  0.00  0.00    +0.000 A 
ATOM     15  N   UNL     1       1.833   9.124  19.026  0.00  0.00    +0.000 N 
ATOM     16  C   UNL     1       2.193   7.816  19.307  0.00  0.00    +0.000 A 
ENDROOT
BRANCH  16  17
ATOM     17  N   UNL     1       3.019   7.036  18.556  0.00  0.00    +0.000 N 
ATOM     18  H   UNL     1       3.907   7.452  18.279  0.00  0.00    +0.000 HD
BRANCH  17  19
ATOM     19  C   UNL     1       2.553   6.097  17.534  0.00  0.00    +0.000 C 
BRANCH  19  20
ATOM     20  C   UNL     1       2.565   4.646  18.017  0.00  0.00    +0.000 A 
ATOM     21  C   UNL     1       1.317   3.974  18.121  0.00  0.00    +0.000 A 
ATOM     22  C   UNL     1       1.209   2.665  18.573  0.00  0.00    +0.000 A 
ATOM     23  C   UNL     1       2.350   1.993  18.963  0.00  0.00    +0.000 A 
ATOM     24  C   UNL     1       3.590   2.633  18.890  0.00  0.00    +0.000 A 
ATOM     25  C   UNL     1       3.760   3.945  18.380  0.00  0.00    +0.000 A 
BRANCH  25  26
ATOM     26  C   UNL     1       5.160   4.497  18.268  0.00  0.00    +0.000 A 
ATOM     27  C   UNL     1       5.811   5.027  19.402  0.00  0.00    +0.000 A 
ATOM     28  C   UNL     1       7.088   5.602  19.352  0.00  0.00    +0.000 A 
ATOM     29  C   UNL     1       7.818   5.572  18.175  0.00  0.00    +0.000 A 
ATOM     30  C   UNL     1       7.252   4.993  17.047  0.00  0.00    +0.000 A 
ATOM     31  C   UNL     1       5.933   4.499  17.074  0.00  0.00    +0.000 A 
ATOM     32 CL   UNL     1       5.345   3.950  15.535  0.00  0.00    +0.000 Cl
ENDBRANCH  25  26
ENDBRANCH  19  20
ENDBRANCH  17  19
ENDBRANCH  16  17
TORSDOF 4
ENDMDL
MODEL 7
REMARK VINA RESULT:      -8.0      4.045      8.907
REMARK  Name = 
REMARK  5 active torsions:
REMARK  status: ('A' for Active; 'I' for Inactive)
REMARK    1  A    between atoms: C_1  and  C_2
REMARK    2  A    between atoms: C_16  and  N_17
REMARK    3  A    between atoms: N_17  and  C_18
REMARK    4  A    between atoms: C_18  and  C_19
REMARK    5  A    between atoms: C_24  and  C_25
REMARK                            x       y       z     vdW  Elec       q    Type
REMARK                         _______ _______ _______ _____ _____    ______ ____
ROOT
ATOM      1  C   UNL     1      -0.039   9.453  23.303  0.00  0.00    +0.000 C 
ATOM      2  C   UNL     1       0.379   9.430  21.881  0.00  0.00    +0.000 A 
ATOM      3  N   UNL     1       1.011   8.314  21.388  0.00  0.00    +0.000 NA
ATOM      4  C   UNL     1       1.329   8.634  20.152  0.00  0.00    +0.000 A 
ATOM      5  C   UNL     1       2.115   7.840  19.207  0.00  0.00    +0.000 A 
ATOM      6  N   UNL     1       2.568   6.566  19.535  0.00  0.00    +0.000 N 
ATOM      7  C   UNL     1       1.588   5.552  19.959  0.00  0.00    +0.000 C 
ATOM      8  C   UNL     1       2.285   4.449  20.761  0.00  0.00    +0.000 C 
ATOM      9  O   UNL     1       3.368   3.865  20.018  0.00  0.00    +0.000 OA
ATOM     10  C   UNL     1       4.334   4.875  19.681  0.00  0.00    +0.000 C 
ATOM     11  C   UNL     1       3.714   5.989  18.826  0.00  0.00    +0.000 C 
ATOM     12  N   UNL     1       2.412   8.356  18.032  0.00  0.00    +0.000 NA
ATOM     13  C   UNL     1       1.961   9.628  17.727  0.00  0.00    +0.000 A 
ATOM     14  C   UNL     1       1.249  10.400  18.561  0.00  0.00    +0.000 A 
ATOM     15  N   UNL     1       0.916   9.898  19.805  0.00  0.00    +0.000 N 
ATOM     16  C   UNL     1       0.257  10.418  20.907  0.00  0.00    +0.000 A 
ENDROOT
BRANCH  16  17
ATOM     17  N   UNL     1      -0.258  11.673  21.010  0.00  0.00    +0.000 N 
ATOM     18  H   UNL     1      -0.624  11.940  21.924  0.00  0.00    +0.000 HD
BRANCH  17  19
ATOM     19  C   UNL     1      -1.008  12.341  19.944  0.00  0.00    +0.000 C 
BRANCH  19  20
ATOM     20  C   UNL     1      -2.490  12.510  20.283  0.00  0.00    +0.000 A 
ATOM     21  C   UNL     1      -2.820  13.187  21.488  0.00  0.00    +0.000 A 
ATOM     22  C   UNL     1      -4.131  13.374  21.906  0.00  0.00    +0.000 A 
ATOM     23  C   UNL     1      -5.159  12.862  21.140  0.00  0.00    +0.000 A 
ATOM     24  C   UNL     1      -4.867  12.175  19.958  0.00  0.00    +0.000 A 
ATOM     25  C   UNL     1      -3.549  12.011  19.458  0.00  0.00    +0.000 A 
BRANCH  25  26
ATOM     26  C   UNL     1      -3.366  11.328  18.125  0.00  0.00    +0.000 A 
ATOM     27  C   UNL     1      -2.297  10.430  17.925  0.00  0.00    +0.000 A 
ATOM     28  C   UNL     1      -2.043   9.806  16.695  0.00  0.00    +0.000 A 
ATOM     29  C   UNL     1      -2.920   9.973  15.637  0.00  0.00    +0.000 A 
ATOM     30  C   UNL     1      -4.031  10.788  15.806  0.00  0.00    +0.000 A 
ATOM     31  C   UNL     1      -4.235  11.488  17.011  0.00  0.00    +0.000 A 
ATOM     32 CL   UNL     1      -5.592  12.572  16.985  0.00  0.00    +0.000 Cl
ENDBRANCH  25  26
ENDBRANCH  19  20
ENDBRANCH  17  19
ENDBRANCH  16  17
TORSDOF 4
ENDMDL
MODEL 8
REMARK VINA RESULT:      -8.0      3.716      8.705
REMARK  Name = 
REMARK  5 active torsions:
REMARK  status: ('A' for Active; 'I' for Inactive)
REMARK    1  A    between atoms: C_1  and  C_2
REMARK    2  A    between atoms: C_16  and  N_17
REMARK    3  A    between atoms: N_17  and  C_18
REMARK    4  A    between atoms: C_18  and  C_19
REMARK    5  A    between atoms: C_24  and  C_25
REMARK                            x       y       z     vdW  Elec       q    Type
REMARK                         _______ _______ _______ _____ _____    ______ ____
ROOT
ATOM      1  C   UNL     1       0.134   8.908  22.434  0.00  0.00    +0.000 C 
ATOM      2  C   UNL     1       0.813   8.492  21.183  0.00  0.00    +0.000 A 
ATOM      3  N   UNL     1       1.173   7.176  21.023  0.00  0.00    +0.000 NA
ATOM      4  C   UNL     1       1.822   7.148  19.879  0.00  0.00    +0.000 A 
ATOM      5  C   UNL     1       2.515   6.005  19.282  0.00  0.00    +0.000 A 
ATOM      6  N   UNL     1       2.490   4.751  19.884  0.00  0.00    +0.000 N 
ATOM      7  C   UNL     1       1.187   4.130  20.174  0.00  0.00    +0.000 C 
ATOM      8  C   UNL     1       1.342   3.069  21.268  0.00  0.00    +0.000 C 
ATOM      9  O   UNL     1       2.332   2.089  20.914  0.00  0.00    +0.000 OA
ATOM     10  C   UNL     1       3.603   2.729  20.705  0.00  0.00    +0.000 C 
ATOM     11  C   UNL     1       3.534   3.769  19.577  0.00  0.00    +0.000 C 
ATOM     12  N   UNL     1       3.190   6.180  18.165  0.00  0.00    +0.000 NA
ATOM     13  C   UNL     1       3.211   7.437  17.587  0.00  0.00    +0.000 A 
ATOM     14  C   UNL     1       2.604   8.518  18.098  0.00  0.00    +0.000 A 
ATOM     15  N   UNL     1       1.885   8.379  19.271  0.00  0.00    +0.000 N 
ATOM     16  C   UNL     1       1.196   9.261  20.087  0.00  0.00    +0.000 A 
ENDROOT
BRANCH  16  17
ATOM     17  N   UNL     1       1.068  10.601  19.885  0.00  0.00    +0.000 N 
ATOM     18  H   UNL     1       0.769  11.155  20.687  0.00  0.00    +0.000 HD
BRANCH  17  19
ATOM     19  C   UNL     1       0.578  11.199  18.641  0.00  0.00    +0.000 C 
BRANCH  19  20
ATOM     20  C   UNL     1      -0.944  11.125  18.510  0.00  0.00    +0.000 A 
ATOM     21  C   UNL     1      -1.479  10.310  17.475  0.00  0.00    +0.000 A 
ATOM     22  C   UNL     1      -2.844  10.191  17.250  0.00  0.00    +0.000 A 
ATOM     23  C   UNL     1      -3.721  10.907  18.040  0.00  0.00    +0.000 A 
ATOM     24  C   UNL     1      -3.225  11.730  19.054  0.00  0.00    +0.000 A 
ATOM     25  C   UNL     1      -1.845  11.840  19.364  0.00  0.00    +0.000 A 
BRANCH  25  26
ATOM     26  C   UNL     1      -1.437  12.693  20.539  0.00  0.00    +0.000 A 
ATOM     27  C   UNL     1      -1.654  12.241  21.858  0.00  0.00    +0.000 A 
ATOM     28  C   UNL     1      -1.347  13.009  22.990  0.00  0.00    +0.000 A 
ATOM     29  C   UNL     1      -0.703  14.227  22.849  0.00  0.00    +0.000 A 
ATOM     30  C   UNL     1      -0.399  14.684  21.574  0.00  0.00    +0.000 A 
ATOM     31  C   UNL     1      -0.791  13.955  20.434  0.00  0.00    +0.000 A 
ATOM     32 CL   UNL     1      -0.457  14.754  18.928  0.00  0.00    +0.000 Cl
ENDBRANCH  25  26
ENDBRANCH  19  20
ENDBRANCH  17  19
ENDBRANCH  16  17
TORSDOF 4
ENDMDL
MODEL 9
REMARK VINA RESULT:      -8.0      2.183      4.277
REMARK  Name = 
REMARK  5 active torsions:
REMARK  status: ('A' for Active; 'I' for Inactive)
REMARK    1  A    between atoms: C_1  and  C_2
REMARK    2  A    between atoms: C_16  and  N_17
REMARK    3  A    between atoms: N_17  and  C_18
REMARK    4  A    between atoms: C_18  and  C_19
REMARK    5  A    between atoms: C_24  and  C_25
REMARK                            x       y       z     vdW  Elec       q    Type
REMARK                         _______ _______ _______ _____ _____    ______ ____
ROOT
ATOM      1  C   UNL     1       1.488   6.043  20.728  0.00  0.00    +0.000 C 
ATOM      2  C   UNL     1       1.587   7.393  20.122  0.00  0.00    +0.000 A 
ATOM      3  N   UNL     1       0.855   8.423  20.661  0.00  0.00    +0.000 NA
ATOM      4  C   UNL     1       1.082   9.443  19.862  0.00  0.00    +0.000 A 
ATOM      5  C   UNL     1       0.461  10.767  19.919  0.00  0.00    +0.000 A 
ATOM      6  N   UNL     1      -0.435  11.102  20.928  0.00  0.00    +0.000 N 
ATOM      7  C   UNL     1      -0.007  10.967  22.331  0.00  0.00    +0.000 C 
ATOM      8  C   UNL     1      -1.229  10.857  23.246  0.00  0.00    +0.000 C 
ATOM      9  O   UNL     1      -2.122  11.970  23.067  0.00  0.00    +0.000 OA
ATOM     10  C   UNL     1      -2.568  12.026  21.702  0.00  0.00    +0.000 C 
ATOM     11  C   UNL     1      -1.393  12.193  20.728  0.00  0.00    +0.000 C 
ATOM     12  N   UNL     1       0.746  11.646  18.980  0.00  0.00    +0.000 NA
ATOM     13  C   UNL     1       1.632  11.291  17.978  0.00  0.00    +0.000 A 
ATOM     14  C   UNL     1       2.219  10.090  17.875  0.00  0.00    +0.000 A 
ATOM     15  N   UNL     1       1.946   9.137  18.839  0.00  0.00    +0.000 N 
ATOM     16  C   UNL     1       2.320   7.814  19.015  0.00  0.00    +0.000 A 
ENDROOT
BRANCH  16  17
ATOM     17  N   UNL     1       3.121   7.093  18.184  0.00  0.00    +0.000 N 
ATOM     18  H   UNL     1       2.650   6.485  17.515  0.00  0.00    +0.000 HD
BRANCH  17  19
ATOM     19  C   UNL     1       4.407   6.516  18.583  0.00  0.00    +0.000 C 
BRANCH  19  20
ATOM     20  C   UNL     1       4.959   5.536  17.547  0.00  0.00    +0.000 A 
ATOM     21  C   UNL     1       6.108   5.932  16.809  0.00  0.00    +0.000 A 
ATOM     22  C   UNL     1       6.677   5.131  15.827  0.00  0.00    +0.000 A 
ATOM     23  C   UNL     1       6.096   3.914  15.533  0.00  0.00    +0.000 A 
ATOM     24  C   UNL     1       4.955   3.504  16.229  0.00  0.00    +0.000 A 
ATOM     25  C   UNL     1       4.372   4.257  17.281  0.00  0.00    +0.000 A 
BRANCH  25  26
ATOM     26  C   UNL     1       3.194   3.669  18.018  0.00  0.00    +0.000 A 
ATOM     27  C   UNL     1       1.881   3.884  17.550  0.00  0.00    +0.000 A 
ATOM     28  C   UNL     1       0.744   3.410  18.220  0.00  0.00    +0.000 A 
ATOM     29  C   UNL     1       0.881   2.602  19.337  0.00  0.00    +0.000 A 
ATOM     30  C   UNL     1       2.156   2.299  19.795  0.00  0.00    +0.000 A 
ATOM     31  C   UNL     1       3.295   2.851  19.177  0.00  0.00    +0.000 A 
ATOM     32 CL   UNL     1       4.792   2.480  19.977  0.00  0.00    +0.000 Cl
ENDBRANCH  25  26
ENDBRANCH  19  20
ENDBRANCH  17  19
ENDBRANCH  16  17
TORSDOF 4
ENDMDL
