MODEL 1
REMARK VINA RESULT:      -9.4      0.000      0.000
REMARK  Name = 
REMARK  4 active torsions:
REMARK  status: ('A' for Active; 'I' for Inactive)
REMARK    1  A    between atoms: C_2  and  C_19
REMARK    2  A    between atoms: N_3  and  C_4
REMARK    3  A    between atoms: N_11  and  C_12
REMARK    4  A    between atoms: C_12  and  C_13
REMARK                            x       y       z     vdW  Elec       q    Type
REMARK                         _______ _______ _______ _____ _____    ______ ____
ROOT
ATOM      1  C   UNL     1       3.069   5.929  18.223  0.00  0.00    +0.000 C 
ATOM      2  C   UNL     1       4.347   5.501  18.977  0.00  0.00    +0.000 C 
ATOM      3  C   UNL     1       4.924   4.174  18.439  0.00  0.00    +0.000 C 
ATOM      4  C   UNL     1       4.317   2.917  19.098  0.00  0.00    +0.000 C 
ATOM      5  C   UNL     1       3.235   2.436  18.131  0.00  0.00    +0.000 C 
ATOM      6  C   UNL     1       3.103   3.611  17.166  0.00  0.00    +0.000 C 
ATOM      7  C   UNL     1       2.224   4.709  17.836  0.00  0.00    +0.000 C 
ATOM      8  N   UNL     1       4.506   4.090  17.024  0.00  0.00    +0.000 NA
ENDROOT
BRANCH   1  11
ATOM      9  O   UNL     1       2.630   8.618  17.326  0.00  0.00    +0.000 OA
ATOM     10  C   UNL     1       2.136   8.237  18.383  0.00  0.00    +0.000 C 
ATOM     11  N   UNL     1       2.313   6.981  18.904  0.00  0.00    +0.000 N 
ATOM     12  H   UNL     1       1.793   6.708  19.727  0.00  0.00    +0.000 HD
BRANCH  10  13
ATOM     13  C   UNL     1       1.259   9.160  19.143  0.00  0.00    +0.000 A 
ATOM     14  C   UNL     1       0.869  10.351  18.518  0.00  0.00    +0.000 A 
ATOM     15  C   UNL     1       0.097  11.283  19.209  0.00  0.00    +0.000 A 
ATOM     16  C   UNL     1      -0.284  11.048  20.537  0.00  0.00    +0.000 A 
ATOM     17  C   UNL     1      -1.034  11.995  21.254  0.00  0.00    +0.000 A 
ATOM     18  C   UNL     1      -1.392  11.762  22.582  0.00  0.00    +0.000 A 
ATOM     19  C   UNL     1      -1.009  10.577  23.208  0.00  0.00    +0.000 A 
ATOM     20  C   UNL     1      -0.271   9.623  22.507  0.00  0.00    +0.000 A 
ATOM     21  C   UNL     1       0.104   9.843  21.171  0.00  0.00    +0.000 A 
ATOM     22  C   UNL     1       0.871   8.903  20.463  0.00  0.00    +0.000 A 
ENDBRANCH  10  13
ENDBRANCH   1  11
BRANCH   8  23
ATOM     23  C   UNL     1       5.363   3.190  16.234  0.00  0.00    +0.000 C 
BRANCH  23  24
ATOM     24  C   UNL     1       6.115   3.895  15.128  0.00  0.00    +0.000 A 
ATOM     25  C   UNL     1       5.914   3.592  13.779  0.00  0.00    +0.000 A 
ATOM     26  C   UNL     1       6.662   4.249  12.804  0.00  0.00    +0.000 A 
ATOM     27  C   UNL     1       7.590   5.193  13.210  0.00  0.00    +0.000 A 
ATOM     28  N   UNL     1       7.807   5.524  14.501  0.00  0.00    +0.000 NA
ATOM     29  C   UNL     1       7.065   4.870  15.425  0.00  0.00    +0.000 A 
ENDBRANCH  23  24
ENDBRANCH   8  23
TORSDOF 4
ENDMDL
MODEL 2
REMARK VINA RESULT:      -9.1      0.964      1.665
REMARK  Name = 
REMARK  4 active torsions:
REMARK  status: ('A' for Active; 'I' for Inactive)
REMARK    1  A    between atoms: C_2  and  C_19
REMARK    2  A    between atoms: N_3  and  C_4
REMARK    3  A    between atoms: N_11  and  C_12
REMARK    4  A    between atoms: C_12  and  C_13
REMARK                            x       y       z     vdW  Elec       q    Type
REMARK                         _______ _______ _______ _____ _____    ______ ____
ROOT
ATOM      1  C   UNL     1       2.905   5.794  19.150  0.00  0.00    +0.000 C 
ATOM      2  C   UNL     1       3.716   4.777  19.983  0.00  0.00    +0.000 C 
ATOM      3  C   UNL     1       4.129   3.543  19.153  0.00  0.00    +0.000 C 
ATOM      4  C   UNL     1       3.068   2.422  19.130  0.00  0.00    +0.000 C 
ATOM      5  C   UNL     1       2.305   2.615  17.819  0.00  0.00    +0.000 C 
ATOM      6  C   UNL     1       2.779   3.990  17.356  0.00  0.00    +0.000 C 
ATOM      7  C   UNL     1       1.994   5.079  18.145  0.00  0.00    +0.000 C 
ATOM      8  N   UNL     1       4.215   4.002  17.751  0.00  0.00    +0.000 NA
ENDROOT
BRANCH   1  11
ATOM      9  O   UNL     1       2.225   8.476  18.397  0.00  0.00    +0.000 OA
ATOM     10  C   UNL     1       1.912   8.054  19.505  0.00  0.00    +0.000 C 
ATOM     11  N   UNL     1       2.218   6.798  19.963  0.00  0.00    +0.000 N 
ATOM     12  H   UNL     1       1.839   6.488  20.848  0.00  0.00    +0.000 HD
BRANCH  10  13
ATOM     13  C   UNL     1       1.122   8.923  20.411  0.00  0.00    +0.000 A 
ATOM     14  C   UNL     1       1.155   8.637  21.782  0.00  0.00    +0.000 A 
ATOM     15  C   UNL     1       0.382   9.382  22.671  0.00  0.00    +0.000 A 
ATOM     16  C   UNL     1      -0.446  10.412  22.204  0.00  0.00    +0.000 A 
ATOM     17  C   UNL     1      -1.253  11.147  23.087  0.00  0.00    +0.000 A 
ATOM     18  C   UNL     1      -2.090  12.157  22.612  0.00  0.00    +0.000 A 
ATOM     19  C   UNL     1      -2.125  12.449  21.250  0.00  0.00    +0.000 A 
ATOM     20  C   UNL     1      -1.322  11.732  20.361  0.00  0.00    +0.000 A 
ATOM     21  C   UNL     1      -0.479  10.708  20.820  0.00  0.00    +0.000 A 
ATOM     22  C   UNL     1       0.314   9.960  19.933  0.00  0.00    +0.000 A 
ENDBRANCH  10  13
ENDBRANCH   1  11
BRANCH   8  23
ATOM     23  C   UNL     1       5.066   3.132  16.922  0.00  0.00    +0.000 C 
BRANCH  23  24
ATOM     24  C   UNL     1       5.848   3.884  15.869  0.00  0.00    +0.000 A 
ATOM     25  C   UNL     1       5.692   3.635  14.504  0.00  0.00    +0.000 A 
ATOM     26  C   UNL     1       6.466   4.333  13.580  0.00  0.00    +0.000 A 
ATOM     27  C   UNL     1       7.375   5.265  14.052  0.00  0.00    +0.000 A 
ATOM     28  N   UNL     1       7.550   5.544  15.362  0.00  0.00    +0.000 NA
ATOM     29  C   UNL     1       6.783   4.850  16.235  0.00  0.00    +0.000 A 
ENDBRANCH  23  24
ENDBRANCH   8  23
TORSDOF 4
ENDMDL
MODEL 3
REMARK VINA RESULT:      -9.0      1.450      2.483
REMARK  Name = 
REMARK  4 active torsions:
REMARK  status: ('A' for Active; 'I' for Inactive)
REMARK    1  A    between atoms: C_2  and  C_19
REMARK    2  A    between atoms: N_3  and  C_4
REMARK    3  A    between atoms: N_11  and  C_12
REMARK    4  A    between atoms: C_12  and  C_13
REMARK                            x       y       z     vdW  Elec       q    Type
REMARK                         _______ _______ _______ _____ _____    ______ ____
ROOT
ATOM      1  C   UNL     1       2.329   6.355  20.064  0.00  0.00    +0.000 C 
ATOM      2  C   UNL     1       2.277   4.981  20.768  0.00  0.00    +0.000 C 
ATOM      3  C   UNL     1       2.751   3.837  19.847  0.00  0.00    +0.000 C 
ATOM      4  C   UNL     1       1.633   3.240  18.966  0.00  0.00    +0.000 C 
ATOM      5  C   UNL     1       1.778   3.926  17.608  0.00  0.00    +0.000 C 
ATOM      6  C   UNL     1       2.752   5.062  17.910  0.00  0.00    +0.000 C 
ATOM      7  C   UNL     1       1.965   6.227  18.580  0.00  0.00    +0.000 C 
ATOM      8  N   UNL     1       3.693   4.448  18.887  0.00  0.00    +0.000 NA
ENDROOT
BRANCH   1  11
ATOM      9  O   UNL     1       1.746   9.005  19.134  0.00  0.00    +0.000 OA
ATOM     10  C   UNL     1       1.336   8.637  20.231  0.00  0.00    +0.000 C 
ATOM     11  N   UNL     1       1.587   7.401  20.769  0.00  0.00    +0.000 N 
ATOM     12  H   UNL     1       1.132   7.134  21.632  0.00  0.00    +0.000 HD
BRANCH  10  13
ATOM     13  C   UNL     1       0.482   9.552  21.026  0.00  0.00    +0.000 A 
ATOM     14  C   UNL     1       0.277   9.245  22.377  0.00  0.00    +0.000 A 
ATOM     15  C   UNL     1      -0.567  10.035  23.154  0.00  0.00    +0.000 A 
ATOM     16  C   UNL     1      -1.230  11.134  22.593  0.00  0.00    +0.000 A 
ATOM     17  C   UNL     1      -2.108  11.918  23.358  0.00  0.00    +0.000 A 
ATOM     18  C   UNL     1      -2.781  12.999  22.786  0.00  0.00    +0.000 A 
ATOM     19  C   UNL     1      -2.579  13.312  21.444  0.00  0.00    +0.000 A 
ATOM     20  C   UNL     1      -1.704  12.547  20.672  0.00  0.00    +0.000 A 
ATOM     21  C   UNL     1      -1.023  11.452  21.229  0.00  0.00    +0.000 A 
ATOM     22  C   UNL     1      -0.161  10.657  20.455  0.00  0.00    +0.000 A 
ENDBRANCH  10  13
ENDBRANCH   1  11
BRANCH   8  23
ATOM     23  C   UNL     1       4.610   3.463  18.289  0.00  0.00    +0.000 C 
BRANCH  23  24
ATOM     24  C   UNL     1       5.451   4.028  17.167  0.00  0.00    +0.000 A 
ATOM     25  C   UNL     1       5.116   3.853  15.822  0.00  0.00    +0.000 A 
ATOM     26  C   UNL     1       5.949   4.365  14.830  0.00  0.00    +0.000 A 
ATOM     27  C   UNL     1       7.094   5.042  15.215  0.00  0.00    +0.000 A 
ATOM     28  N   UNL     1       7.449   5.243  16.502  0.00  0.00    +0.000 NA
ATOM     29  C   UNL     1       6.620   4.734  17.443  0.00  0.00    +0.000 A 
ENDBRANCH  23  24
ENDBRANCH   8  23
TORSDOF 4
ENDMDL
MODEL 4
REMARK VINA RESULT:      -8.7      5.642      7.804
REMARK  Name = 
REMARK  4 active torsions:
REMARK  status: ('A' for Active; 'I' for Inactive)
REMARK    1  A    between atoms: C_2  and  C_19
REMARK    2  A    between atoms: N_3  and  C_4
REMARK    3  A    between atoms: N_11  and  C_12
REMARK    4  A    between atoms: C_12  and  C_13
REMARK                            x       y       z     vdW  Elec       q    Type
REMARK                         _______ _______ _______ _____ _____    ______ ____
ROOT
ATOM      1  C   UNL     1       6.613   7.002  17.327  0.00  0.00    +0.000 C 
ATOM      2  C   UNL     1       5.291   7.014  16.529  0.00  0.00    +0.000 C 
ATOM      3  C   UNL     1       4.886   5.604  16.050  0.00  0.00    +0.000 C 
ATOM      4  C   UNL     1       5.504   5.203  14.694  0.00  0.00    +0.000 C 
ATOM      5  C   UNL     1       6.728   4.355  15.042  0.00  0.00    +0.000 C 
ATOM      6  C   UNL     1       6.884   4.593  16.541  0.00  0.00    +0.000 C 
ATOM      7  C   UNL     1       7.589   5.965  16.757  0.00  0.00    +0.000 C 
ATOM      8  N   UNL     1       5.475   4.658  17.020  0.00  0.00    +0.000 NA
ENDROOT
BRANCH   1  11
ATOM      9  O   UNL     1       8.725   7.745  19.119  0.00  0.00    +0.000 OA
ATOM     10  C   UNL     1       8.228   8.586  18.376  0.00  0.00    +0.000 C 
ATOM     11  N   UNL     1       7.198   8.330  17.508  0.00  0.00    +0.000 N 
ATOM     12  H   UNL     1       6.910   9.049  16.856  0.00  0.00    +0.000 HD
BRANCH  10  13
ATOM     13  C   UNL     1       8.783   9.962  18.371  0.00  0.00    +0.000 A 
ATOM     14  C   UNL     1       8.112  10.932  17.617  0.00  0.00    +0.000 A 
ATOM     15  C   UNL     1       8.624  12.225  17.526  0.00  0.00    +0.000 A 
ATOM     16  C   UNL     1       9.820  12.564  18.174  0.00  0.00    +0.000 A 
ATOM     17  C   UNL     1      10.362  13.855  18.063  0.00  0.00    +0.000 A 
ATOM     18  C   UNL     1      11.563  14.179  18.694  0.00  0.00    +0.000 A 
ATOM     19  C   UNL     1      12.234  13.219  19.449  0.00  0.00    +0.000 A 
ATOM     20  C   UNL     1      11.703  11.934  19.576  0.00  0.00    +0.000 A 
ATOM     21  C   UNL     1      10.499  11.588  18.942  0.00  0.00    +0.000 A 
ATOM     22  C   UNL     1       9.968  10.291  19.038  0.00  0.00    +0.000 A 
ENDBRANCH  10  13
ENDBRANCH   1  11
BRANCH   8  23
ATOM     23  C   UNL     1       4.790   3.354  17.026  0.00  0.00    +0.000 C 
BRANCH  23  24
ATOM     24  C   UNL     1       3.618   3.296  17.979  0.00  0.00    +0.000 A 
ATOM     25  C   UNL     1       2.294   3.363  17.539  0.00  0.00    +0.000 A 
ATOM     26  C   UNL     1       1.254   3.342  18.466  0.00  0.00    +0.000 A 
ATOM     27  C   UNL     1       1.572   3.251  19.810  0.00  0.00    +0.000 A 
ATOM     28  N   UNL     1       2.836   3.172  20.278  0.00  0.00    +0.000 NA
ATOM     29  C   UNL     1       3.825   3.195  19.353  0.00  0.00    +0.000 A 
ENDBRANCH  23  24
ENDBRANCH   8  23
TORSDOF 4
ENDMDL
MODEL 5
REMARK VINA RESULT:      -8.7      0.818      1.624
REMARK  Name = 
REMARK  4 active torsions:
REMARK  status: ('A' for Active; 'I' for Inactive)
REMARK    1  A    between atoms: C_2  and  C_19
REMARK    2  A    between atoms: N_3  and  C_4
REMARK    3  A    between atoms: N_11  and  C_12
REMARK    4  A    between atoms: C_12  and  C_13
REMARK                            x       y       z     vdW  Elec       q    Type
REMARK                         _______ _______ _______ _____ _____    ______ ____
ROOT
ATOM      1  C   UNL     1       2.921   6.035  18.136  0.00  0.00    +0.000 C 
ATOM      2  C   UNL     1       4.256   5.729  18.850  0.00  0.00    +0.000 C 
ATOM      3  C   UNL     1       4.867   4.388  18.393  0.00  0.00    +0.000 C 
ATOM      4  C   UNL     1       4.356   3.166  19.187  0.00  0.00    +0.000 C 
ATOM      5  C   UNL     1       3.250   2.558  18.324  0.00  0.00    +0.000 C 
ATOM      6  C   UNL     1       3.012   3.639  17.274  0.00  0.00    +0.000 C 
ATOM      7  C   UNL     1       2.117   4.751  17.898  0.00  0.00    +0.000 C 
ATOM      8  N   UNL     1       4.381   4.165  17.015  0.00  0.00    +0.000 NA
ENDROOT
BRANCH   1  11
ATOM      9  O   UNL     1       2.650   8.746  17.239  0.00  0.00    +0.000 OA
ATOM     10  C   UNL     1       2.061   8.374  18.249  0.00  0.00    +0.000 C 
ATOM     11  N   UNL     1       2.153   7.107  18.768  0.00  0.00    +0.000 N 
ATOM     12  H   UNL     1       1.559   6.847  19.545  0.00  0.00    +0.000 HD
BRANCH  10  13
ATOM     13  C   UNL     1       1.160   9.321  18.949  0.00  0.00    +0.000 A 
ATOM     14  C   UNL     1       1.347   9.502  20.326  0.00  0.00    +0.000 A 
ATOM     15  C   UNL     1       0.489  10.332  21.045  0.00  0.00    +0.000 A 
ATOM     16  C   UNL     1      -0.576  10.981  20.405  0.00  0.00    +0.000 A 
ATOM     17  C   UNL     1      -1.466  11.793  21.126  0.00  0.00    +0.000 A 
ATOM     18  C   UNL     1      -2.535  12.420  20.485  0.00  0.00    +0.000 A 
ATOM     19  C   UNL     1      -2.724  12.247  19.116  0.00  0.00    +0.000 A 
ATOM     20  C   UNL     1      -1.844  11.449  18.384  0.00  0.00    +0.000 A 
ATOM     21  C   UNL     1      -0.765  10.805  19.013  0.00  0.00    +0.000 A 
ATOM     22  C   UNL     1       0.112   9.977  18.294  0.00  0.00    +0.000 A 
ENDBRANCH  10  13
ENDBRANCH   1  11
BRANCH   8  23
ATOM     23  C   UNL     1       5.239   3.239  16.256  0.00  0.00    +0.000 C 
BRANCH  23  24
ATOM     24  C   UNL     1       6.035   3.916  15.165  0.00  0.00    +0.000 A 
ATOM     25  C   UNL     1       5.824   3.649  13.810  0.00  0.00    +0.000 A 
ATOM     26  C   UNL     1       6.614   4.276  12.850  0.00  0.00    +0.000 A 
ATOM     27  C   UNL     1       7.594   5.158  13.275  0.00  0.00    +0.000 A 
ATOM     28  N   UNL     1       7.824   5.453  14.572  0.00  0.00    +0.000 NA
ATOM     29  C   UNL     1       7.040   4.828  15.482  0.00  0.00    +0.000 A 
ENDBRANCH  23  24
ENDBRANCH   8  23
TORSDOF 4
ENDMDL
MODEL 6
REMARK VINA RESULT:      -8.7      1.211      1.609
REMARK  Name = 
REMARK  4 active torsions:
REMARK  status: ('A' for Active; 'I' for Inactive)
REMARK    1  A    between atoms: C_2  and  C_19
REMARK    2  A    between atoms: N_3  and  C_4
REMARK    3  A    between atoms: N_11  and  C_12
REMARK    4  A    between atoms: C_12  and  C_13
REMARK                            x       y       z     vdW  Elec       q    Type
REMARK                         _______ _______ _______ _____ _____    ______ ____
ROOT
ATOM      1  C   UNL     1       2.580   6.857  19.322  0.00  0.00    +0.000 C 
ATOM      2  C   UNL     1       2.820   5.741  20.362  0.00  0.00    +0.000 C 
ATOM      3  C   UNL     1       3.487   4.497  19.739  0.00  0.00    +0.000 C 
ATOM      4  C   UNL     1       2.486   3.488  19.136  0.00  0.00    +0.000 C 
ATOM      5  C   UNL     1       2.456   3.794  17.638  0.00  0.00    +0.000 C 
ATOM      6  C   UNL     1       3.194   5.127  17.555  0.00  0.00    +0.000 C 
ATOM      7  C   UNL     1       2.210   6.266  17.956  0.00  0.00    +0.000 C 
ATOM      8  N   UNL     1       4.263   4.986  18.581  0.00  0.00    +0.000 NA
ENDROOT
BRANCH   1  11
ATOM      9  O   UNL     1       2.081   9.403  18.099  0.00  0.00    +0.000 OA
ATOM     10  C   UNL     1       1.473   9.083  19.116  0.00  0.00    +0.000 C 
ATOM     11  N   UNL     1       1.666   7.901  19.784  0.00  0.00    +0.000 N 
ATOM     12  H   UNL     1       1.056   7.664  20.557  0.00  0.00    +0.000 HD
BRANCH  10  13
ATOM     13  C   UNL     1       0.436   9.996  19.654  0.00  0.00    +0.000 A 
ATOM     14  C   UNL     1      -0.182  10.879  18.761  0.00  0.00    +0.000 A 
ATOM     15  C   UNL     1      -1.118  11.802  19.223  0.00  0.00    +0.000 A 
ATOM     16  C   UNL     1      -1.440  11.867  20.586  0.00  0.00    +0.000 A 
ATOM     17  C   UNL     1      -2.357  12.814  21.068  0.00  0.00    +0.000 A 
ATOM     18  C   UNL     1      -2.657  12.886  22.429  0.00  0.00    +0.000 A 
ATOM     19  C   UNL     1      -2.048  12.008  23.323  0.00  0.00    +0.000 A 
ATOM     20  C   UNL     1      -1.140  11.056  22.858  0.00  0.00    +0.000 A 
ATOM     21  C   UNL     1      -0.822  10.973  21.493  0.00  0.00    +0.000 A 
ATOM     22  C   UNL     1       0.112  10.037  21.015  0.00  0.00    +0.000 A 
ENDBRANCH  10  13
ENDBRANCH   1  11
BRANCH   8  23
ATOM     23  C   UNL     1       5.341   4.060  18.191  0.00  0.00    +0.000 C 
BRANCH  23  24
ATOM     24  C   UNL     1       5.939   4.370  16.838  0.00  0.00    +0.000 A 
ATOM     25  C   UNL     1       5.632   3.624  15.698  0.00  0.00    +0.000 A 
ATOM     26  C   UNL     1       6.242   3.933  14.484  0.00  0.00    +0.000 A 
ATOM     27  C   UNL     1       7.142   4.984  14.448  0.00  0.00    +0.000 A 
ATOM     28  N   UNL     1       7.459   5.738  15.523  0.00  0.00    +0.000 NA
ATOM     29  C   UNL     1       6.850   5.414  16.687  0.00  0.00    +0.000 A 
ENDBRANCH  23  24
ENDBRANCH   8  23
TORSDOF 4
ENDMDL
MODEL 7
REMARK VINA RESULT:      -8.5      1.751      2.379
REMARK  Name = 
REMARK  4 active torsions:
REMARK  status: ('A' for Active; 'I' for Inactive)
REMARK    1  A    between atoms: C_2  and  C_19
REMARK    2  A    between atoms: N_3  and  C_4
REMARK    3  A    between atoms: N_11  and  C_12
REMARK    4  A    between atoms: C_12  and  C_13
REMARK                            x       y       z     vdW  Elec       q    Type
REMARK                         _______ _______ _______ _____ _____    ______ ____
ROOT
ATOM      1  C   UNL     1       2.576   7.016  18.878  0.00  0.00    +0.000 C 
ATOM      2  C   UNL     1       3.058   6.221  20.111  0.00  0.00    +0.000 C 
ATOM      3  C   UNL     1       3.800   4.927  19.716  0.00  0.00    +0.000 C 
ATOM      4  C   UNL     1       2.870   3.712  19.506  0.00  0.00    +0.000 C 
ATOM      5  C   UNL     1       2.644   3.632  17.996  0.00  0.00    +0.000 C 
ATOM      6  C   UNL     1       3.202   4.965  17.504  0.00  0.00    +0.000 C 
ATOM      7  C   UNL     1       2.135   6.072  17.753  0.00  0.00    +0.000 C 
ATOM      8  N   UNL     1       4.384   5.181  18.383  0.00  0.00    +0.000 NA
ENDROOT
BRANCH   1  11
ATOM      9  O   UNL     1       2.104   9.465  17.462  0.00  0.00    +0.000 OA
ATOM     10  C   UNL     1       1.425   9.186  18.445  0.00  0.00    +0.000 C 
ATOM     11  N   UNL     1       1.596   8.054  19.199  0.00  0.00    +0.000 N 
ATOM     12  H   UNL     1       0.932   7.843  19.933  0.00  0.00    +0.000 HD
BRANCH  10  13
ATOM     13  C   UNL     1       0.320  10.094  18.839  0.00  0.00    +0.000 A 
ATOM     14  C   UNL     1       0.519  10.917  19.955  0.00  0.00    +0.000 A 
ATOM     15  C   UNL     1      -0.508  11.743  20.407  0.00  0.00    +0.000 A 
ATOM     16  C   UNL     1      -1.752  11.749  19.763  0.00  0.00    +0.000 A 
ATOM     17  C   UNL     1      -2.805  12.553  20.230  0.00  0.00    +0.000 A 
ATOM     18  C   UNL     1      -4.047  12.538  19.596  0.00  0.00    +0.000 A 
ATOM     19  C   UNL     1      -4.251  11.724  18.484  0.00  0.00    +0.000 A 
ATOM     20  C   UNL     1      -3.213  10.926  18.003  0.00  0.00    +0.000 A 
ATOM     21  C   UNL     1      -1.957  10.923  18.633  0.00  0.00    +0.000 A 
ATOM     22  C   UNL     1      -0.912  10.102  18.175  0.00  0.00    +0.000 A 
ENDBRANCH  10  13
ENDBRANCH   1  11
BRANCH   8  23
ATOM     23  C   UNL     1       5.518   4.290  18.082  0.00  0.00    +0.000 C 
BRANCH  23  24
ATOM     24  C   UNL     1       6.071   4.471  16.688  0.00  0.00    +0.000 A 
ATOM     25  C   UNL     1       5.676   3.665  15.617  0.00  0.00    +0.000 A 
ATOM     26  C   UNL     1       6.247   3.854  14.361  0.00  0.00    +0.000 A 
ATOM     27  C   UNL     1       7.198   4.849  14.212  0.00  0.00    +0.000 A 
ATOM     28  N   UNL     1       7.600   5.658  15.216  0.00  0.00    +0.000 NA
ATOM     29  C   UNL     1       7.027   5.451  16.425  0.00  0.00    +0.000 A 
ENDBRANCH  23  24
ENDBRANCH   8  23
TORSDOF 4
ENDMDL
MODEL 8
REMARK VINA RESULT:      -8.5      1.078      1.797
REMARK  Name = 
REMARK  4 active torsions:
REMARK  status: ('A' for Active; 'I' for Inactive)
REMARK    1  A    between atoms: C_2  and  C_19
REMARK    2  A    between atoms: N_3  and  C_4
REMARK    3  A    between atoms: N_11  and  C_12
REMARK    4  A    between atoms: C_12  and  C_13
REMARK                            x       y       z     vdW  Elec       q    Type
REMARK                         _______ _______ _______ _____ _____    ______ ____
ROOT
ATOM      1  C   UNL     1       3.118   6.215  18.178  0.00  0.00    +0.000 C 
ATOM      2  C   UNL     1       4.399   5.790  18.927  0.00  0.00    +0.000 C 
ATOM      3  C   UNL     1       4.933   4.426  18.441  0.00  0.00    +0.000 C 
ATOM      4  C   UNL     1       4.308   3.216  19.169  0.00  0.00    +0.000 C 
ATOM      5  C   UNL     1       3.196   2.718  18.246  0.00  0.00    +0.000 C 
ATOM      6  C   UNL     1       3.074   3.851  17.229  0.00  0.00    +0.000 C 
ATOM      7  C   UNL     1       2.236   5.000  17.863  0.00  0.00    +0.000 C 
ATOM      8  N   UNL     1       4.486   4.287  17.040  0.00  0.00    +0.000 NA
ENDROOT
BRANCH   1  11
ATOM      9  O   UNL     1       1.849   6.199  20.750  0.00  0.00    +0.000 OA
ATOM     10  C   UNL     1       1.846   7.222  20.072  0.00  0.00    +0.000 C 
ATOM     11  N   UNL     1       2.402   7.316  18.822  0.00  0.00    +0.000 N 
ATOM     12  H   UNL     1       2.448   8.219  18.367  0.00  0.00    +0.000 HD
BRANCH  10  13
ATOM     13  C   UNL     1       1.243   8.456  20.632  0.00  0.00    +0.000 A 
ATOM     14  C   UNL     1       0.995   8.494  22.009  0.00  0.00    +0.000 A 
ATOM     15  C   UNL     1       0.373   9.603  22.579  0.00  0.00    +0.000 A 
ATOM     16  C   UNL     1      -0.024  10.684  21.780  0.00  0.00    +0.000 A 
ATOM     17  C   UNL     1      -0.681  11.793  22.338  0.00  0.00    +0.000 A 
ATOM     18  C   UNL     1      -1.091  12.856  21.532  0.00  0.00    +0.000 A 
ATOM     19  C   UNL     1      -0.845  12.827  20.162  0.00  0.00    +0.000 A 
ATOM     20  C   UNL     1      -0.186  11.735  19.594  0.00  0.00    +0.000 A 
ATOM     21  C   UNL     1       0.229  10.653  20.388  0.00  0.00    +0.000 A 
ATOM     22  C   UNL     1       0.868   9.536  19.824  0.00  0.00    +0.000 A 
ENDBRANCH  10  13
ENDBRANCH   1  11
BRANCH   8  23
ATOM     23  C   UNL     1       5.305   3.330  16.277  0.00  0.00    +0.000 C 
BRANCH  23  24
ATOM     24  C   UNL     1       6.078   3.969  15.146  0.00  0.00    +0.000 A 
ATOM     25  C   UNL     1       5.877   3.613  13.810  0.00  0.00    +0.000 A 
ATOM     26  C   UNL     1       6.645   4.209  12.812  0.00  0.00    +0.000 A 
ATOM     27  C   UNL     1       7.591   5.150  13.183  0.00  0.00    +0.000 A 
ATOM     28  N   UNL     1       7.810   5.531  14.459  0.00  0.00    +0.000 NA
ATOM     29  C   UNL     1       7.048   4.934  15.406  0.00  0.00    +0.000 A 
ENDBRANCH  23  24
ENDBRANCH   8  23
TORSDOF 4
ENDMDL
MODEL 9
REMARK VINA RESULT:      -8.4      5.546      8.015
REMARK  Name = 
REMARK  4 active torsions:
REMARK  status: ('A' for Active; 'I' for Inactive)
REMARK    1  A    between atoms: C_2  and  C_19
REMARK    2  A    between atoms: N_3  and  C_4
REMARK    3  A    between atoms: N_11  and  C_12
REMARK    4  A    between atoms: C_12  and  C_13
REMARK                            x       y       z     vdW  Elec       q    Type
REMARK                         _______ _______ _______ _____ _____    ______ ____
ROOT
ATOM      1  C   UNL     1       7.096   6.452  18.046  0.00  0.00    +0.000 C 
ATOM      2  C   UNL     1       5.723   6.968  17.561  0.00  0.00    +0.000 C 
ATOM      3  C   UNL     1       4.911   5.872  16.840  0.00  0.00    +0.000 C 
ATOM      4  C   UNL     1       5.213   5.762  15.330  0.00  0.00    +0.000 C 
ATOM      5  C   UNL     1       6.217   4.616  15.201  0.00  0.00    +0.000 C 
ATOM      6  C   UNL     1       6.634   4.372  16.649  0.00  0.00    +0.000 C 
ATOM      7  C   UNL     1       7.688   5.446  17.051  0.00  0.00    +0.000 C 
ATOM      8  N   UNL     1       5.368   4.585  17.405  0.00  0.00    +0.000 NA
ENDROOT
BRANCH   1  11
ATOM      9  O   UNL     1       7.198   9.123  17.005  0.00  0.00    +0.000 OA
ATOM     10  C   UNL     1       7.976   8.781  17.890  0.00  0.00    +0.000 C 
ATOM     11  N   UNL     1       8.019   7.521  18.428  0.00  0.00    +0.000 N 
ATOM     12  H   UNL     1       8.619   7.343  19.224  0.00  0.00    +0.000 HD
BRANCH  10  13
ATOM     13  C   UNL     1       8.911   9.784  18.455  0.00  0.00    +0.000 A 
ATOM     14  C   UNL     1       8.976   9.902  19.849  0.00  0.00    +0.000 A 
ATOM     15  C   UNL     1       9.791  10.870  20.432  0.00  0.00    +0.000 A 
ATOM     16  C   UNL     1      10.541  11.745  19.634  0.00  0.00    +0.000 A 
ATOM     17  C   UNL     1      11.339  12.746  20.209  0.00  0.00    +0.000 A 
ATOM     18  C   UNL     1      12.066  13.625  19.407  0.00  0.00    +0.000 A 
ATOM     19  C   UNL     1      12.009  13.511  18.020  0.00  0.00    +0.000 A 
ATOM     20  C   UNL     1      11.225  12.517  17.433  0.00  0.00    +0.000 A 
ATOM     21  C   UNL     1      10.482  11.626  18.224  0.00  0.00    +0.000 A 
ATOM     22  C   UNL     1       9.668  10.638  17.645  0.00  0.00    +0.000 A 
ENDBRANCH  10  13
ENDBRANCH   1  11
BRANCH   8  23
ATOM     23  C   UNL     1       4.381   3.506  17.226  0.00  0.00    +0.000 C 
BRANCH  23  24
ATOM     24  C   UNL     1       3.398   3.396  18.368  0.00  0.00    +0.000 A 
ATOM     25  C   UNL     1       2.082   3.855  18.268  0.00  0.00    +0.000 A 
ATOM     26  C   UNL     1       1.231   3.761  19.367  0.00  0.00    +0.000 A 
ATOM     27  C   UNL     1       1.723   3.206  20.536  0.00  0.00    +0.000 A 
ATOM     28  N   UNL     1       2.983   2.740  20.672  0.00  0.00    +0.000 NA
ATOM     29  C   UNL     1       3.786   2.845  19.588  0.00  0.00    +0.000 A 
ENDBRANCH  23  24
ENDBRANCH   8  23
TORSDOF 4
ENDMDL
