MODEL 1
REMARK VINA RESULT:      -7.3      0.000      0.000
REMARK  Name = 
REMARK  5 active torsions:
REMARK  status: ('A' for Active; 'I' for Inactive)
REMARK    1  A    between atoms: C_1  and  N_2
REMARK    2  A    between atoms: N_2  and  C_3
REMARK    3  A    between atoms: N_2  and  C_4
REMARK    4  A    between atoms: C_7  and  C_8
REMARK    5  A    between atoms: C_14  and  C_15
REMARK                            x       y       z     vdW  Elec       q    Type
REMARK                         _______ _______ _______ _____ _____    ______ ____
ROOT
ATOM      1  C   UNL     1       3.945   3.241  17.770  0.00  0.00    +0.000 A 
ATOM      2  C   UNL     1       3.595   1.903  17.785  0.00  0.00    +0.000 A 
ATOM      3  N   UNL     1       2.556   1.728  18.655  0.00  0.00    +0.000 N 
ATOM      4  C   UNL     1       2.204   2.928  19.225  0.00  0.00    +0.000 A 
ATOM      5  C   UNL     1       1.197   3.211  20.158  0.00  0.00    +0.000 A 
ATOM      6  C   UNL     1       1.054   4.536  20.577  0.00  0.00    +0.000 A 
ATOM      7  C   UNL     1       1.899   5.535  20.091  0.00  0.00    +0.000 A 
ATOM      8  C   UNL     1       2.910   5.225  19.163  0.00  0.00    +0.000 A 
ATOM      9  C   UNL     1       3.063   3.897  18.705  0.00  0.00    +0.000 A 
ATOM     10  H   UNL     1       2.107   0.844  18.858  0.00  0.00    +0.000 HD
ENDROOT
BRANCH   1  14
ATOM     11  C   UNL     1       6.920   5.395  16.903  0.00  0.00    +0.000 C 
ATOM     12  C   UNL     1       5.693   6.113  16.315  0.00  0.00    +0.000 C 
ATOM     13  C   UNL     1       4.642   5.031  16.071  0.00  0.00    +0.000 C 
ATOM     14  C   UNL     1       5.053   3.829  16.932  0.00  0.00    +0.000 C 
ATOM     15  C   UNL     1       6.259   4.298  17.751  0.00  0.00    +0.000 C 
BRANCH  11  17
ATOM     16  C   UNL     1       7.492   7.698  17.520  0.00  0.00    +0.000 C 
ATOM     17  N   UNL     1       7.801   6.275  17.695  0.00  0.00    +0.000 NA
ATOM     18  C   UNL     1       7.768   5.955  19.124  0.00  0.00    +0.000 C 
ENDBRANCH  11  17
ENDBRANCH   1  14
BRANCH   7  19
ATOM     19  C   UNL     1       1.728   6.891  20.531  0.00  0.00    +0.000 C 
ATOM     20  N   UNL     1       1.602   7.988  20.883  0.00  0.00    +0.000 NA
ENDBRANCH   7  19
TORSDOF 3
ENDMDL
MODEL 2
REMARK VINA RESULT:      -6.7      2.585      6.727
REMARK  Name = 
REMARK  5 active torsions:
REMARK  status: ('A' for Active; 'I' for Inactive)
REMARK    1  A    between atoms: C_1  and  N_2
REMARK    2  A    between atoms: N_2  and  C_3
REMARK    3  A    between atoms: N_2  and  C_4
REMARK    4  A    between atoms: C_7  and  C_8
REMARK    5  A    between atoms: C_14  and  C_15
REMARK                            x       y       z     vdW  Elec       q    Type
REMARK                         _______ _______ _______ _____ _____    ______ ____
ROOT
ATOM      1  C   UNL     1       4.462   4.436  17.052  0.00  0.00    +0.000 A 
ATOM      2  C   UNL     1       5.132   5.292  17.906  0.00  0.00    +0.000 A 
ATOM      3  N   UNL     1       6.264   5.740  17.285  0.00  0.00    +0.000 N 
ATOM      4  C   UNL     1       6.364   5.197  16.027  0.00  0.00    +0.000 A 
ATOM      5  C   UNL     1       7.350   5.385  15.049  0.00  0.00    +0.000 A 
ATOM      6  C   UNL     1       7.206   4.700  13.841  0.00  0.00    +0.000 A 
ATOM      7  C   UNL     1       6.122   3.847  13.627  0.00  0.00    +0.000 A 
ATOM      8  C   UNL     1       5.149   3.664  14.627  0.00  0.00    +0.000 A 
ATOM      9  C   UNL     1       5.259   4.362  15.851  0.00  0.00    +0.000 A 
ATOM     10  H   UNL     1       6.938   6.378  17.689  0.00  0.00    +0.000 HD
ENDROOT
BRANCH   1  14
ATOM     11  C   UNL     1       1.488   3.347  19.103  0.00  0.00    +0.000 C 
ATOM     12  C   UNL     1       2.476   2.168  19.133  0.00  0.00    +0.000 C 
ATOM     13  C   UNL     1       3.322   2.288  17.866  0.00  0.00    +0.000 C 
ATOM     14  C   UNL     1       3.167   3.736  17.381  0.00  0.00    +0.000 C 
ATOM     15  C   UNL     1       2.339   4.447  18.455  0.00  0.00    +0.000 C 
BRANCH  11  17
ATOM     16  C   UNL     1       1.343   2.770  21.482  0.00  0.00    +0.000 C 
ATOM     17  N   UNL     1       0.977   3.729  20.434  0.00  0.00    +0.000 NA
ATOM     18  C   UNL     1       1.422   5.065  20.837  0.00  0.00    +0.000 C 
ENDBRANCH  11  17
ENDBRANCH   1  14
BRANCH   7  19
ATOM     19  C   UNL     1       5.992   3.158  12.373  0.00  0.00    +0.000 C 
ATOM     20  N   UNL     1       5.896   2.595  11.365  0.00  0.00    +0.000 NA
ENDBRANCH   7  19
TORSDOF 3
ENDMDL
MODEL 3
REMARK VINA RESULT:      -6.6      2.982      5.708
REMARK  Name = 
REMARK  5 active torsions:
REMARK  status: ('A' for Active; 'I' for Inactive)
REMARK    1  A    between atoms: C_1  and  N_2
REMARK    2  A    between atoms: N_2  and  C_3
REMARK    3  A    between atoms: N_2  and  C_4
REMARK    4  A    between atoms: C_7  and  C_8
REMARK    5  A    between atoms: C_14  and  C_15
REMARK                            x       y       z     vdW  Elec       q    Type
REMARK                         _______ _______ _______ _____ _____    ______ ____
ROOT
ATOM      1  C   UNL     1       2.464   6.991  19.238  0.00  0.00    +0.000 A 
ATOM      2  C   UNL     1       2.789   7.243  17.918  0.00  0.00    +0.000 A 
ATOM      3  N   UNL     1       2.341   8.491  17.583  0.00  0.00    +0.000 N 
ATOM      4  C   UNL     1       1.721   9.079  18.659  0.00  0.00    +0.000 A 
ATOM      5  C   UNL     1       1.127  10.344  18.764  0.00  0.00    +0.000 A 
ATOM      6  C   UNL     1       0.558  10.695  19.991  0.00  0.00    +0.000 A 
ATOM      7  C   UNL     1       0.572   9.804  21.066  0.00  0.00    +0.000 A 
ATOM      8  C   UNL     1       1.164   8.535  20.934  0.00  0.00    +0.000 A 
ATOM      9  C   UNL     1       1.765   8.163  19.711  0.00  0.00    +0.000 A 
ATOM     10  H   UNL     1       2.445   8.923  16.675  0.00  0.00    +0.000 HD
ENDROOT
BRANCH   1  14
ATOM     11  C   UNL     1       2.638   3.284  19.918  0.00  0.00    +0.000 C 
ATOM     12  C   UNL     1       1.458   3.811  20.752  0.00  0.00    +0.000 C 
ATOM     13  C   UNL     1       1.748   5.288  21.016  0.00  0.00    +0.000 C 
ATOM     14  C   UNL     1       2.790   5.715  19.973  0.00  0.00    +0.000 C 
ATOM     15  C   UNL     1       2.974   4.505  19.052  0.00  0.00    +0.000 C 
BRANCH  11  17
ATOM     16  C   UNL     1       0.927   2.084  18.635  0.00  0.00    +0.000 C 
ATOM     17  N   UNL     1       2.312   2.087  19.117  0.00  0.00    +0.000 NA
ATOM     18  C   UNL     1       3.213   1.923  17.973  0.00  0.00    +0.000 C 
ENDBRANCH  11  17
ENDBRANCH   1  14
BRANCH   7  19
ATOM     19  C   UNL     1      -0.012  10.190  22.320  0.00  0.00    +0.000 C 
ATOM     20  N   UNL     1      -0.478  10.492  23.337  0.00  0.00    +0.000 NA
ENDBRANCH   7  19
TORSDOF 3
ENDMDL
MODEL 4
REMARK VINA RESULT:      -6.6      1.848      2.634
REMARK  Name = 
REMARK  5 active torsions:
REMARK  status: ('A' for Active; 'I' for Inactive)
REMARK    1  A    between atoms: C_1  and  N_2
REMARK    2  A    between atoms: N_2  and  C_3
REMARK    3  A    between atoms: N_2  and  C_4
REMARK    4  A    between atoms: C_7  and  C_8
REMARK    5  A    between atoms: C_14  and  C_15
REMARK                            x       y       z     vdW  Elec       q    Type
REMARK                         _______ _______ _______ _____ _____    ______ ____
ROOT
ATOM      1  C   UNL     1       4.063   4.168  17.591  0.00  0.00    +0.000 A 
ATOM      2  C   UNL     1       3.892   2.800  17.482  0.00  0.00    +0.000 A 
ATOM      3  N   UNL     1       2.938   2.401  18.375  0.00  0.00    +0.000 N 
ATOM      4  C   UNL     1       2.465   3.481  19.081  0.00  0.00    +0.000 A 
ATOM      5  C   UNL     1       1.486   3.533  20.082  0.00  0.00    +0.000 A 
ATOM      6  C   UNL     1       1.195   4.779  20.643  0.00  0.00    +0.000 A 
ATOM      7  C   UNL     1       1.871   5.926  20.226  0.00  0.00    +0.000 A 
ATOM      8  C   UNL     1       2.859   5.848  19.227  0.00  0.00    +0.000 A 
ATOM      9  C   UNL     1       3.158   4.604  18.628  0.00  0.00    +0.000 A 
ATOM     10  H   UNL     1       2.622   1.449  18.505  0.00  0.00    +0.000 HD
ENDROOT
BRANCH   1  14
ATOM     11  C   UNL     1       6.524   4.960  14.843  0.00  0.00    +0.000 C 
ATOM     12  C   UNL     1       7.369   4.669  16.095  0.00  0.00    +0.000 C 
ATOM     13  C   UNL     1       6.476   4.983  17.294  0.00  0.00    +0.000 C 
ATOM     14  C   UNL     1       5.033   4.980  16.770  0.00  0.00    +0.000 C 
ATOM     15  C   UNL     1       5.125   4.534  15.308  0.00  0.00    +0.000 C 
BRANCH  11  17
ATOM     16  C   UNL     1       5.871   3.584  12.921  0.00  0.00    +0.000 C 
ATOM     17  N   UNL     1       6.973   4.232  13.640  0.00  0.00    +0.000 NA
ATOM     18  C   UNL     1       7.704   5.095  12.709  0.00  0.00    +0.000 C 
ENDBRANCH  11  17
ENDBRANCH   1  14
BRANCH   7  19
ATOM     19  C   UNL     1       1.550   7.197  20.812  0.00  0.00    +0.000 C 
ATOM     20  N   UNL     1       1.292   8.218  21.297  0.00  0.00    +0.000 NA
ENDBRANCH   7  19
TORSDOF 3
ENDMDL
MODEL 5
REMARK VINA RESULT:      -6.5      2.684      5.464
REMARK  Name = 
REMARK  5 active torsions:
REMARK  status: ('A' for Active; 'I' for Inactive)
REMARK    1  A    between atoms: C_1  and  N_2
REMARK    2  A    between atoms: N_2  and  C_3
REMARK    3  A    between atoms: N_2  and  C_4
REMARK    4  A    between atoms: C_7  and  C_8
REMARK    5  A    between atoms: C_14  and  C_15
REMARK                            x       y       z     vdW  Elec       q    Type
REMARK                         _______ _______ _______ _____ _____    ______ ____
ROOT
ATOM      1  C   UNL     1       2.351   7.418  19.210  0.00  0.00    +0.000 A 
ATOM      2  C   UNL     1       2.642   7.739  17.897  0.00  0.00    +0.000 A 
ATOM      3  N   UNL     1       2.078   8.948  17.602  0.00  0.00    +0.000 N 
ATOM      4  C   UNL     1       1.412   9.444  18.697  0.00  0.00    +0.000 A 
ATOM      5  C   UNL     1       0.704  10.644  18.843  0.00  0.00    +0.000 A 
ATOM      6  C   UNL     1       0.114  10.904  20.082  0.00  0.00    +0.000 A 
ATOM      7  C   UNL     1       0.217   9.987  21.129  0.00  0.00    +0.000 A 
ATOM      8  C   UNL     1       0.924   8.782  20.957  0.00  0.00    +0.000 A 
ATOM      9  C   UNL     1       1.549   8.505  19.721  0.00  0.00    +0.000 A 
ATOM     10  H   UNL     1       2.135   9.416  16.707  0.00  0.00    +0.000 HD
ENDROOT
BRANCH   1  14
ATOM     11  C   UNL     1       3.619   3.884  19.586  0.00  0.00    +0.000 C 
ATOM     12  C   UNL     1       2.097   3.811  19.794  0.00  0.00    +0.000 C 
ATOM     13  C   UNL     1       1.666   5.192  20.283  0.00  0.00    +0.000 C 
ATOM     14  C   UNL     1       2.798   6.156  19.905  0.00  0.00    +0.000 C 
ATOM     15  C   UNL     1       3.794   5.326  19.089  0.00  0.00    +0.000 C 
BRANCH  11  17
ATOM     16  C   UNL     1       3.310   1.676  18.566  0.00  0.00    +0.000 C 
ATOM     17  N   UNL     1       4.139   2.884  18.633  0.00  0.00    +0.000 NA
ATOM     18  C   UNL     1       4.289   3.431  17.282  0.00  0.00    +0.000 C 
ENDBRANCH  11  17
ENDBRANCH   1  14
BRANCH   7  19
ATOM     19  C   UNL     1      -0.393  10.279  22.397  0.00  0.00    +0.000 C 
ATOM     20  N   UNL     1      -0.877  10.506  23.425  0.00  0.00    +0.000 NA
ENDBRANCH   7  19
TORSDOF 3
ENDMDL
MODEL 6
REMARK VINA RESULT:      -6.5      2.431      6.091
REMARK  Name = 
REMARK  5 active torsions:
REMARK  status: ('A' for Active; 'I' for Inactive)
REMARK    1  A    between atoms: C_1  and  N_2
REMARK    2  A    between atoms: N_2  and  C_3
REMARK    3  A    between atoms: N_2  and  C_4
REMARK    4  A    between atoms: C_7  and  C_8
REMARK    5  A    between atoms: C_14  and  C_15
REMARK                            x       y       z     vdW  Elec       q    Type
REMARK                         _______ _______ _______ _____ _____    ______ ____
ROOT
ATOM      1  C   UNL     1       2.637   6.287  18.748  0.00  0.00    +0.000 A 
ATOM      2  C   UNL     1       1.825   5.344  19.351  0.00  0.00    +0.000 A 
ATOM      3  N   UNL     1       2.213   4.099  18.942  0.00  0.00    +0.000 N 
ATOM      4  C   UNL     1       3.274   4.192  18.074  0.00  0.00    +0.000 A 
ATOM      5  C   UNL     1       3.986   3.175  17.423  0.00  0.00    +0.000 A 
ATOM      6  C   UNL     1       5.034   3.552  16.580  0.00  0.00    +0.000 A 
ATOM      7  C   UNL     1       5.345   4.899  16.386  0.00  0.00    +0.000 A 
ATOM      8  C   UNL     1       4.610   5.904  17.041  0.00  0.00    +0.000 A 
ATOM      9  C   UNL     1       3.558   5.549  17.916  0.00  0.00    +0.000 A 
ATOM     10  H   UNL     1       1.784   3.230  19.231  0.00  0.00    +0.000 HD
ENDROOT
BRANCH   1  14
ATOM     11  C   UNL     1       1.047   9.587  19.651  0.00  0.00    +0.000 C 
ATOM     12  C   UNL     1       0.976   9.489  18.117  0.00  0.00    +0.000 C 
ATOM     13  C   UNL     1       2.118   8.566  17.695  0.00  0.00    +0.000 C 
ATOM     14  C   UNL     1       2.519   7.777  18.948  0.00  0.00    +0.000 C 
ATOM     15  C   UNL     1       1.508   8.172  20.029  0.00  0.00    +0.000 C 
BRANCH  11  17
ATOM     16  C   UNL     1      -0.065  10.531  21.622  0.00  0.00    +0.000 C 
ATOM     17  N   UNL     1      -0.235   9.958  20.283  0.00  0.00    +0.000 NA
ATOM     18  C   UNL     1      -1.008  10.893  19.462  0.00  0.00    +0.000 C 
ENDBRANCH  11  17
ENDBRANCH   1  14
BRANCH   7  19
ATOM     19  C   UNL     1       6.432   5.263  15.520  0.00  0.00    +0.000 C 
ATOM     20  N   UNL     1       7.311   5.566  14.828  0.00  0.00    +0.000 NA
ENDBRANCH   7  19
TORSDOF 3
ENDMDL
MODEL 7
REMARK VINA RESULT:      -6.5      3.089      5.959
REMARK  Name = 
REMARK  5 active torsions:
REMARK  status: ('A' for Active; 'I' for Inactive)
REMARK    1  A    between atoms: C_1  and  N_2
REMARK    2  A    between atoms: N_2  and  C_3
REMARK    3  A    between atoms: N_2  and  C_4
REMARK    4  A    between atoms: C_7  and  C_8
REMARK    5  A    between atoms: C_14  and  C_15
REMARK                            x       y       z     vdW  Elec       q    Type
REMARK                         _______ _______ _______ _____ _____    ______ ____
ROOT
ATOM      1  C   UNL     1       2.261   7.686  19.012  0.00  0.00    +0.000 A 
ATOM      2  C   UNL     1       2.575   8.108  17.733  0.00  0.00    +0.000 A 
ATOM      3  N   UNL     1       2.052   9.356  17.538  0.00  0.00    +0.000 N 
ATOM      4  C   UNL     1       1.392   9.778  18.667  0.00  0.00    +0.000 A 
ATOM      5  C   UNL     1       0.720  10.983  18.910  0.00  0.00    +0.000 A 
ATOM      6  C   UNL     1       0.126  11.155  20.162  0.00  0.00    +0.000 A 
ATOM      7  C   UNL     1       0.190  10.150  21.128  0.00  0.00    +0.000 A 
ATOM      8  C   UNL     1       0.860   8.942  20.858  0.00  0.00    +0.000 A 
ATOM      9  C   UNL     1       1.488   8.751  19.608  0.00  0.00    +0.000 A 
ATOM     10  H   UNL     1       2.133   9.896  16.687  0.00  0.00    +0.000 HD
ENDROOT
BRANCH   1  14
ATOM     11  C   UNL     1       2.582   3.939  19.308  0.00  0.00    +0.000 C 
ATOM     12  C   UNL     1       1.429   4.339  20.245  0.00  0.00    +0.000 C 
ATOM     13  C   UNL     1       1.686   5.792  20.642  0.00  0.00    +0.000 C 
ATOM     14  C   UNL     1       2.661   6.356  19.600  0.00  0.00    +0.000 C 
ATOM     15  C   UNL     1       2.837   5.251  18.554  0.00  0.00    +0.000 C 
BRANCH  11  17
ATOM     16  C   UNL     1       3.272   1.761  18.417  0.00  0.00    +0.000 C 
ATOM     17  N   UNL     1       2.254   2.816  18.408  0.00  0.00    +0.000 NA
ATOM     18  C   UNL     1       0.951   2.220  18.715  0.00  0.00    +0.000 C 
ENDBRANCH  11  17
ENDBRANCH   1  14
BRANCH   7  19
ATOM     19  C   UNL     1      -0.423  10.352  22.412  0.00  0.00    +0.000 C 
ATOM     20  N   UNL     1      -0.910  10.507  23.451  0.00  0.00    +0.000 NA
ENDBRANCH   7  19
TORSDOF 3
ENDMDL
MODEL 8
REMARK VINA RESULT:      -6.4      2.394      6.231
REMARK  Name = 
REMARK  5 active torsions:
REMARK  status: ('A' for Active; 'I' for Inactive)
REMARK    1  A    between atoms: C_1  and  N_2
REMARK    2  A    between atoms: N_2  and  C_3
REMARK    3  A    between atoms: N_2  and  C_4
REMARK    4  A    between atoms: C_7  and  C_8
REMARK    5  A    between atoms: C_14  and  C_15
REMARK                            x       y       z     vdW  Elec       q    Type
REMARK                         _______ _______ _______ _____ _____    ______ ____
ROOT
ATOM      1  C   UNL     1       2.234   6.324  19.733  0.00  0.00    +0.000 A 
ATOM      2  C   UNL     1       1.531   5.357  20.429  0.00  0.00    +0.000 A 
ATOM      3  N   UNL     1       1.827   4.131  19.903  0.00  0.00    +0.000 N 
ATOM      4  C   UNL     1       2.719   4.260  18.865  0.00  0.00    +0.000 A 
ATOM      5  C   UNL     1       3.294   3.273  18.054  0.00  0.00    +0.000 A 
ATOM      6  C   UNL     1       4.180   3.685  17.056  0.00  0.00    +0.000 A 
ATOM      7  C   UNL     1       4.466   5.038  16.870  0.00  0.00    +0.000 A 
ATOM      8  C   UNL     1       3.868   6.014  17.689  0.00  0.00    +0.000 A 
ATOM      9  C   UNL     1       2.985   5.623  18.719  0.00  0.00    +0.000 A 
ATOM     10  H   UNL     1       1.447   3.251  20.225  0.00  0.00    +0.000 HD
ENDROOT
BRANCH   1  14
ATOM     11  C   UNL     1       0.797   9.606  20.917  0.00  0.00    +0.000 C 
ATOM     12  C   UNL     1       0.615   9.591  19.389  0.00  0.00    +0.000 C 
ATOM     13  C   UNL     1       1.699   8.667  18.839  0.00  0.00    +0.000 C 
ATOM     14  C   UNL     1       2.168   7.804  20.018  0.00  0.00    +0.000 C 
ATOM     15  C   UNL     1       1.248   8.164  21.188  0.00  0.00    +0.000 C 
BRANCH  11  17
ATOM     16  C   UNL     1      -0.323   9.700  23.096  0.00  0.00    +0.000 C 
ATOM     17  N   UNL     1      -0.426   9.972  21.658  0.00  0.00    +0.000 NA
ATOM     18  C   UNL     1      -0.792  11.378  21.466  0.00  0.00    +0.000 C 
ENDBRANCH  11  17
ENDBRANCH   1  14
BRANCH   7  19
ATOM     19  C   UNL     1       5.386   5.438  15.842  0.00  0.00    +0.000 C 
ATOM     20  N   UNL     1       6.125   5.750  15.006  0.00  0.00    +0.000 NA
ENDBRANCH   7  19
TORSDOF 3
ENDMDL
MODEL 9
REMARK VINA RESULT:      -6.4      2.963      6.787
REMARK  Name = 
REMARK  5 active torsions:
REMARK  status: ('A' for Active; 'I' for Inactive)
REMARK    1  A    between atoms: C_1  and  N_2
REMARK    2  A    between atoms: N_2  and  C_3
REMARK    3  A    between atoms: N_2  and  C_4
REMARK    4  A    between atoms: C_7  and  C_8
REMARK    5  A    between atoms: C_14  and  C_15
REMARK                            x       y       z     vdW  Elec       q    Type
REMARK                         _______ _______ _______ _____ _____    ______ ____
ROOT
ATOM      1  C   UNL     1       5.177   4.895  16.471  0.00  0.00    +0.000 A 
ATOM      2  C   UNL     1       6.054   5.814  17.017  0.00  0.00    +0.000 A 
ATOM      3  N   UNL     1       7.071   6.037  16.131  0.00  0.00    +0.000 N 
ATOM      4  C   UNL     1       6.890   5.281  14.998  0.00  0.00    +0.000 A 
ATOM      5  C   UNL     1       7.677   5.202  13.842  0.00  0.00    +0.000 A 
ATOM      6  C   UNL     1       7.259   4.339  12.827  0.00  0.00    +0.000 A 
ATOM      7  C   UNL     1       6.102   3.572  12.973  0.00  0.00    +0.000 A 
ATOM      8  C   UNL     1       5.331   3.658  14.148  0.00  0.00    +0.000 A 
ATOM      9  C   UNL     1       5.721   4.540  15.181  0.00  0.00    +0.000 A 
ATOM     10  H   UNL     1       7.849   6.665  16.282  0.00  0.00    +0.000 HD
ENDROOT
BRANCH   1  14
ATOM     11  C   UNL     1       2.702   4.287  19.252  0.00  0.00    +0.000 C 
ATOM     12  C   UNL     1       3.507   2.983  19.111  0.00  0.00    +0.000 C 
ATOM     13  C   UNL     1       4.015   2.950  17.670  0.00  0.00    +0.000 C 
ATOM     14  C   UNL     1       3.929   4.391  17.150  0.00  0.00    +0.000 C 
ATOM     15  C   UNL     1       3.496   5.240  18.349  0.00  0.00    +0.000 C 
BRANCH  11  17
ATOM     16  C   UNL     1       1.674   5.904  20.782  0.00  0.00    +0.000 C 
ATOM     17  N   UNL     1       2.596   4.772  20.642  0.00  0.00    +0.000 NA
ATOM     18  C   UNL     1       2.191   3.713  21.571  0.00  0.00    +0.000 C 
ENDBRANCH  11  17
ENDBRANCH   1  14
BRANCH   7  19
ATOM     19  C   UNL     1       5.687   2.696  11.913  0.00  0.00    +0.000 C 
ATOM     20  N   UNL     1       5.350   1.999  11.050  0.00  0.00    +0.000 NA
ENDBRANCH   7  19
TORSDOF 3
ENDMDL
