MODEL 1
REMARK VINA RESULT:      -6.9      0.000      0.000
REMARK  Name = 
REMARK  6 active torsions:
REMARK  status: ('A' for Active; 'I' for Inactive)
REMARK    1  A    between atoms: C_1  and  N_2
REMARK    2  A    between atoms: C_5  and  C_6
REMARK    3  A    between atoms: N_8  and  C_9
REMARK    4  A    between atoms: C_9  and  C_10
REMARK    5  A    between atoms: C_10  and  O_11
REMARK    6  A    between atoms: O_11  and  C_12
REMARK                            x       y       z     vdW  Elec       q    Type
REMARK                         _______ _______ _______ _____ _____    ______ ____
ROOT
ATOM      1  C   UNL     1       0.133   9.877  18.693  0.00  0.00    +0.000 C 
ATOM      2  O   UNL     1       0.362   9.798  19.896  0.00  0.00    +0.000 OA
ATOM      3  N   UNL     1       1.029   9.473  17.731  0.00  0.00    +0.000 N 
ATOM      4  H   UNL     1       0.838   9.602  16.748  0.00  0.00    +0.000 HD
ENDROOT
BRANCH   1   9
ATOM      5  C   UNL     1      -5.028  11.790  17.028  0.00  0.00    +0.000 C 
ATOM      6  N   UNL     1      -3.704  11.334  17.421  0.00  0.00    +0.000 N 
ATOM      7  C   UNL     1      -3.128  11.796  18.588  0.00  0.00    +0.000 A 
ATOM      8  C   UNL     1      -1.926  11.360  18.981  0.00  0.00    +0.000 A 
ATOM      9  C   UNL     1      -1.201  10.374  18.195  0.00  0.00    +0.000 A 
ATOM     10  C   UNL     1      -1.720   9.960  17.029  0.00  0.00    +0.000 A 
ATOM     11  C   UNL     1      -3.060  10.430  16.587  0.00  0.00    +0.000 A 
ATOM     12  O   UNL     1      -3.526   9.995  15.535  0.00  0.00    +0.000 OA
ENDBRANCH   1   9
BRANCH   3  13
ATOM     13  C   UNL     1       2.377   9.014  18.045  0.00  0.00    +0.000 C 
BRANCH  13  14
ATOM     14  C   UNL     1       2.496   7.485  17.924  0.00  0.00    +0.000 C 
BRANCH  14  15
ATOM     15  O   UNL     1       2.581   6.908  19.230  0.00  0.00    +0.000 OA
BRANCH  15  16
ATOM     16  C   UNL     1       2.347   5.498  19.346  0.00  0.00    +0.000 C 
ATOM     17  C   UNL     1       1.840   4.854  18.051  0.00  0.00    +0.000 C 
ATOM     18  C   UNL     1       1.772   3.334  18.178  0.00  0.00    +0.000 C 
ATOM     19  C   UNL     1       0.922   2.907  19.374  0.00  0.00    +0.000 C 
ATOM     20  C   UNL     1       1.380   3.578  20.668  0.00  0.00    +0.000 C 
ATOM     21  C   UNL     1       1.452   5.104  20.529  0.00  0.00    +0.000 C 
ENDBRANCH  15  16
ENDBRANCH  14  15
ENDBRANCH  13  14
ENDBRANCH   3  13
TORSDOF 5
ENDMDL
MODEL 2
REMARK VINA RESULT:      -6.8      6.940      9.741
REMARK  Name = 
REMARK  6 active torsions:
REMARK  status: ('A' for Active; 'I' for Inactive)
REMARK    1  A    between atoms: C_1  and  N_2
REMARK    2  A    between atoms: C_5  and  C_6
REMARK    3  A    between atoms: N_8  and  C_9
REMARK    4  A    between atoms: C_9  and  C_10
REMARK    5  A    between atoms: C_10  and  O_11
REMARK    6  A    between atoms: O_11  and  C_12
REMARK                            x       y       z     vdW  Elec       q    Type
REMARK                         _______ _______ _______ _____ _____    ______ ____
ROOT
ATOM      1  C   UNL     1       6.138   6.126  16.835  0.00  0.00    +0.000 C 
ATOM      2  O   UNL     1       6.182   6.242  15.614  0.00  0.00    +0.000 OA
ATOM      3  N   UNL     1       6.857   6.926  17.692  0.00  0.00    +0.000 N 
ATOM      4  H   UNL     1       6.845   6.772  18.689  0.00  0.00    +0.000 HD
ENDROOT
BRANCH   1   9
ATOM      5  C   UNL     1       2.836   2.176  19.398  0.00  0.00    +0.000 C 
ATOM      6  N   UNL     1       3.642   3.206  18.762  0.00  0.00    +0.000 N 
ATOM      7  C   UNL     1       4.771   3.692  19.392  0.00  0.00    +0.000 A 
ATOM      8  C   UNL     1       5.543   4.614  18.805  0.00  0.00    +0.000 A 
ATOM      9  C   UNL     1       5.220   5.117  17.479  0.00  0.00    +0.000 A 
ATOM     10  C   UNL     1       4.095   4.699  16.879  0.00  0.00    +0.000 A 
ATOM     11  C   UNL     1       3.234   3.667  17.517  0.00  0.00    +0.000 A 
ATOM     12  O   UNL     1       2.234   3.273  16.919  0.00  0.00    +0.000 OA
ENDBRANCH   1   9
BRANCH   3  13
ATOM     13  C   UNL     1       7.823   7.916  17.229  0.00  0.00    +0.000 C 
BRANCH  13  14
ATOM     14  C   UNL     1       8.288   8.831  18.375  0.00  0.00    +0.000 C 
BRANCH  14  15
ATOM     15  O   UNL     1       8.345  10.183  17.914  0.00  0.00    +0.000 OA
BRANCH  15  16
ATOM     16  C   UNL     1       9.255  11.070  18.577  0.00  0.00    +0.000 C 
ATOM     17  C   UNL     1      10.569  11.280  17.814  0.00  0.00    +0.000 C 
ATOM     18  C   UNL     1      11.425  12.360  18.473  0.00  0.00    +0.000 C 
ATOM     19  C   UNL     1      11.688  12.048  19.945  0.00  0.00    +0.000 C 
ATOM     20  C   UNL     1      10.393  11.786  20.713  0.00  0.00    +0.000 C 
ATOM     21  C   UNL     1       9.536  10.705  20.041  0.00  0.00    +0.000 C 
ENDBRANCH  15  16
ENDBRANCH  14  15
ENDBRANCH  13  14
ENDBRANCH   3  13
TORSDOF 5
ENDMDL
MODEL 3
REMARK VINA RESULT:      -6.7      2.948      4.484
REMARK  Name = 
REMARK  6 active torsions:
REMARK  status: ('A' for Active; 'I' for Inactive)
REMARK    1  A    between atoms: C_1  and  N_2
REMARK    2  A    between atoms: C_5  and  C_6
REMARK    3  A    between atoms: N_8  and  C_9
REMARK    4  A    between atoms: C_9  and  C_10
REMARK    5  A    between atoms: C_10  and  O_11
REMARK    6  A    between atoms: O_11  and  C_12
REMARK                            x       y       z     vdW  Elec       q    Type
REMARK                         _______ _______ _______ _____ _____    ______ ____
ROOT
ATOM      1  C   UNL     1       3.328   6.406  18.853  0.00  0.00    +0.000 C 
ATOM      2  O   UNL     1       3.736   5.783  19.828  0.00  0.00    +0.000 OA
ATOM      3  N   UNL     1       3.617   6.045  17.558  0.00  0.00    +0.000 N 
ATOM      4  H   UNL     1       3.316   6.607  16.776  0.00  0.00    +0.000 HD
ENDROOT
BRANCH   1   9
ATOM      5  C   UNL     1      -0.026  11.051  19.347  0.00  0.00    +0.000 C 
ATOM      6  N   UNL     1       0.786   9.851  19.219  0.00  0.00    +0.000 N 
ATOM      7  C   UNL     1       1.375   9.537  18.010  0.00  0.00    +0.000 A 
ATOM      8  C   UNL     1       2.154   8.456  17.885  0.00  0.00    +0.000 A 
ATOM      9  C   UNL     1       2.413   7.591  19.026  0.00  0.00    +0.000 A 
ATOM     10  C   UNL     1       1.800   7.850  20.191  0.00  0.00    +0.000 A 
ATOM     11  C   UNL     1       0.941   9.055  20.345  0.00  0.00    +0.000 A 
ATOM     12  O   UNL     1       0.432   9.287  21.441  0.00  0.00    +0.000 OA
ENDBRANCH   1   9
BRANCH   3  13
ATOM     13  C   UNL     1       4.525   4.953  17.223  0.00  0.00    +0.000 C 
BRANCH  13  14
ATOM     14  C   UNL     1       3.755   3.671  16.859  0.00  0.00    +0.000 C 
BRANCH  14  15
ATOM     15  O   UNL     1       4.032   2.658  17.829  0.00  0.00    +0.000 OA
BRANCH  15  16
ATOM     16  C   UNL     1       3.072   2.465  18.877  0.00  0.00    +0.000 C 
ATOM     17  C   UNL     1       1.727   3.151  18.607  0.00  0.00    +0.000 C 
ATOM     18  C   UNL     1       0.692   2.774  19.664  0.00  0.00    +0.000 C 
ATOM     19  C   UNL     1       1.191   3.079  21.075  0.00  0.00    +0.000 C 
ATOM     20  C   UNL     1       2.555   2.446  21.346  0.00  0.00    +0.000 C 
ATOM     21  C   UNL     1       3.587   2.825  20.277  0.00  0.00    +0.000 C 
ENDBRANCH  15  16
ENDBRANCH  14  15
ENDBRANCH  13  14
ENDBRANCH   3  13
TORSDOF 5
ENDMDL
MODEL 4
REMARK VINA RESULT:      -6.7      3.305      5.618
REMARK  Name = 
REMARK  6 active torsions:
REMARK  status: ('A' for Active; 'I' for Inactive)
REMARK    1  A    between atoms: C_1  and  N_2
REMARK    2  A    between atoms: C_5  and  C_6
REMARK    3  A    between atoms: N_8  and  C_9
REMARK    4  A    between atoms: C_9  and  C_10
REMARK    5  A    between atoms: C_10  and  O_11
REMARK    6  A    between atoms: O_11  and  C_12
REMARK                            x       y       z     vdW  Elec       q    Type
REMARK                         _______ _______ _______ _____ _____    ______ ____
ROOT
ATOM      1  C   UNL     1       2.681   5.550  19.371  0.00  0.00    +0.000 C 
ATOM      2  O   UNL     1       3.029   4.965  20.392  0.00  0.00    +0.000 OA
ATOM      3  N   UNL     1       2.640   4.945  18.136  0.00  0.00    +0.000 N 
ATOM      4  H   UNL     1       2.404   5.464  17.304  0.00  0.00    +0.000 HD
ENDROOT
BRANCH   1   9
ATOM      5  C   UNL     1       0.697  10.934  19.747  0.00  0.00    +0.000 C 
ATOM      6  N   UNL     1       1.240   9.588  19.656  0.00  0.00    +0.000 N 
ATOM      7  C   UNL     1       1.206   8.750  20.754  0.00  0.00    +0.000 A 
ATOM      8  C   UNL     1       1.670   7.497  20.676  0.00  0.00    +0.000 A 
ATOM      9  C   UNL     1       2.207   6.980  19.427  0.00  0.00    +0.000 A 
ATOM     10  C   UNL     1       2.301   7.800  18.369  0.00  0.00    +0.000 A 
ATOM     11  C   UNL     1       1.779   9.191  18.440  0.00  0.00    +0.000 A 
ATOM     12  O   UNL     1       1.839   9.901  17.437  0.00  0.00    +0.000 OA
ENDBRANCH   1   9
BRANCH   3  13
ATOM     13  C   UNL     1       3.110   3.583  17.905  0.00  0.00    +0.000 C 
BRANCH  13  14
ATOM     14  C   UNL     1       4.303   3.555  16.933  0.00  0.00    +0.000 C 
BRANCH  14  15
ATOM     15  O   UNL     1       4.638   4.891  16.550  0.00  0.00    +0.000 OA
BRANCH  15  16
ATOM     16  C   UNL     1       5.906   5.404  16.980  0.00  0.00    +0.000 C 
ATOM     17  C   UNL     1       6.424   4.752  18.267  0.00  0.00    +0.000 C 
ATOM     18  C   UNL     1       7.847   5.207  18.584  0.00  0.00    +0.000 C 
ATOM     19  C   UNL     1       7.948   6.730  18.659  0.00  0.00    +0.000 C 
ATOM     20  C   UNL     1       7.389   7.400  17.405  0.00  0.00    +0.000 C 
ATOM     21  C   UNL     1       5.962   6.933  17.090  0.00  0.00    +0.000 C 
ENDBRANCH  15  16
ENDBRANCH  14  15
ENDBRANCH  13  14
ENDBRANCH   3  13
TORSDOF 5
ENDMDL
MODEL 5
REMARK VINA RESULT:      -6.7      2.851      3.807
REMARK  Name = 
REMARK  6 active torsions:
REMARK  status: ('A' for Active; 'I' for Inactive)
REMARK    1  A    between atoms: C_1  and  N_2
REMARK    2  A    between atoms: C_5  and  C_6
REMARK    3  A    between atoms: N_8  and  C_9
REMARK    4  A    between atoms: C_9  and  C_10
REMARK    5  A    between atoms: C_10  and  O_11
REMARK    6  A    between atoms: O_11  and  C_12
REMARK                            x       y       z     vdW  Elec       q    Type
REMARK                         _______ _______ _______ _____ _____    ______ ____
ROOT
ATOM      1  C   UNL     1       1.664   8.999  18.651  0.00  0.00    +0.000 C 
ATOM      2  O   UNL     1       1.769   9.607  17.591  0.00  0.00    +0.000 OA
ATOM      3  N   UNL     1       2.287   7.796  18.890  0.00  0.00    +0.000 N 
ATOM      4  H   UNL     1       2.139   7.289  19.750  0.00  0.00    +0.000 HD
ENDROOT
BRANCH   1   9
ATOM      5  C   UNL     1      -1.356  11.431  22.897  0.00  0.00    +0.000 C 
ATOM      6  N   UNL     1      -0.616  10.780  21.828  0.00  0.00    +0.000 N 
ATOM      7  C   UNL     1      -0.912  11.059  20.508  0.00  0.00    +0.000 A 
ATOM      8  C   UNL     1      -0.218  10.494  19.514  0.00  0.00    +0.000 A 
ATOM      9  C   UNL     1       0.880   9.582  19.799  0.00  0.00    +0.000 A 
ATOM     10  C   UNL     1       1.141   9.255  21.074  0.00  0.00    +0.000 A 
ATOM     11  C   UNL     1       0.383   9.885  22.188  0.00  0.00    +0.000 A 
ATOM     12  O   UNL     1       0.679   9.597  23.347  0.00  0.00    +0.000 OA
ENDBRANCH   1   9
BRANCH   3  13
ATOM     13  C   UNL     1       3.042   7.078  17.870  0.00  0.00    +0.000 C 
BRANCH  13  14
ATOM     14  C   UNL     1       4.081   6.131  18.498  0.00  0.00    +0.000 C 
BRANCH  14  15
ATOM     15  O   UNL     1       3.844   4.796  18.045  0.00  0.00    +0.000 OA
BRANCH  15  16
ATOM     16  C   UNL     1       3.038   3.949  18.876  0.00  0.00    +0.000 C 
ATOM     17  C   UNL     1       1.648   3.667  18.294  0.00  0.00    +0.000 C 
ATOM     18  C   UNL     1       0.900   2.629  19.128  0.00  0.00    +0.000 C 
ATOM     19  C   UNL     1       0.808   3.046  20.595  0.00  0.00    +0.000 C 
ATOM     20  C   UNL     1       2.179   3.381  21.180  0.00  0.00    +0.000 C 
ATOM     21  C   UNL     1       2.926   4.419  20.333  0.00  0.00    +0.000 C 
ENDBRANCH  15  16
ENDBRANCH  14  15
ENDBRANCH  13  14
ENDBRANCH   3  13
TORSDOF 5
ENDMDL
MODEL 6
REMARK VINA RESULT:      -6.6      6.290      9.374
REMARK  Name = 
REMARK  6 active torsions:
REMARK  status: ('A' for Active; 'I' for Inactive)
REMARK    1  A    between atoms: C_1  and  N_2
REMARK    2  A    between atoms: C_5  and  C_6
REMARK    3  A    between atoms: N_8  and  C_9
REMARK    4  A    between atoms: C_9  and  C_10
REMARK    5  A    between atoms: C_10  and  O_11
REMARK    6  A    between atoms: O_11  and  C_12
REMARK                            x       y       z     vdW  Elec       q    Type
REMARK                         _______ _______ _______ _____ _____    ______ ____
ROOT
ATOM      1  C   UNL     1       6.274   5.645  17.678  0.00  0.00    +0.000 C 
ATOM      2  O   UNL     1       7.186   4.864  17.426  0.00  0.00    +0.000 OA
ATOM      3  N   UNL     1       6.399   7.009  17.550  0.00  0.00    +0.000 N 
ATOM      4  H   UNL     1       5.652   7.633  17.818  0.00  0.00    +0.000 HD
ENDROOT
BRANCH   1   9
ATOM      5  C   UNL     1       1.178   3.681  19.479  0.00  0.00    +0.000 C 
ATOM      6  N   UNL     1       2.446   4.210  19.002  0.00  0.00    +0.000 N 
ATOM      7  C   UNL     1       3.235   4.980  19.834  0.00  0.00    +0.000 A 
ATOM      8  C   UNL     1       4.420   5.445  19.422  0.00  0.00    +0.000 A 
ATOM      9  C   UNL     1       4.916   5.136  18.090  0.00  0.00    +0.000 A 
ATOM     10  C   UNL     1       4.136   4.439  17.249  0.00  0.00    +0.000 A 
ATOM     11  C   UNL     1       2.821   3.908  17.699  0.00  0.00    +0.000 A 
ATOM     12  O   UNL     1       2.153   3.234  16.917  0.00  0.00    +0.000 OA
ENDBRANCH   1   9
BRANCH   3  13
ATOM     13  C   UNL     1       7.658   7.662  17.207  0.00  0.00    +0.000 C 
BRANCH  13  14
ATOM     14  C   UNL     1       8.323   8.290  18.445  0.00  0.00    +0.000 C 
BRANCH  14  15
ATOM     15  O   UNL     1       8.407   9.707  18.274  0.00  0.00    +0.000 OA
BRANCH  15  16
ATOM     16  C   UNL     1       9.538  10.375  18.847  0.00  0.00    +0.000 C 
ATOM     17  C   UNL     1       9.202  11.166  20.117  0.00  0.00    +0.000 C 
ATOM     18  C   UNL     1      10.466  11.713  20.779  0.00  0.00    +0.000 C 
ATOM     19  C   UNL     1      11.290  12.557  19.807  0.00  0.00    +0.000 C 
ATOM     20  C   UNL     1      11.592  11.803  18.513  0.00  0.00    +0.000 C 
ATOM     21  C   UNL     1      10.319  11.252  17.858  0.00  0.00    +0.000 C 
ENDBRANCH  15  16
ENDBRANCH  14  15
ENDBRANCH  13  14
ENDBRANCH   3  13
TORSDOF 5
ENDMDL
MODEL 7
REMARK VINA RESULT:      -6.6      6.317      9.776
REMARK  Name = 
REMARK  6 active torsions:
REMARK  status: ('A' for Active; 'I' for Inactive)
REMARK    1  A    between atoms: C_1  and  N_2
REMARK    2  A    between atoms: C_5  and  C_6
REMARK    3  A    between atoms: N_8  and  C_9
REMARK    4  A    between atoms: C_9  and  C_10
REMARK    5  A    between atoms: C_10  and  O_11
REMARK    6  A    between atoms: O_11  and  C_12
REMARK                            x       y       z     vdW  Elec       q    Type
REMARK                         _______ _______ _______ _____ _____    ______ ____
ROOT
ATOM      1  C   UNL     1       6.668   6.294  17.091  0.00  0.00    +0.000 C 
ATOM      2  O   UNL     1       7.358   5.982  16.125  0.00  0.00    +0.000 OA
ATOM      3  N   UNL     1       7.023   7.285  17.976  0.00  0.00    +0.000 N 
ATOM      4  H   UNL     1       6.465   7.483  18.794  0.00  0.00    +0.000 HD
ENDROOT
BRANCH   1   9
ATOM      5  C   UNL     1       1.521   3.962  18.156  0.00  0.00    +0.000 C 
ATOM      6  N   UNL     1       2.816   4.547  17.844  0.00  0.00    +0.000 N 
ATOM      7  C   UNL     1       2.985   5.917  17.879  0.00  0.00    +0.000 A 
ATOM      8  C   UNL     1       4.178   6.468  17.628  0.00  0.00    +0.000 A 
ATOM      9  C   UNL     1       5.333   5.636  17.327  0.00  0.00    +0.000 A 
ATOM     10  C   UNL     1       5.171   4.307  17.231  0.00  0.00    +0.000 A 
ATOM     11  C   UNL     1       3.852   3.682  17.518  0.00  0.00    +0.000 A 
ATOM     12  O   UNL     1       3.750   2.457  17.466  0.00  0.00    +0.000 OA
ENDBRANCH   1   9
BRANCH   3  13
ATOM     13  C   UNL     1       8.302   7.984  17.914  0.00  0.00    +0.000 C 
BRANCH  13  14
ATOM     14  C   UNL     1       8.113   9.511  17.946  0.00  0.00    +0.000 C 
BRANCH  14  15
ATOM     15  O   UNL     1       8.840  10.058  19.049  0.00  0.00    +0.000 OA
BRANCH  15  16
ATOM     16  C   UNL     1       9.966  10.894  18.749  0.00  0.00    +0.000 C 
ATOM     17  C   UNL     1      10.704  11.395  19.996  0.00  0.00    +0.000 C 
ATOM     18  C   UNL     1      11.987  12.133  19.619  0.00  0.00    +0.000 C 
ATOM     19  C   UNL     1      11.713  13.278  18.645  0.00  0.00    +0.000 C 
ATOM     20  C   UNL     1      10.932  12.808  17.419  0.00  0.00    +0.000 C 
ATOM     21  C   UNL     1       9.648  12.062  17.806  0.00  0.00    +0.000 C 
ENDBRANCH  15  16
ENDBRANCH  14  15
ENDBRANCH  13  14
ENDBRANCH   3  13
TORSDOF 5
ENDMDL
MODEL 8
REMARK VINA RESULT:      -6.5      6.182      9.566
REMARK  Name = 
REMARK  6 active torsions:
REMARK  status: ('A' for Active; 'I' for Inactive)
REMARK    1  A    between atoms: C_1  and  N_2
REMARK    2  A    between atoms: C_5  and  C_6
REMARK    3  A    between atoms: N_8  and  C_9
REMARK    4  A    between atoms: C_9  and  C_10
REMARK    5  A    between atoms: C_10  and  O_11
REMARK    6  A    between atoms: O_11  and  C_12
REMARK                            x       y       z     vdW  Elec       q    Type
REMARK                         _______ _______ _______ _____ _____    ______ ____
ROOT
ATOM      1  C   UNL     1       6.660   5.942  18.040  0.00  0.00    +0.000 C 
ATOM      2  O   UNL     1       7.677   5.268  18.169  0.00  0.00    +0.000 OA
ATOM      3  N   UNL     1       6.671   7.229  17.552  0.00  0.00    +0.000 N 
ATOM      4  H   UNL     1       5.827   7.781  17.509  0.00  0.00    +0.000 HD
ENDROOT
BRANCH   1   9
ATOM      5  C   UNL     1       1.399   3.953  19.236  0.00  0.00    +0.000 C 
ATOM      6  N   UNL     1       2.734   4.424  18.903  0.00  0.00    +0.000 N 
ATOM      7  C   UNL     1       2.898   5.529  18.090  0.00  0.00    +0.000 A 
ATOM      8  C   UNL     1       4.118   5.996  17.803  0.00  0.00    +0.000 A 
ATOM      9  C   UNL     1       5.305   5.361  18.354  0.00  0.00    +0.000 A 
ATOM     10  C   UNL     1       5.165   4.252  19.097  0.00  0.00    +0.000 A 
ATOM     11  C   UNL     1       3.813   3.729  19.432  0.00  0.00    +0.000 A 
ATOM     12  O   UNL     1       3.720   2.738  20.153  0.00  0.00    +0.000 OA
ENDBRANCH   1   9
BRANCH   3  13
ATOM     13  C   UNL     1       7.901   7.950  17.246  0.00  0.00    +0.000 C 
BRANCH  13  14
ATOM     14  C   UNL     1       8.333   8.850  18.417  0.00  0.00    +0.000 C 
BRANCH  14  15
ATOM     15  O   UNL     1       8.342  10.215  17.992  0.00  0.00    +0.000 OA
BRANCH  15  16
ATOM     16  C   UNL     1       9.300  11.091  18.602  0.00  0.00    +0.000 C 
ATOM     17  C   UNL     1      10.622  11.182  17.831  0.00  0.00    +0.000 C 
ATOM     18  C   UNL     1      11.536  12.253  18.424  0.00  0.00    +0.000 C 
ATOM     19  C   UNL     1      11.783  12.019  19.913  0.00  0.00    +0.000 C 
ATOM     20  C   UNL     1      10.476  11.874  20.692  0.00  0.00    +0.000 C 
ATOM     21  C   UNL     1       9.562  10.802  20.086  0.00  0.00    +0.000 C 
ENDBRANCH  15  16
ENDBRANCH  14  15
ENDBRANCH  13  14
ENDBRANCH   3  13
TORSDOF 5
ENDMDL
MODEL 9
REMARK VINA RESULT:      -6.5      2.731      3.689
REMARK  Name = 
REMARK  6 active torsions:
REMARK  status: ('A' for Active; 'I' for Inactive)
REMARK    1  A    between atoms: C_1  and  N_2
REMARK    2  A    between atoms: C_5  and  C_6
REMARK    3  A    between atoms: N_8  and  C_9
REMARK    4  A    between atoms: C_9  and  C_10
REMARK    5  A    between atoms: C_10  and  O_11
REMARK    6  A    between atoms: O_11  and  C_12
REMARK                            x       y       z     vdW  Elec       q    Type
REMARK                         _______ _______ _______ _____ _____    ______ ____
ROOT
ATOM      1  C   UNL     1       1.373  10.156  18.928  0.00  0.00    +0.000 C 
ATOM      2  O   UNL     1       1.856  11.010  18.191  0.00  0.00    +0.000 OA
ATOM      3  N   UNL     1       1.663   8.816  18.814  0.00  0.00    +0.000 N 
ATOM      4  H   UNL     1       1.208   8.128  19.397  0.00  0.00    +0.000 HD
ENDROOT
BRANCH   1   9
ATOM      5  C   UNL     1      -2.115  11.867  23.167  0.00  0.00    +0.000 C 
ATOM      6  N   UNL     1      -1.256  11.397  22.093  0.00  0.00    +0.000 N 
ATOM      7  C   UNL     1      -1.446  11.849  20.802  0.00  0.00    +0.000 A 
ATOM      8  C   UNL     1      -0.642  11.453  19.809  0.00  0.00    +0.000 A 
ATOM      9  C   UNL     1       0.466  10.546  20.067  0.00  0.00    +0.000 A 
ATOM     10  C   UNL     1       0.628  10.051  21.304  0.00  0.00    +0.000 A 
ATOM     11  C   UNL     1      -0.253  10.492  22.418  0.00  0.00    +0.000 A 
ATOM     12  O   UNL     1      -0.048  10.054  23.549  0.00  0.00    +0.000 OA
ENDBRANCH   1   9
BRANCH   3  13
ATOM     13  C   UNL     1       2.484   8.271  17.739  0.00  0.00    +0.000 C 
BRANCH  13  14
ATOM     14  C   UNL     1       3.162   6.954  18.157  0.00  0.00    +0.000 C 
BRANCH  14  15
ATOM     15  O   UNL     1       2.696   6.569  19.453  0.00  0.00    +0.000 OA
BRANCH  15  16
ATOM     16  C   UNL     1       1.987   5.327  19.558  0.00  0.00    +0.000 C 
ATOM     17  C   UNL     1       2.273   4.568  20.859  0.00  0.00    +0.000 C 
ATOM     18  C   UNL     1       1.368   3.346  20.997  0.00  0.00    +0.000 C 
ATOM     19  C   UNL     1       1.481   2.422  19.785  0.00  0.00    +0.000 C 
ATOM     20  C   UNL     1       1.249   3.171  18.474  0.00  0.00    +0.000 C 
ATOM     21  C   UNL     1       2.157   4.401  18.346  0.00  0.00    +0.000 C 
ENDBRANCH  15  16
ENDBRANCH  14  15
ENDBRANCH  13  14
ENDBRANCH   3  13
TORSDOF 5
ENDMDL
