MODEL 1
REMARK VINA RESULT:      -7.3      0.000      0.000
REMARK  Name = 
REMARK  4 active torsions:
REMARK  status: ('A' for Active; 'I' for Inactive)
REMARK    1  A    between atoms: C_1  and  N_2
REMARK    2  A    between atoms: N_10  and  C_11
REMARK    3  A    between atoms: C_11  and  C_12
REMARK    4  A    between atoms: C_18  and  O_19
REMARK                            x       y       z     vdW  Elec       q    Type
REMARK                         _______ _______ _______ _____ _____    ______ ____
ROOT
ATOM      1  C   UNL     1       0.614   2.345  18.794  0.00  0.00    +0.000 C 
ATOM      2  N   UNL     1       1.696   2.960  18.029  0.00  0.00    +0.000 NA
ATOM      3  C   UNL     1       2.957   2.226  18.185  0.00  0.00    +0.000 C 
ATOM      4  C   UNL     1       3.989   2.775  17.196  0.00  0.00    +0.000 C 
ATOM      5  C   UNL     1       4.085   4.279  17.243  0.00  0.00    +0.000 A 
ATOM      6  N   UNL     1       5.174   4.833  16.677  0.00  0.00    +0.000 NA
ATOM      7  C   UNL     1       5.228   6.172  16.724  0.00  0.00    +0.000 A 
ATOM      8  N   UNL     1       4.325   6.988  17.285  0.00  0.00    +0.000 NA
ATOM      9  C   UNL     1       3.246   6.420  17.851  0.00  0.00    +0.000 A 
ATOM     10  N   UNL     1       2.390   7.217  18.631  0.00  0.00    +0.000 N 
ATOM     11  C   UNL     1       3.072   5.035  17.827  0.00  0.00    +0.000 A 
ATOM     12  C   UNL     1       1.881   4.361  18.450  0.00  0.00    +0.000 C 
ATOM     13  H   UNL     1       1.457   6.829  18.707  0.00  0.00    +0.000 HD
ENDROOT
BRANCH  10  14
ATOM     14  C   UNL     1       2.265   8.620  18.257  0.00  0.00    +0.000 C 
BRANCH  14  15
ATOM     15  C   UNL     1       1.177   9.254  19.098  0.00  0.00    +0.000 A 
ATOM     16  C   UNL     1       0.258  10.124  18.483  0.00  0.00    +0.000 A 
ATOM     17  C   UNL     1      -0.758  10.735  19.219  0.00  0.00    +0.000 A 
ATOM     18  C   UNL     1      -0.872  10.502  20.587  0.00  0.00    +0.000 A 
ATOM     19  C   UNL     1       0.041   9.652  21.214  0.00  0.00    +0.000 A 
ATOM     20 CL   UNL     1      -0.106   9.371  22.910  0.00  0.00    +0.000 Cl
ATOM     21  C   UNL     1       1.063   9.039  20.475  0.00  0.00    +0.000 A 
BRANCH  21  22
ATOM     22  O   UNL     1       1.969   8.215  21.097  0.00  0.00    +0.000 OA
ATOM     23  H   UNL     1       2.421   7.710  20.392  0.00  0.00    +0.000 HD
ENDBRANCH  21  22
ENDBRANCH  14  15
ENDBRANCH  10  14
TORSDOF 3
ENDMDL
MODEL 2
REMARK VINA RESULT:      -7.2      2.026      2.487
REMARK  Name = 
REMARK  4 active torsions:
REMARK  status: ('A' for Active; 'I' for Inactive)
REMARK    1  A    between atoms: C_1  and  N_2
REMARK    2  A    between atoms: N_10  and  C_11
REMARK    3  A    between atoms: C_11  and  C_12
REMARK    4  A    between atoms: C_18  and  O_19
REMARK                            x       y       z     vdW  Elec       q    Type
REMARK                         _______ _______ _______ _____ _____    ______ ____
ROOT
ATOM      1  C   UNL     1       1.766   2.731  21.647  0.00  0.00    +0.000 C 
ATOM      2  N   UNL     1       2.243   3.353  20.414  0.00  0.00    +0.000 NA
ATOM      3  C   UNL     1       3.599   2.910  20.072  0.00  0.00    +0.000 C 
ATOM      4  C   UNL     1       3.958   3.411  18.670  0.00  0.00    +0.000 C 
ATOM      5  C   UNL     1       3.674   4.882  18.497  0.00  0.00    +0.000 A 
ATOM      6  N   UNL     1       4.255   5.489  17.444  0.00  0.00    +0.000 NA
ATOM      7  C   UNL     1       3.978   6.793  17.308  0.00  0.00    +0.000 A 
ATOM      8  N   UNL     1       3.207   7.534  18.117  0.00  0.00    +0.000 NA
ATOM      9  C   UNL     1       2.640   6.915  19.167  0.00  0.00    +0.000 A 
ATOM     10  N   UNL     1       2.004   7.693  20.151  0.00  0.00    +0.000 N 
ATOM     11  C   UNL     1       2.833   5.549  19.382  0.00  0.00    +0.000 A 
ATOM     12  C   UNL     1       2.218   4.821  20.545  0.00  0.00    +0.000 C 
ATOM     13  H   UNL     1       1.318   7.168  20.680  0.00  0.00    +0.000 HD
ENDROOT
BRANCH  10  14
ATOM     14  C   UNL     1       1.382   8.936  19.715  0.00  0.00    +0.000 C 
BRANCH  14  15
ATOM     15  C   UNL     1       0.601   9.523  20.872  0.00  0.00    +0.000 A 
ATOM     16  C   UNL     1       0.753   8.962  22.153  0.00  0.00    +0.000 A 
ATOM     17  C   UNL     1       0.049   9.465  23.248  0.00  0.00    +0.000 A 
ATOM     18  C   UNL     1      -0.832  10.531  23.087  0.00  0.00    +0.000 A 
ATOM     19  C   UNL     1      -1.004  11.090  21.819  0.00  0.00    +0.000 A 
ATOM     20 CL   UNL     1      -2.099  12.409  21.628  0.00  0.00    +0.000 Cl
ATOM     21  C   UNL     1      -0.298  10.583  20.718  0.00  0.00    +0.000 A 
BRANCH  21  22
ATOM     22  O   UNL     1      -0.480  11.124  19.469  0.00  0.00    +0.000 OA
ATOM     23  H   UNL     1      -0.190  10.450  18.824  0.00  0.00    +0.000 HD
ENDBRANCH  21  22
ENDBRANCH  14  15
ENDBRANCH  10  14
TORSDOF 3
ENDMDL
MODEL 3
REMARK VINA RESULT:      -7.1      3.304      6.860
REMARK  Name = 
REMARK  4 active torsions:
REMARK  status: ('A' for Active; 'I' for Inactive)
REMARK    1  A    between atoms: C_1  and  N_2
REMARK    2  A    between atoms: N_10  and  C_11
REMARK    3  A    between atoms: C_11  and  C_12
REMARK    4  A    between atoms: C_18  and  O_19
REMARK                            x       y       z     vdW  Elec       q    Type
REMARK                         _______ _______ _______ _____ _____    ______ ____
ROOT
ATOM      1  C   UNL     1      -0.740  10.450  23.045  0.00  0.00    +0.000 C 
ATOM      2  N   UNL     1       0.028  10.456  21.803  0.00  0.00    +0.000 NA
ATOM      3  C   UNL     1      -0.745  11.016  20.689  0.00  0.00    +0.000 C 
ATOM      4  C   UNL     1       0.174  11.205  19.478  0.00  0.00    +0.000 C 
ATOM      5  C   UNL     1       0.982   9.969  19.173  0.00  0.00    +0.000 A 
ATOM      6  N   UNL     1       1.555   9.907  17.956  0.00  0.00    +0.000 NA
ATOM      7  C   UNL     1       2.275   8.803  17.715  0.00  0.00    +0.000 A 
ATOM      8  N   UNL     1       2.458   7.771  18.551  0.00  0.00    +0.000 NA
ATOM      9  C   UNL     1       1.875   7.844  19.760  0.00  0.00    +0.000 A 
ATOM     10  N   UNL     1       1.863   6.701  20.578  0.00  0.00    +0.000 N 
ATOM     11  C   UNL     1       1.131   8.967  20.128  0.00  0.00    +0.000 A 
ATOM     12  C   UNL     1       0.462   9.087  21.469  0.00  0.00    +0.000 C 
ATOM     13  H   UNL     1       1.748   6.925  21.560  0.00  0.00    +0.000 HD
ENDROOT
BRANCH  10  14
ATOM     14  C   UNL     1       2.989   5.784  20.454  0.00  0.00    +0.000 C 
BRANCH  14  15
ATOM     15  C   UNL     1       2.477   4.448  19.958  0.00  0.00    +0.000 A 
ATOM     16  C   UNL     1       1.117   4.130  20.133  0.00  0.00    +0.000 A 
ATOM     17  C   UNL     1       0.601   2.908  19.698  0.00  0.00    +0.000 A 
ATOM     18  C   UNL     1       1.433   1.972  19.090  0.00  0.00    +0.000 A 
ATOM     19  C   UNL     1       2.787   2.267  18.922  0.00  0.00    +0.000 A 
ATOM     20 CL   UNL     1       3.811   1.099  18.170  0.00  0.00    +0.000 Cl
ATOM     21  C   UNL     1       3.306   3.493  19.360  0.00  0.00    +0.000 A 
BRANCH  21  22
ATOM     22  O   UNL     1       4.642   3.776  19.208  0.00  0.00    +0.000 OA
ATOM     23  H   UNL     1       5.132   3.113  19.733  0.00  0.00    +0.000 HD
ENDBRANCH  21  22
ENDBRANCH  14  15
ENDBRANCH  10  14
TORSDOF 3
ENDMDL
MODEL 4
REMARK VINA RESULT:      -7.1      1.662      3.186
REMARK  Name = 
REMARK  4 active torsions:
REMARK  status: ('A' for Active; 'I' for Inactive)
REMARK    1  A    between atoms: C_1  and  N_2
REMARK    2  A    between atoms: N_10  and  C_11
REMARK    3  A    between atoms: C_11  and  C_12
REMARK    4  A    between atoms: C_18  and  O_19
REMARK                            x       y       z     vdW  Elec       q    Type
REMARK                         _______ _______ _______ _____ _____    ______ ____
ROOT
ATOM      1  C   UNL     1       5.434   6.326  16.293  0.00  0.00    +0.000 C 
ATOM      2  N   UNL     1       4.819   5.490  17.321  0.00  0.00    +0.000 NA
ATOM      3  C   UNL     1       4.201   4.290  16.746  0.00  0.00    +0.000 C 
ATOM      4  C   UNL     1       3.775   3.349  17.877  0.00  0.00    +0.000 C 
ATOM      5  C   UNL     1       2.983   4.059  18.946  0.00  0.00    +0.000 A 
ATOM      6  N   UNL     1       2.282   3.282  19.795  0.00  0.00    +0.000 NA
ATOM      7  C   UNL     1       1.596   3.938  20.741  0.00  0.00    +0.000 A 
ATOM      8  N   UNL     1       1.534   5.267  20.905  0.00  0.00    +0.000 NA
ATOM      9  C   UNL     1       2.233   6.029  20.047  0.00  0.00    +0.000 A 
ATOM     10  N   UNL     1       2.027   7.420  20.050  0.00  0.00    +0.000 N 
ATOM     11  C   UNL     1       3.012   5.446  19.044  0.00  0.00    +0.000 A 
ATOM     12  C   UNL     1       3.807   6.263  18.064  0.00  0.00    +0.000 C 
ATOM     13  H   UNL     1       2.812   7.932  19.665  0.00  0.00    +0.000 HD
ENDROOT
BRANCH  10  14
ATOM     14  C   UNL     1       1.667   8.034  21.321  0.00  0.00    +0.000 C 
BRANCH  14  15
ATOM     15  C   UNL     1       0.781   9.233  21.049  0.00  0.00    +0.000 A 
ATOM     16  C   UNL     1       0.503   9.588  19.716  0.00  0.00    +0.000 A 
ATOM     17  C   UNL     1      -0.303  10.688  19.418  0.00  0.00    +0.000 A 
ATOM     18  C   UNL     1      -0.839  11.464  20.441  0.00  0.00    +0.000 A 
ATOM     19  C   UNL     1      -0.562  11.132  21.769  0.00  0.00    +0.000 A 
ATOM     20 CL   UNL     1      -1.229  12.100  23.031  0.00  0.00    +0.000 Cl
ATOM     21  C   UNL     1       0.250  10.028  22.069  0.00  0.00    +0.000 A 
BRANCH  21  22
ATOM     22  O   UNL     1       0.534   9.711  23.375  0.00  0.00    +0.000 OA
ATOM     23  H   UNL     1       0.992  10.484  23.760  0.00  0.00    +0.000 HD
ENDBRANCH  21  22
ENDBRANCH  14  15
ENDBRANCH  10  14
TORSDOF 3
ENDMDL
MODEL 5
REMARK VINA RESULT:      -7.1      4.430      5.972
REMARK  Name = 
REMARK  4 active torsions:
REMARK  status: ('A' for Active; 'I' for Inactive)
REMARK    1  A    between atoms: C_1  and  N_2
REMARK    2  A    between atoms: N_10  and  C_11
REMARK    3  A    between atoms: C_11  and  C_12
REMARK    4  A    between atoms: C_18  and  O_19
REMARK                            x       y       z     vdW  Elec       q    Type
REMARK                         _______ _______ _______ _____ _____    ______ ____
ROOT
ATOM      1  C   UNL     1       4.617   2.995  11.698  0.00  0.00    +0.000 C 
ATOM      2  N   UNL     1       5.349   3.926  12.552  0.00  0.00    +0.000 NA
ATOM      3  C   UNL     1       6.790   3.648  12.550  0.00  0.00    +0.000 C 
ATOM      4  C   UNL     1       7.526   4.779  13.273  0.00  0.00    +0.000 C 
ATOM      5  C   UNL     1       6.912   5.099  14.612  0.00  0.00    +0.000 A 
ATOM      6  N   UNL     1       7.663   5.824  15.464  0.00  0.00    +0.000 NA
ATOM      7  C   UNL     1       7.089   6.103  16.642  0.00  0.00    +0.000 A 
ATOM      8  N   UNL     1       5.869   5.720  17.047  0.00  0.00    +0.000 NA
ATOM      9  C   UNL     1       5.135   4.992  16.188  0.00  0.00    +0.000 A 
ATOM     10  N   UNL     1       3.948   4.394  16.648  0.00  0.00    +0.000 N 
ATOM     11  C   UNL     1       5.623   4.675  14.919  0.00  0.00    +0.000 A 
ATOM     12  C   UNL     1       4.833   3.862  13.931  0.00  0.00    +0.000 C 
ATOM     13  H   UNL     1       3.297   4.191  15.899  0.00  0.00    +0.000 HD
ENDROOT
BRANCH  10  14
ATOM     14  C   UNL     1       3.220   5.090  17.702  0.00  0.00    +0.000 C 
BRANCH  14  15
ATOM     15  C   UNL     1       2.938   4.114  18.825  0.00  0.00    +0.000 A 
ATOM     16  C   UNL     1       1.625   4.000  19.318  0.00  0.00    +0.000 A 
ATOM     17  C   UNL     1       1.319   3.119  20.356  0.00  0.00    +0.000 A 
ATOM     18  C   UNL     1       2.318   2.341  20.934  0.00  0.00    +0.000 A 
ATOM     19  C   UNL     1       3.629   2.452  20.465  0.00  0.00    +0.000 A 
ATOM     20 CL   UNL     1       4.862   1.485  21.188  0.00  0.00    +0.000 Cl
ATOM     21  C   UNL     1       3.937   3.339  19.423  0.00  0.00    +0.000 A 
BRANCH  21  22
ATOM     22  O   UNL     1       5.229   3.458  18.973  0.00  0.00    +0.000 OA
ATOM     23  H   UNL     1       5.317   4.358  18.603  0.00  0.00    +0.000 HD
ENDBRANCH  21  22
ENDBRANCH  14  15
ENDBRANCH  10  14
TORSDOF 3
ENDMDL
MODEL 6
REMARK VINA RESULT:      -7.1      1.398      1.762
REMARK  Name = 
REMARK  4 active torsions:
REMARK  status: ('A' for Active; 'I' for Inactive)
REMARK    1  A    between atoms: C_1  and  N_2
REMARK    2  A    between atoms: N_10  and  C_11
REMARK    3  A    between atoms: C_11  and  C_12
REMARK    4  A    between atoms: C_18  and  O_19
REMARK                            x       y       z     vdW  Elec       q    Type
REMARK                         _______ _______ _______ _____ _____    ______ ____
ROOT
ATOM      1  C   UNL     1       0.740   2.289  18.771  0.00  0.00    +0.000 C 
ATOM      2  N   UNL     1       1.742   3.027  18.007  0.00  0.00    +0.000 NA
ATOM      3  C   UNL     1       3.056   2.377  18.066  0.00  0.00    +0.000 C 
ATOM      4  C   UNL     1       4.005   3.060  17.075  0.00  0.00    +0.000 C 
ATOM      5  C   UNL     1       3.998   4.561  17.217  0.00  0.00    +0.000 A 
ATOM      6  N   UNL     1       5.021   5.226  16.647  0.00  0.00    +0.000 NA
ATOM      7  C   UNL     1       4.985   6.560  16.780  0.00  0.00    +0.000 A 
ATOM      8  N   UNL     1       4.052   7.273  17.428  0.00  0.00    +0.000 NA
ATOM      9  C   UNL     1       3.041   6.594  17.997  0.00  0.00    +0.000 A 
ATOM     10  N   UNL     1       2.166   7.277  18.860  0.00  0.00    +0.000 N 
ATOM     11  C   UNL     1       2.962   5.204  17.889  0.00  0.00    +0.000 A 
ATOM     12  C   UNL     1       1.849   4.409  18.512  0.00  0.00    +0.000 C 
ATOM     13  H   UNL     1       1.266   6.819  18.947  0.00  0.00    +0.000 HD
ENDROOT
BRANCH  10  14
ATOM     14  C   UNL     1       1.929   8.688  18.584  0.00  0.00    +0.000 C 
BRANCH  14  15
ATOM     15  C   UNL     1       1.097   9.271  19.708  0.00  0.00    +0.000 A 
ATOM     16  C   UNL     1       1.147   8.668  20.978  0.00  0.00    +0.000 A 
ATOM     17  C   UNL     1       0.394   9.167  22.042  0.00  0.00    +0.000 A 
ATOM     18  C   UNL     1      -0.434  10.271  21.859  0.00  0.00    +0.000 A 
ATOM     19  C   UNL     1      -0.504  10.873  20.601  0.00  0.00    +0.000 A 
ATOM     20 CL   UNL     1      -1.534  12.239  20.383  0.00  0.00    +0.000 Cl
ATOM     21  C   UNL     1       0.251  10.370  19.532  0.00  0.00    +0.000 A 
BRANCH  21  22
ATOM     22  O   UNL     1       0.169  10.953  18.290  0.00  0.00    +0.000 OA
ATOM     23  H   UNL     1      -0.625  10.584  17.857  0.00  0.00    +0.000 HD
ENDBRANCH  21  22
ENDBRANCH  14  15
ENDBRANCH  10  14
TORSDOF 3
ENDMDL
MODEL 7
REMARK VINA RESULT:      -6.9      1.185      1.203
REMARK  Name = 
REMARK  4 active torsions:
REMARK  status: ('A' for Active; 'I' for Inactive)
REMARK    1  A    between atoms: C_1  and  N_2
REMARK    2  A    between atoms: N_10  and  C_11
REMARK    3  A    between atoms: C_11  and  C_12
REMARK    4  A    between atoms: C_18  and  O_19
REMARK                            x       y       z     vdW  Elec       q    Type
REMARK                         _______ _______ _______ _____ _____    ______ ____
ROOT
ATOM      1  C   UNL     1       1.492   2.827  21.575  0.00  0.00    +0.000 C 
ATOM      2  N   UNL     1       2.171   3.134  20.319  0.00  0.00    +0.000 NA
ATOM      3  C   UNL     1       3.487   2.490  20.241  0.00  0.00    +0.000 C 
ATOM      4  C   UNL     1       4.051   2.658  18.826  0.00  0.00    +0.000 C 
ATOM      5  C   UNL     1       3.978   4.086  18.346  0.00  0.00    +0.000 A 
ATOM      6  N   UNL     1       4.738   4.404  17.280  0.00  0.00    +0.000 NA
ATOM      7  C   UNL     1       4.647   5.676  16.869  0.00  0.00    +0.000 A 
ATOM      8  N   UNL     1       3.898   6.642  17.420  0.00  0.00    +0.000 NA
ATOM      9  C   UNL     1       3.150   6.311  18.486  0.00  0.00    +0.000 A 
ATOM     10  N   UNL     1       2.521   7.333  19.218  0.00  0.00    +0.000 N 
ATOM     11  C   UNL     1       3.142   5.003  18.976  0.00  0.00    +0.000 A 
ATOM     12  C   UNL     1       2.321   4.593  20.167  0.00  0.00    +0.000 C 
ATOM     13  H   UNL     1       1.721   7.001  19.745  0.00  0.00    +0.000 HD
ENDROOT
BRANCH  10  14
ATOM     14  C   UNL     1       2.112   8.522  18.481  0.00  0.00    +0.000 C 
BRANCH  14  15
ATOM     15  C   UNL     1       1.088   9.276  19.302  0.00  0.00    +0.000 A 
ATOM     16  C   UNL     1       0.240  10.196  18.658  0.00  0.00    +0.000 A 
ATOM     17  C   UNL     1      -0.716  10.919  19.375  0.00  0.00    +0.000 A 
ATOM     18  C   UNL     1      -0.838  10.748  20.751  0.00  0.00    +0.000 A 
ATOM     19  C   UNL     1       0.005   9.849  21.406  0.00  0.00    +0.000 A 
ATOM     20 CL   UNL     1      -0.152   9.645  23.112  0.00  0.00    +0.000 Cl
ATOM     21  C   UNL     1       0.966   9.124  20.687  0.00  0.00    +0.000 A 
BRANCH  21  22
ATOM     22  O   UNL     1       1.805   8.251  21.336  0.00  0.00    +0.000 OA
ATOM     23  H   UNL     1       2.299   8.773  21.998  0.00  0.00    +0.000 HD
ENDBRANCH  21  22
ENDBRANCH  14  15
ENDBRANCH  10  14
TORSDOF 3
ENDMDL
MODEL 8
REMARK VINA RESULT:      -6.9      2.706      6.675
REMARK  Name = 
REMARK  4 active torsions:
REMARK  status: ('A' for Active; 'I' for Inactive)
REMARK    1  A    between atoms: C_1  and  N_2
REMARK    2  A    between atoms: N_10  and  C_11
REMARK    3  A    between atoms: C_11  and  C_12
REMARK    4  A    between atoms: C_18  and  O_19
REMARK                            x       y       z     vdW  Elec       q    Type
REMARK                         _______ _______ _______ _____ _____    ______ ____
ROOT
ATOM      1  C   UNL     1      -0.350   9.619  23.545  0.00  0.00    +0.000 C 
ATOM      2  N   UNL     1       0.313  10.190  22.377  0.00  0.00    +0.000 NA
ATOM      3  C   UNL     1      -0.496  11.242  21.752  0.00  0.00    +0.000 C 
ATOM      4  C   UNL     1       0.335  11.954  20.680  0.00  0.00    +0.000 C 
ATOM      5  C   UNL     1       1.008  10.986  19.741  0.00  0.00    +0.000 A 
ATOM      6  N   UNL     1       1.475  11.493  18.583  0.00  0.00    +0.000 NA
ATOM      7  C   UNL     1       2.077  10.613  17.772  0.00  0.00    +0.000 A 
ATOM      8  N   UNL     1       2.239   9.301  17.996  0.00  0.00    +0.000 NA
ATOM      9  C   UNL     1       1.762   8.808  19.152  0.00  0.00    +0.000 A 
ATOM     10  N   UNL     1       1.720   7.415  19.330  0.00  0.00    +0.000 N 
ATOM     11  C   UNL     1       1.148   9.645  20.087  0.00  0.00    +0.000 A 
ATOM     12  C   UNL     1       0.601   9.133  21.390  0.00  0.00    +0.000 C 
ATOM     13  H   UNL     1       1.704   7.146  20.307  0.00  0.00    +0.000 HD
ENDROOT
BRANCH  10  14
ATOM     14  C   UNL     1       2.751   6.629  18.664  0.00  0.00    +0.000 C 
BRANCH  14  15
ATOM     15  C   UNL     1       2.433   5.159  18.840  0.00  0.00    +0.000 A 
ATOM     16  C   UNL     1       2.295   4.348  17.698  0.00  0.00    +0.000 A 
ATOM     17  C   UNL     1       1.997   2.989  17.811  0.00  0.00    +0.000 A 
ATOM     18  C   UNL     1       1.817   2.412  19.064  0.00  0.00    +0.000 A 
ATOM     19  C   UNL     1       1.937   3.206  20.207  0.00  0.00    +0.000 A 
ATOM     20 CL   UNL     1       1.710   2.482  21.757  0.00  0.00    +0.000 Cl
ATOM     21  C   UNL     1       2.235   4.571  20.094  0.00  0.00    +0.000 A 
BRANCH  21  22
ATOM     22  O   UNL     1       2.337   5.355  21.218  0.00  0.00    +0.000 OA
ATOM     23  H   UNL     1       2.266   4.756  21.986  0.00  0.00    +0.000 HD
ENDBRANCH  21  22
ENDBRANCH  14  15
ENDBRANCH  10  14
TORSDOF 3
ENDMDL
MODEL 9
REMARK VINA RESULT:      -6.9      2.095      2.289
REMARK  Name = 
REMARK  4 active torsions:
REMARK  status: ('A' for Active; 'I' for Inactive)
REMARK    1  A    between atoms: C_1  and  N_2
REMARK    2  A    between atoms: N_10  and  C_11
REMARK    3  A    between atoms: C_11  and  C_12
REMARK    4  A    between atoms: C_18  and  O_19
REMARK                            x       y       z     vdW  Elec       q    Type
REMARK                         _______ _______ _______ _____ _____    ______ ____
ROOT
ATOM      1  C   UNL     1       1.467   2.915  21.430  0.00  0.00    +0.000 C 
ATOM      2  N   UNL     1       2.229   3.142  20.205  0.00  0.00    +0.000 NA
ATOM      3  C   UNL     1       3.551   2.508  20.263  0.00  0.00    +0.000 C 
ATOM      4  C   UNL     1       4.211   2.585  18.883  0.00  0.00    +0.000 C 
ATOM      5  C   UNL     1       4.165   3.975  18.301  0.00  0.00    +0.000 A 
ATOM      6  N   UNL     1       4.995   4.227  17.271  0.00  0.00    +0.000 NA
ATOM      7  C   UNL     1       4.926   5.467  16.767  0.00  0.00    +0.000 A 
ATOM      8  N   UNL     1       4.134   6.460  17.197  0.00  0.00    +0.000 NA
ATOM      9  C   UNL     1       3.316   6.195  18.230  0.00  0.00    +0.000 A 
ATOM     10  N   UNL     1       2.632   7.259  18.844  0.00  0.00    +0.000 N 
ATOM     11  C   UNL     1       3.282   4.924  18.807  0.00  0.00    +0.000 A 
ATOM     12  C   UNL     1       2.382   4.589  19.964  0.00  0.00    +0.000 C 
ATOM     13  H   UNL     1       1.799   6.956  19.336  0.00  0.00    +0.000 HD
ENDROOT
BRANCH  10  14
ATOM     14  C   UNL     1       2.269   8.390  18.000  0.00  0.00    +0.000 C 
BRANCH  14  15
ATOM     15  C   UNL     1       1.605   9.446  18.859  0.00  0.00    +0.000 A 
ATOM     16  C   UNL     1       0.897   9.046  20.007  0.00  0.00    +0.000 A 
ATOM     17  C   UNL     1       0.264   9.983  20.826  0.00  0.00    +0.000 A 
ATOM     18  C   UNL     1       0.313  11.337  20.510  0.00  0.00    +0.000 A 
ATOM     19  C   UNL     1       1.000  11.749  19.367  0.00  0.00    +0.000 A 
ATOM     20 CL   UNL     1       1.054  13.430  18.982  0.00  0.00    +0.000 Cl
ATOM     21  C   UNL     1       1.635  10.808  18.543  0.00  0.00    +0.000 A 
BRANCH  21  22
ATOM     22  O   UNL     1       2.298  11.213  17.410  0.00  0.00    +0.000 OA
ATOM     23  H   UNL     1       3.027  10.578  17.267  0.00  0.00    +0.000 HD
ENDBRANCH  21  22
ENDBRANCH  14  15
ENDBRANCH  10  14
TORSDOF 3
ENDMDL
