MODEL 1
REMARK VINA RESULT:      -8.3      0.000      0.000
REMARK  Name = 
REMARK  14 active torsions:
REMARK  status: ('A' for Active; 'I' for Inactive)
REMARK    1  A    between atoms: C_1  and  C_2
REMARK    2  A    between atoms: C_2  and  C_3
REMARK    3  A    between atoms: C_2  and  C_4
REMARK    4  A    between atoms: C_2  and  C_27
REMARK    5  A    between atoms: C_4  and  C_5
REMARK    6  A    between atoms: C_5  and  C_6
REMARK    7  A    between atoms: C_5  and  N_19
REMARK    8  A    between atoms: C_6  and  C_7
REMARK    9  A    between atoms: C_10  and  C_11
REMARK   10  A    between atoms: C_20  and  C_22
REMARK   11  A    between atoms: C_22  and  C_23
REMARK   12  A    between atoms: C_23  and  C_24
REMARK   13  A    between atoms: C_24  and  O_26
REMARK   14  A    between atoms: C_27  and  O_29
REMARK                            x       y       z     vdW  Elec       q    Type
REMARK                         _______ _______ _______ _____ _____    ______ ____
ROOT
ATOM      1  C   UNL     1       3.518   5.293  18.261  0.00  0.00    +0.000 C 
ENDROOT
BRANCH   1   2
ATOM      2  N   UNL     1       4.951   5.540  18.027  0.00  0.00    +0.000 N 
ATOM      3  C   UNL     1       5.718   4.681  17.258  0.00  0.00    +0.000 C 
ATOM      4  O   UNL     1       5.267   3.706  16.666  0.00  0.00    +0.000 OA
ATOM      5  H   UNL     1       5.405   6.274  18.546  0.00  0.00    +0.000 HD
BRANCH   3   6
ATOM      6  C   UNL     1       7.195   5.021  17.245  0.00  0.00    +0.000 C 
BRANCH   6   7
ATOM      7  C   UNL     1       7.574   5.862  18.461  0.00  0.00    +0.000 C 
BRANCH   7   8
ATOM      8  C   UNL     1       7.953   7.264  18.064  0.00  0.00    +0.000 C 
ATOM      9  O   UNL     1       7.643   7.802  17.013  0.00  0.00    +0.000 OA
BRANCH   8  10
ATOM     10  O   UNL     1       8.690   7.891  19.009  0.00  0.00    +0.000 OA
ATOM     11  H   UNL     1       8.845   7.355  19.810  0.00  0.00    +0.000 HD
ENDBRANCH   8  10
ENDBRANCH   7   8
ENDBRANCH   6   7
ENDBRANCH   3   6
ENDBRANCH   1   2
BRANCH   1  12
ATOM     12  C   UNL     1       3.328   4.643  19.640  0.00  0.00    +0.000 C 
BRANCH  12  14
ATOM     13  C   UNL     1       2.426   2.860  21.186  0.00  0.00    +0.000 C 
ATOM     14  C   UNL     1       2.834   3.166  19.730  0.00  0.00    +0.000 C 
ATOM     15  C   UNL     1       1.616   3.060  18.798  0.00  0.00    +0.000 C 
BRANCH  14  16
ATOM     16  C   UNL     1       3.821   2.062  19.300  0.00  0.00    +0.000 C 
ATOM     17  O   UNL     1       3.590   1.230  18.429  0.00  0.00    +0.000 OA
BRANCH  16  18
ATOM     18  O   UNL     1       5.016   2.095  19.924  0.00  0.00    +0.000 OA
ATOM     19  H   UNL     1       5.322   2.974  20.196  0.00  0.00    +0.000 HD
ENDBRANCH  16  18
ENDBRANCH  14  16
ENDBRANCH  12  14
ENDBRANCH   1  12
BRANCH   1  20
ATOM     20  C   UNL     1       2.666   6.535  17.951  0.00  0.00    +0.000 C 
BRANCH  20  21
ATOM     21  C   UNL     1       2.151   7.498  19.004  0.00  0.00    +0.000 A 
ATOM     22  C   UNL     1       1.737   8.744  18.523  0.00  0.00    +0.000 A 
ATOM     23  C   UNL     1       1.128   9.682  19.351  0.00  0.00    +0.000 A 
ATOM     24  C   UNL     1       0.861   9.423  20.703  0.00  0.00    +0.000 A 
ATOM     25  C   UNL     1       1.266   8.175  21.196  0.00  0.00    +0.000 A 
ATOM     26  C   UNL     1       1.914   7.232  20.359  0.00  0.00    +0.000 A 
BRANCH  24  27
ATOM     27  C   UNL     1       0.253  10.504  21.513  0.00  0.00    +0.000 A 
ATOM     28  C   UNL     1      -0.566  10.183  22.619  0.00  0.00    +0.000 A 
ATOM     29  C   UNL     1      -1.406  11.127  23.209  0.00  0.00    +0.000 A 
ATOM     30  C   UNL     1      -1.402  12.435  22.744  0.00  0.00    +0.000 A 
ATOM     31  C   UNL     1      -0.522  12.803  21.727  0.00  0.00    +0.000 A 
ATOM     32  C   UNL     1       0.305  11.848  21.121  0.00  0.00    +0.000 A 
ENDBRANCH  24  27
ENDBRANCH  20  21
ENDBRANCH   1  20
TORSDOF 12
ENDMDL
MODEL 2
REMARK VINA RESULT:      -8.2      1.684      4.241
REMARK  Name = 
REMARK  14 active torsions:
REMARK  status: ('A' for Active; 'I' for Inactive)
REMARK    1  A    between atoms: C_1  and  C_2
REMARK    2  A    between atoms: C_2  and  C_3
REMARK    3  A    between atoms: C_2  and  C_4
REMARK    4  A    between atoms: C_2  and  C_27
REMARK    5  A    between atoms: C_4  and  C_5
REMARK    6  A    between atoms: C_5  and  C_6
REMARK    7  A    between atoms: C_5  and  N_19
REMARK    8  A    between atoms: C_6  and  C_7
REMARK    9  A    between atoms: C_10  and  C_11
REMARK   10  A    between atoms: C_20  and  C_22
REMARK   11  A    between atoms: C_22  and  C_23
REMARK   12  A    between atoms: C_23  and  C_24
REMARK   13  A    between atoms: C_24  and  O_26
REMARK   14  A    between atoms: C_27  and  O_29
REMARK                            x       y       z     vdW  Elec       q    Type
REMARK                         _______ _______ _______ _____ _____    ______ ____
ROOT
ATOM      1  C   UNL     1       3.209   6.232  18.215  0.00  0.00    +0.000 C 
ENDROOT
BRANCH   1   2
ATOM      2  N   UNL     1       2.112   5.328  18.603  0.00  0.00    +0.000 N 
ATOM      3  C   UNL     1       2.101   4.687  19.830  0.00  0.00    +0.000 C 
ATOM      4  O   UNL     1       2.944   4.866  20.702  0.00  0.00    +0.000 OA
ATOM      5  H   UNL     1       1.430   5.072  17.907  0.00  0.00    +0.000 HD
BRANCH   3   6
ATOM      6  C   UNL     1       0.969   3.693  19.993  0.00  0.00    +0.000 C 
BRANCH   6   7
ATOM      7  C   UNL     1       0.954   2.686  18.845  0.00  0.00    +0.000 C 
BRANCH   7   8
ATOM      8  C   UNL     1       2.296   2.028  18.673  0.00  0.00    +0.000 C 
ATOM      9  O   UNL     1       3.051   1.727  19.584  0.00  0.00    +0.000 OA
BRANCH   8  10
ATOM     10  O   UNL     1       2.597   1.791  17.376  0.00  0.00    +0.000 OA
ATOM     11  H   UNL     1       1.814   1.698  16.799  0.00  0.00    +0.000 HD
ENDBRANCH   8  10
ENDBRANCH   7   8
ENDBRANCH   6   7
ENDBRANCH   3   6
ENDBRANCH   1   2
BRANCH   1  12
ATOM     12  C   UNL     1       4.102   5.538  17.175  0.00  0.00    +0.000 C 
BRANCH  12  14
ATOM     13  C   UNL     1       6.199   4.325  16.457  0.00  0.00    +0.000 C 
ATOM     14  C   UNL     1       5.610   5.299  17.499  0.00  0.00    +0.000 C 
ATOM     15  C   UNL     1       6.296   6.671  17.400  0.00  0.00    +0.000 C 
BRANCH  14  16
ATOM     16  C   UNL     1       5.953   4.728  18.890  0.00  0.00    +0.000 C 
ATOM     17  O   UNL     1       6.626   5.315  19.731  0.00  0.00    +0.000 OA
BRANCH  16  18
ATOM     18  O   UNL     1       5.411   3.523  19.158  0.00  0.00    +0.000 OA
ATOM     19  H   UNL     1       4.563   3.542  19.630  0.00  0.00    +0.000 HD
ENDBRANCH  16  18
ENDBRANCH  14  16
ENDBRANCH  12  14
ENDBRANCH   1  12
BRANCH   1  20
ATOM     20  C   UNL     1       2.694   7.637  17.865  0.00  0.00    +0.000 C 
BRANCH  20  21
ATOM     21  C   UNL     1       1.915   8.522  18.821  0.00  0.00    +0.000 A 
ATOM     22  C   UNL     1       1.226   9.584  18.226  0.00  0.00    +0.000 A 
ATOM     23  C   UNL     1       0.372  10.403  18.958  0.00  0.00    +0.000 A 
ATOM     24  C   UNL     1       0.123  10.193  20.322  0.00  0.00    +0.000 A 
ATOM     25  C   UNL     1       0.803   9.128  20.928  0.00  0.00    +0.000 A 
ATOM     26  C   UNL     1       1.696   8.313  20.188  0.00  0.00    +0.000 A 
BRANCH  24  27
ATOM     27  C   UNL     1      -0.765  11.148  21.024  0.00  0.00    +0.000 A 
ATOM     28  C   UNL     1      -0.900  11.086  22.429  0.00  0.00    +0.000 A 
ATOM     29  C   UNL     1      -1.942  11.730  23.095  0.00  0.00    +0.000 A 
ATOM     30  C   UNL     1      -2.840  12.508  22.376  0.00  0.00    +0.000 A 
ATOM     31  C   UNL     1      -2.662  12.676  21.003  0.00  0.00    +0.000 A 
ATOM     32  C   UNL     1      -1.628  12.009  20.332  0.00  0.00    +0.000 A 
ENDBRANCH  24  27
ENDBRANCH  20  21
ENDBRANCH   1  20
TORSDOF 12
ENDMDL
MODEL 3
REMARK VINA RESULT:      -8.2      2.412      3.467
REMARK  Name = 
REMARK  14 active torsions:
REMARK  status: ('A' for Active; 'I' for Inactive)
REMARK    1  A    between atoms: C_1  and  C_2
REMARK    2  A    between atoms: C_2  and  C_3
REMARK    3  A    between atoms: C_2  and  C_4
REMARK    4  A    between atoms: C_2  and  C_27
REMARK    5  A    between atoms: C_4  and  C_5
REMARK    6  A    between atoms: C_5  and  C_6
REMARK    7  A    between atoms: C_5  and  N_19
REMARK    8  A    between atoms: C_6  and  C_7
REMARK    9  A    between atoms: C_10  and  C_11
REMARK   10  A    between atoms: C_20  and  C_22
REMARK   11  A    between atoms: C_22  and  C_23
REMARK   12  A    between atoms: C_23  and  C_24
REMARK   13  A    between atoms: C_24  and  O_26
REMARK   14  A    between atoms: C_27  and  O_29
REMARK                            x       y       z     vdW  Elec       q    Type
REMARK                         _______ _______ _______ _____ _____    ______ ____
ROOT
ATOM      1  C   UNL     1       3.940   5.208  17.227  0.00  0.00    +0.000 C 
ENDROOT
BRANCH   1   2
ATOM      2  N   UNL     1       5.046   4.791  16.347  0.00  0.00    +0.000 N 
ATOM      3  C   UNL     1       5.521   5.614  15.340  0.00  0.00    +0.000 C 
ATOM      4  O   UNL     1       5.118   6.756  15.145  0.00  0.00    +0.000 OA
ATOM      5  H   UNL     1       5.369   3.838  16.398  0.00  0.00    +0.000 HD
BRANCH   3   6
ATOM      6  C   UNL     1       6.562   4.962  14.453  0.00  0.00    +0.000 C 
BRANCH   6   7
ATOM      7  C   UNL     1       6.011   3.696  13.802  0.00  0.00    +0.000 C 
BRANCH   7   8
ATOM      8  C   UNL     1       6.542   3.521  12.404  0.00  0.00    +0.000 C 
ATOM      9  O   UNL     1       7.264   4.316  11.824  0.00  0.00    +0.000 OA
BRANCH   8  10
ATOM     10  O   UNL     1       6.133   2.365  11.833  0.00  0.00    +0.000 OA
ATOM     11  H   UNL     1       5.169   2.217  11.888  0.00  0.00    +0.000 HD
ENDBRANCH   8  10
ENDBRANCH   7   8
ENDBRANCH   6   7
ENDBRANCH   3   6
ENDBRANCH   1   2
BRANCH   1  12
ATOM     12  C   UNL     1       3.774   4.185  18.362  0.00  0.00    +0.000 C 
BRANCH  12  14
ATOM     13  C   UNL     1       1.346   4.174  17.663  0.00  0.00    +0.000 C 
ATOM     14  C   UNL     1       2.390   3.496  18.574  0.00  0.00    +0.000 C 
ATOM     15  C   UNL     1       2.575   2.023  18.174  0.00  0.00    +0.000 C 
BRANCH  14  16
ATOM     16  C   UNL     1       1.809   3.500  20.002  0.00  0.00    +0.000 C 
ATOM     17  O   UNL     1       0.733   4.002  20.309  0.00  0.00    +0.000 OA
BRANCH  16  18
ATOM     18  O   UNL     1       2.555   2.852  20.921  0.00  0.00    +0.000 OA
ATOM     19  H   UNL     1       3.205   3.398  21.392  0.00  0.00    +0.000 HD
ENDBRANCH  16  18
ENDBRANCH  14  16
ENDBRANCH  12  14
ENDBRANCH   1  12
BRANCH   1  20
ATOM     20  C   UNL     1       4.059   6.686  17.632  0.00  0.00    +0.000 C 
BRANCH  20  21
ATOM     21  C   UNL     1       2.956   7.473  18.314  0.00  0.00    +0.000 A 
ATOM     22  C   UNL     1       2.669   7.086  19.627  0.00  0.00    +0.000 A 
ATOM     23  C   UNL     1       1.771   7.795  20.419  0.00  0.00    +0.000 A 
ATOM     24  C   UNL     1       1.127   8.954  19.964  0.00  0.00    +0.000 A 
ATOM     25  C   UNL     1       1.411   9.356  18.651  0.00  0.00    +0.000 A 
ATOM     26  C   UNL     1       2.303   8.616  17.835  0.00  0.00    +0.000 A 
BRANCH  24  27
ATOM     27  C   UNL     1       0.152   9.610  20.864  0.00  0.00    +0.000 A 
ATOM     28  C   UNL     1      -0.474  10.814  20.472  0.00  0.00    +0.000 A 
ATOM     29  C   UNL     1      -1.140  11.628  21.388  0.00  0.00    +0.000 A 
ATOM     30  C   UNL     1      -1.249  11.225  22.712  0.00  0.00    +0.000 A 
ATOM     31  C   UNL     1      -0.736   9.987  23.101  0.00  0.00    +0.000 A 
ATOM     32  C   UNL     1      -0.048   9.182  22.184  0.00  0.00    +0.000 A 
ENDBRANCH  24  27
ENDBRANCH  20  21
ENDBRANCH   1  20
TORSDOF 12
ENDMDL
MODEL 4
REMARK VINA RESULT:      -8.2      3.654      8.204
REMARK  Name = 
REMARK  14 active torsions:
REMARK  status: ('A' for Active; 'I' for Inactive)
REMARK    1  A    between atoms: C_1  and  C_2
REMARK    2  A    between atoms: C_2  and  C_3
REMARK    3  A    between atoms: C_2  and  C_4
REMARK    4  A    between atoms: C_2  and  C_27
REMARK    5  A    between atoms: C_4  and  C_5
REMARK    6  A    between atoms: C_5  and  C_6
REMARK    7  A    between atoms: C_5  and  N_19
REMARK    8  A    between atoms: C_6  and  C_7
REMARK    9  A    between atoms: C_10  and  C_11
REMARK   10  A    between atoms: C_20  and  C_22
REMARK   11  A    between atoms: C_22  and  C_23
REMARK   12  A    between atoms: C_23  and  C_24
REMARK   13  A    between atoms: C_24  and  O_26
REMARK   14  A    between atoms: C_27  and  O_29
REMARK                            x       y       z     vdW  Elec       q    Type
REMARK                         _______ _______ _______ _____ _____    ______ ____
ROOT
ATOM      1  C   UNL     1       2.820   5.569  19.947  0.00  0.00    +0.000 C 
ENDROOT
BRANCH   1   2
ATOM      2  N   UNL     1       2.013   6.683  20.474  0.00  0.00    +0.000 N 
ATOM      3  C   UNL     1       1.805   7.838  19.739  0.00  0.00    +0.000 C 
ATOM      4  O   UNL     1       2.207   7.999  18.592  0.00  0.00    +0.000 OA
ATOM      5  H   UNL     1       1.721   6.653  21.437  0.00  0.00    +0.000 HD
BRANCH   3   6
ATOM      6  C   UNL     1       1.071   8.924  20.498  0.00  0.00    +0.000 C 
BRANCH   6   7
ATOM      7  C   UNL     1       1.334   8.819  21.998  0.00  0.00    +0.000 C 
BRANCH   7   8
ATOM      8  C   UNL     1       0.135   9.251  22.799  0.00  0.00    +0.000 C 
ATOM      9  O   UNL     1       0.086  10.242  23.509  0.00  0.00    +0.000 OA
BRANCH   8  10
ATOM     10  O   UNL     1      -0.917   8.413  22.652  0.00  0.00    +0.000 OA
ATOM     11  H   UNL     1      -1.297   8.104  23.497  0.00  0.00    +0.000 HD
ENDBRANCH   8  10
ENDBRANCH   7   8
ENDBRANCH   6   7
ENDBRANCH   3   6
ENDBRANCH   1   2
BRANCH   1  12
ATOM     12  C   UNL     1       2.007   4.799  18.894  0.00  0.00    +0.000 C 
BRANCH  12  14
ATOM     13  C   UNL     1       0.720   2.637  19.130  0.00  0.00    +0.000 C 
ATOM     14  C   UNL     1       2.108   3.243  18.836  0.00  0.00    +0.000 C 
ATOM     15  C   UNL     1       2.555   2.892  17.407  0.00  0.00    +0.000 C 
BRANCH  14  16
ATOM     16  C   UNL     1       3.106   2.562  19.794  0.00  0.00    +0.000 C 
ATOM     17  O   UNL     1       2.972   2.517  21.013  0.00  0.00    +0.000 OA
BRANCH  16  18
ATOM     18  O   UNL     1       4.148   1.954  19.191  0.00  0.00    +0.000 OA
ATOM     19  H   UNL     1       3.923   1.391  18.434  0.00  0.00    +0.000 HD
ENDBRANCH  16  18
ENDBRANCH  14  16
ENDBRANCH  12  14
ENDBRANCH   1  12
BRANCH   1  20
ATOM     20  C   UNL     1       4.230   6.028  19.540  0.00  0.00    +0.000 C 
BRANCH  20  21
ATOM     21  C   UNL     1       4.819   5.843  18.154  0.00  0.00    +0.000 A 
ATOM     22  C   UNL     1       5.573   4.679  17.975  0.00  0.00    +0.000 A 
ATOM     23  C   UNL     1       6.071   4.314  16.728  0.00  0.00    +0.000 A 
ATOM     24  C   UNL     1       5.818   5.068  15.573  0.00  0.00    +0.000 A 
ATOM     25  C   UNL     1       5.057   6.234  15.738  0.00  0.00    +0.000 A 
ATOM     26  C   UNL     1       4.577   6.621  17.014  0.00  0.00    +0.000 A 
BRANCH  24  27
ATOM     27  C   UNL     1       6.431   4.623  14.301  0.00  0.00    +0.000 A 
ATOM     28  C   UNL     1       7.518   5.340  13.751  0.00  0.00    +0.000 A 
ATOM     29  C   UNL     1       7.918   5.165  12.426  0.00  0.00    +0.000 A 
ATOM     30  C   UNL     1       7.278   4.221  11.635  0.00  0.00    +0.000 A 
ATOM     31  C   UNL     1       6.276   3.423  12.187  0.00  0.00    +0.000 A 
ATOM     32  C   UNL     1       5.861   3.616  13.511  0.00  0.00    +0.000 A 
ENDBRANCH  24  27
ENDBRANCH  20  21
ENDBRANCH   1  20
TORSDOF 12
ENDMDL
MODEL 5
REMARK VINA RESULT:      -8.0      1.341      1.989
REMARK  Name = 
REMARK  14 active torsions:
REMARK  status: ('A' for Active; 'I' for Inactive)
REMARK    1  A    between atoms: C_1  and  C_2
REMARK    2  A    between atoms: C_2  and  C_3
REMARK    3  A    between atoms: C_2  and  C_4
REMARK    4  A    between atoms: C_2  and  C_27
REMARK    5  A    between atoms: C_4  and  C_5
REMARK    6  A    between atoms: C_5  and  C_6
REMARK    7  A    between atoms: C_5  and  N_19
REMARK    8  A    between atoms: C_6  and  C_7
REMARK    9  A    between atoms: C_10  and  C_11
REMARK   10  A    between atoms: C_20  and  C_22
REMARK   11  A    between atoms: C_22  and  C_23
REMARK   12  A    between atoms: C_23  and  C_24
REMARK   13  A    between atoms: C_24  and  O_26
REMARK   14  A    between atoms: C_27  and  O_29
REMARK                            x       y       z     vdW  Elec       q    Type
REMARK                         _______ _______ _______ _____ _____    ______ ____
ROOT
ATOM      1  C   UNL     1       2.787   5.491  17.644  0.00  0.00    +0.000 C 
ENDROOT
BRANCH   1   2
ATOM      2  N   UNL     1       3.999   4.733  17.286  0.00  0.00    +0.000 N 
ATOM      3  C   UNL     1       4.931   5.237  16.395  0.00  0.00    +0.000 C 
ATOM      4  O   UNL     1       4.863   6.355  15.894  0.00  0.00    +0.000 OA
ATOM      5  H   UNL     1       4.079   3.778  17.595  0.00  0.00    +0.000 HD
BRANCH   3   6
ATOM      6  C   UNL     1       6.035   4.261  16.044  0.00  0.00    +0.000 C 
BRANCH   6   7
ATOM      7  C   UNL     1       7.371   4.712  16.627  0.00  0.00    +0.000 C 
BRANCH   7   8
ATOM      8  C   UNL     1       7.257   5.013  18.097  0.00  0.00    +0.000 C 
ATOM      9  O   UNL     1       7.732   5.992  18.652  0.00  0.00    +0.000 OA
BRANCH   8  10
ATOM     10  O   UNL     1       6.554   4.071  18.768  0.00  0.00    +0.000 OA
ATOM     11  H   UNL     1       5.637   4.336  18.975  0.00  0.00    +0.000 HD
ENDBRANCH   8  10
ENDBRANCH   7   8
ENDBRANCH   6   7
ENDBRANCH   3   6
ENDBRANCH   1   2
BRANCH   1  12
ATOM     12  C   UNL     1       1.638   4.513  17.934  0.00  0.00    +0.000 C 
BRANCH  12  14
ATOM     13  C   UNL     1       1.455   4.085  20.418  0.00  0.00    +0.000 C 
ATOM     14  C   UNL     1       1.807   3.444  19.059  0.00  0.00    +0.000 C 
ATOM     15  C   UNL     1       0.824   2.310  18.729  0.00  0.00    +0.000 C 
BRANCH  14  16
ATOM     16  C   UNL     1       3.198   2.797  19.216  0.00  0.00    +0.000 C 
ATOM     17  O   UNL     1       4.022   3.127  20.062  0.00  0.00    +0.000 OA
BRANCH  16  18
ATOM     18  O   UNL     1       3.447   1.775  18.372  0.00  0.00    +0.000 OA
ATOM     19  H   UNL     1       3.951   1.036  18.746  0.00  0.00    +0.000 HD
ENDBRANCH  16  18
ENDBRANCH  14  16
ENDBRANCH  12  14
ENDBRANCH   1  12
BRANCH   1  20
ATOM     20  C   UNL     1       3.076   6.562  18.708  0.00  0.00    +0.000 C 
BRANCH  20  21
ATOM     21  C   UNL     1       2.141   7.711  19.036  0.00  0.00    +0.000 A 
ATOM     22  C   UNL     1       1.688   7.754  20.358  0.00  0.00    +0.000 A 
ATOM     23  C   UNL     1       0.926   8.816  20.836  0.00  0.00    +0.000 A 
ATOM     24  C   UNL     1       0.598   9.919  20.035  0.00  0.00    +0.000 A 
ATOM     25  C   UNL     1       1.052   9.891  18.710  0.00  0.00    +0.000 A 
ATOM     26  C   UNL     1       1.802   8.794  18.215  0.00  0.00    +0.000 A 
BRANCH  24  27
ATOM     27  C   UNL     1      -0.258  10.977  20.621  0.00  0.00    +0.000 A 
ATOM     28  C   UNL     1      -0.166  11.278  21.998  0.00  0.00    +0.000 A 
ATOM     29  C   UNL     1      -1.149  12.018  22.655  0.00  0.00    +0.000 A 
ATOM     30  C   UNL     1      -2.219  12.530  21.934  0.00  0.00    +0.000 A 
ATOM     31  C   UNL     1      -2.274  12.341  20.553  0.00  0.00    +0.000 A 
ATOM     32  C   UNL     1      -1.298  11.578  19.899  0.00  0.00    +0.000 A 
ENDBRANCH  24  27
ENDBRANCH  20  21
ENDBRANCH   1  20
TORSDOF 12
ENDMDL
MODEL 6
REMARK VINA RESULT:      -8.0      1.341      1.844
REMARK  Name = 
REMARK  14 active torsions:
REMARK  status: ('A' for Active; 'I' for Inactive)
REMARK    1  A    between atoms: C_1  and  C_2
REMARK    2  A    between atoms: C_2  and  C_3
REMARK    3  A    between atoms: C_2  and  C_4
REMARK    4  A    between atoms: C_2  and  C_27
REMARK    5  A    between atoms: C_4  and  C_5
REMARK    6  A    between atoms: C_5  and  C_6
REMARK    7  A    between atoms: C_5  and  N_19
REMARK    8  A    between atoms: C_6  and  C_7
REMARK    9  A    between atoms: C_10  and  C_11
REMARK   10  A    between atoms: C_20  and  C_22
REMARK   11  A    between atoms: C_22  and  C_23
REMARK   12  A    between atoms: C_23  and  C_24
REMARK   13  A    between atoms: C_24  and  O_26
REMARK   14  A    between atoms: C_27  and  O_29
REMARK                            x       y       z     vdW  Elec       q    Type
REMARK                         _______ _______ _______ _____ _____    ______ ____
ROOT
ATOM      1  C   UNL     1       3.452   5.516  18.806  0.00  0.00    +0.000 C 
ENDROOT
BRANCH   1   2
ATOM      2  N   UNL     1       4.874   5.902  18.815  0.00  0.00    +0.000 N 
ATOM      3  C   UNL     1       5.870   4.989  19.118  0.00  0.00    +0.000 C 
ATOM      4  O   UNL     1       5.664   3.799  19.331  0.00  0.00    +0.000 OA
ATOM      5  H   UNL     1       5.109   6.877  18.729  0.00  0.00    +0.000 HD
BRANCH   3   6
ATOM      6  C   UNL     1       7.253   5.599  19.215  0.00  0.00    +0.000 C 
BRANCH   6   7
ATOM      7  C   UNL     1       7.580   6.415  17.967  0.00  0.00    +0.000 C 
BRANCH   7   8
ATOM      8  C   UNL     1       7.291   5.639  16.710  0.00  0.00    +0.000 C 
ATOM      9  O   UNL     1       7.835   4.594  16.391  0.00  0.00    +0.000 OA
BRANCH   8  10
ATOM     10  O   UNL     1       6.341   6.224  15.945  0.00  0.00    +0.000 OA
ATOM     11  H   UNL     1       6.698   6.713  15.178  0.00  0.00    +0.000 HD
ENDBRANCH   8  10
ENDBRANCH   7   8
ENDBRANCH   6   7
ENDBRANCH   3   6
ENDBRANCH   1   2
BRANCH   1  12
ATOM     12  C   UNL     1       3.080   4.892  20.160  0.00  0.00    +0.000 C 
BRANCH  12  14
ATOM     13  C   UNL     1       2.612   2.751  21.417  0.00  0.00    +0.000 C 
ATOM     14  C   UNL     1       2.205   3.600  20.194  0.00  0.00    +0.000 C 
ATOM     15  C   UNL     1       0.747   4.069  20.327  0.00  0.00    +0.000 C 
BRANCH  14  16
ATOM     16  C   UNL     1       2.265   2.673  18.964  0.00  0.00    +0.000 C 
ATOM     17  O   UNL     1       1.375   2.579  18.126  0.00  0.00    +0.000 OA
BRANCH  16  18
ATOM     18  O   UNL     1       3.415   1.981  18.830  0.00  0.00    +0.000 OA
ATOM     19  H   UNL     1       3.949   2.205  18.051  0.00  0.00    +0.000 HD
ENDBRANCH  16  18
ENDBRANCH  14  16
ENDBRANCH  12  14
ENDBRANCH   1  12
BRANCH   1  20
ATOM     20  C   UNL     1       2.555   6.654  18.293  0.00  0.00    +0.000 C 
BRANCH  20  21
ATOM     21  C   UNL     1       1.999   7.761  19.169  0.00  0.00    +0.000 A 
ATOM     22  C   UNL     1       1.650   8.937  18.498  0.00  0.00    +0.000 A 
ATOM     23  C   UNL     1       1.015   9.990  19.148  0.00  0.00    +0.000 A 
ATOM     24  C   UNL     1       0.656   9.924  20.502  0.00  0.00    +0.000 A 
ATOM     25  C   UNL     1       0.995   8.748  21.185  0.00  0.00    +0.000 A 
ATOM     26  C   UNL     1       1.669   7.688  20.529  0.00  0.00    +0.000 A 
BRANCH  24  27
ATOM     27  C   UNL     1       0.026  11.116  21.116  0.00  0.00    +0.000 A 
ATOM     28  C   UNL     1       0.466  12.410  20.760  0.00  0.00    +0.000 A 
ATOM     29  C   UNL     1       0.143  13.531  21.524  0.00  0.00    +0.000 A 
ATOM     30  C   UNL     1      -0.682  13.393  22.632  0.00  0.00    +0.000 A 
ATOM     31  C   UNL     1      -1.220  12.143  22.939  0.00  0.00    +0.000 A 
ATOM     32  C   UNL     1      -0.876  11.014  22.184  0.00  0.00    +0.000 A 
ENDBRANCH  24  27
ENDBRANCH  20  21
ENDBRANCH   1  20
TORSDOF 12
ENDMDL
MODEL 7
REMARK VINA RESULT:      -7.9      1.436      4.090
REMARK  Name = 
REMARK  14 active torsions:
REMARK  status: ('A' for Active; 'I' for Inactive)
REMARK    1  A    between atoms: C_1  and  C_2
REMARK    2  A    between atoms: C_2  and  C_3
REMARK    3  A    between atoms: C_2  and  C_4
REMARK    4  A    between atoms: C_2  and  C_27
REMARK    5  A    between atoms: C_4  and  C_5
REMARK    6  A    between atoms: C_5  and  C_6
REMARK    7  A    between atoms: C_5  and  N_19
REMARK    8  A    between atoms: C_6  and  C_7
REMARK    9  A    between atoms: C_10  and  C_11
REMARK   10  A    between atoms: C_20  and  C_22
REMARK   11  A    between atoms: C_22  and  C_23
REMARK   12  A    between atoms: C_23  and  C_24
REMARK   13  A    between atoms: C_24  and  O_26
REMARK   14  A    between atoms: C_27  and  O_29
REMARK                            x       y       z     vdW  Elec       q    Type
REMARK                         _______ _______ _______ _____ _____    ______ ____
ROOT
ATOM      1  C   UNL     1       4.011   6.222  18.467  0.00  0.00    +0.000 C 
ENDROOT
BRANCH   1   2
ATOM      2  N   UNL     1       3.394   5.098  19.192  0.00  0.00    +0.000 N 
ATOM      3  C   UNL     1       2.360   4.361  18.640  0.00  0.00    +0.000 C 
ATOM      4  O   UNL     1       1.928   4.532  17.506  0.00  0.00    +0.000 OA
ATOM      5  H   UNL     1       3.642   4.952  20.157  0.00  0.00    +0.000 HD
BRANCH   3   6
ATOM      6  C   UNL     1       1.761   3.340  19.586  0.00  0.00    +0.000 C 
BRANCH   6   7
ATOM      7  C   UNL     1       2.854   2.566  20.320  0.00  0.00    +0.000 C 
BRANCH   7   8
ATOM      8  C   UNL     1       3.857   1.987  19.360  0.00  0.00    +0.000 C 
ATOM      9  O   UNL     1       3.598   1.193  18.469  0.00  0.00    +0.000 OA
BRANCH   8  10
ATOM     10  O   UNL     1       5.112   2.443  19.580  0.00  0.00    +0.000 OA
ATOM     11  H   UNL     1       5.736   1.754  19.879  0.00  0.00    +0.000 HD
ENDBRANCH   8  10
ENDBRANCH   7   8
ENDBRANCH   6   7
ENDBRANCH   3   6
ENDBRANCH   1   2
BRANCH   1  12
ATOM     12  C   UNL     1       4.988   5.678  17.413  0.00  0.00    +0.000 C 
BRANCH  12  14
ATOM     13  C   UNL     1       7.026   7.170  17.340  0.00  0.00    +0.000 C 
ATOM     14  C   UNL     1       6.524   5.752  17.681  0.00  0.00    +0.000 C 
ATOM     15  C   UNL     1       6.715   5.461  19.179  0.00  0.00    +0.000 C 
BRANCH  14  16
ATOM     16  C   UNL     1       7.424   4.761  16.917  0.00  0.00    +0.000 C 
ATOM     17  O   UNL     1       7.445   4.648  15.695  0.00  0.00    +0.000 OA
BRANCH  16  18
ATOM     18  O   UNL     1       8.254   4.033  17.692  0.00  0.00    +0.000 OA
ATOM     19  H   UNL     1       7.823   3.483  18.365  0.00  0.00    +0.000 HD
ENDBRANCH  16  18
ENDBRANCH  14  16
ENDBRANCH  12  14
ENDBRANCH   1  12
BRANCH   1  20
ATOM     20  C   UNL     1       2.961   7.237  17.986  0.00  0.00    +0.000 C 
BRANCH  20  21
ATOM     21  C   UNL     1       2.136   8.111  18.912  0.00  0.00    +0.000 A 
ATOM     22  C   UNL     1       1.493   9.192  18.298  0.00  0.00    +0.000 A 
ATOM     23  C   UNL     1       0.605  10.006  18.995  0.00  0.00    +0.000 A 
ATOM     24  C   UNL     1       0.276   9.774  20.338  0.00  0.00    +0.000 A 
ATOM     25  C   UNL     1       0.909   8.691  20.962  0.00  0.00    +0.000 A 
ATOM     26  C   UNL     1       1.836   7.880  20.260  0.00  0.00    +0.000 A 
BRANCH  24  27
ATOM     27  C   UNL     1      -0.643  10.725  21.005  0.00  0.00    +0.000 A 
ATOM     28  C   UNL     1      -1.294  11.726  20.250  0.00  0.00    +0.000 A 
ATOM     29  C   UNL     1      -1.902  12.825  20.858  0.00  0.00    +0.000 A 
ATOM     30  C   UNL     1      -1.928  12.916  22.243  0.00  0.00    +0.000 A 
ATOM     31  C   UNL     1      -1.389  11.885  23.013  0.00  0.00    +0.000 A 
ATOM     32  C   UNL     1      -0.759  10.794  22.400  0.00  0.00    +0.000 A 
ENDBRANCH  24  27
ENDBRANCH  20  21
ENDBRANCH   1  20
TORSDOF 12
ENDMDL
MODEL 8
REMARK VINA RESULT:      -7.9      1.770      4.382
REMARK  Name = 
REMARK  14 active torsions:
REMARK  status: ('A' for Active; 'I' for Inactive)
REMARK    1  A    between atoms: C_1  and  C_2
REMARK    2  A    between atoms: C_2  and  C_3
REMARK    3  A    between atoms: C_2  and  C_4
REMARK    4  A    between atoms: C_2  and  C_27
REMARK    5  A    between atoms: C_4  and  C_5
REMARK    6  A    between atoms: C_5  and  C_6
REMARK    7  A    between atoms: C_5  and  N_19
REMARK    8  A    between atoms: C_6  and  C_7
REMARK    9  A    between atoms: C_10  and  C_11
REMARK   10  A    between atoms: C_20  and  C_22
REMARK   11  A    between atoms: C_22  and  C_23
REMARK   12  A    between atoms: C_23  and  C_24
REMARK   13  A    between atoms: C_24  and  O_26
REMARK   14  A    between atoms: C_27  and  O_29
REMARK                            x       y       z     vdW  Elec       q    Type
REMARK                         _______ _______ _______ _____ _____    ______ ____
ROOT
ATOM      1  C   UNL     1       3.793   5.679  18.472  0.00  0.00    +0.000 C 
ENDROOT
BRANCH   1   2
ATOM      2  N   UNL     1       3.081   4.487  18.965  0.00  0.00    +0.000 N 
ATOM      3  C   UNL     1       1.931   4.024  18.349  0.00  0.00    +0.000 C 
ATOM      4  O   UNL     1       1.459   4.512  17.328  0.00  0.00    +0.000 OA
ATOM      5  H   UNL     1       3.365   4.086  19.844  0.00  0.00    +0.000 HD
BRANCH   3   6
ATOM      6  C   UNL     1       1.264   2.876  19.079  0.00  0.00    +0.000 C 
BRANCH   6   7
ATOM      7  C   UNL     1       2.158   2.343  20.196  0.00  0.00    +0.000 C 
BRANCH   7   8
ATOM      8  C   UNL     1       1.881   3.039  21.501  0.00  0.00    +0.000 C 
ATOM      9  O   UNL     1       2.281   4.153  21.800  0.00  0.00    +0.000 OA
BRANCH   8  10
ATOM     10  O   UNL     1       1.123   2.293  22.338  0.00  0.00    +0.000 OA
ATOM     11  H   UNL     1       1.598   1.535  22.731  0.00  0.00    +0.000 HD
ENDBRANCH   8  10
ENDBRANCH   7   8
ENDBRANCH   6   7
ENDBRANCH   3   6
ENDBRANCH   1   2
BRANCH   1  12
ATOM     12  C   UNL     1       4.856   5.254  17.447  0.00  0.00    +0.000 C 
BRANCH  12  14
ATOM     13  C   UNL     1       6.644   7.022  17.199  0.00  0.00    +0.000 C 
ATOM     14  C   UNL     1       6.356   5.596  17.713  0.00  0.00    +0.000 C 
ATOM     15  C   UNL     1       6.552   5.524  19.236  0.00  0.00    +0.000 C 
BRANCH  14  16
ATOM     16  C   UNL     1       7.415   4.670  17.082  0.00  0.00    +0.000 C 
ATOM     17  O   UNL     1       8.306   4.110  17.712  0.00  0.00    +0.000 OA
BRANCH  16  18
ATOM     18  O   UNL     1       7.272   4.463  15.757  0.00  0.00    +0.000 OA
ATOM     19  H   UNL     1       8.087   4.520  15.234  0.00  0.00    +0.000 HD
ENDBRANCH  16  18
ENDBRANCH  14  16
ENDBRANCH  12  14
ENDBRANCH   1  12
BRANCH   1  20
ATOM     20  C   UNL     1       2.819   6.790  18.046  0.00  0.00    +0.000 C 
BRANCH  20  21
ATOM     21  C   UNL     1       2.140   7.743  19.012  0.00  0.00    +0.000 A 
ATOM     22  C   UNL     1       1.610   8.902  18.435  0.00  0.00    +0.000 A 
ATOM     23  C   UNL     1       0.853   9.806  19.174  0.00  0.00    +0.000 A 
ATOM     24  C   UNL     1       0.547   9.595  20.526  0.00  0.00    +0.000 A 
ATOM     25  C   UNL     1       1.068   8.434  21.114  0.00  0.00    +0.000 A 
ATOM     26  C   UNL     1       1.865   7.529  20.369  0.00  0.00    +0.000 A 
BRANCH  24  27
ATOM     27  C   UNL     1      -0.225  10.639  21.238  0.00  0.00    +0.000 A 
ATOM     28  C   UNL     1      -0.600  10.445  22.586  0.00  0.00    +0.000 A 
ATOM     29  C   UNL     1      -1.580  11.229  23.195  0.00  0.00    +0.000 A 
ATOM     30  C   UNL     1      -2.164  12.270  22.487  0.00  0.00    +0.000 A 
ATOM     31  C   UNL     1      -1.731  12.553  21.192  0.00  0.00    +0.000 A 
ATOM     32  C   UNL     1      -0.763  11.750  20.574  0.00  0.00    +0.000 A 
ENDBRANCH  24  27
ENDBRANCH  20  21
ENDBRANCH   1  20
TORSDOF 12
ENDMDL
MODEL 9
REMARK VINA RESULT:      -7.9      1.648      4.471
REMARK  Name = 
REMARK  14 active torsions:
REMARK  status: ('A' for Active; 'I' for Inactive)
REMARK    1  A    between atoms: C_1  and  C_2
REMARK    2  A    between atoms: C_2  and  C_3
REMARK    3  A    between atoms: C_2  and  C_4
REMARK    4  A    between atoms: C_2  and  C_27
REMARK    5  A    between atoms: C_4  and  C_5
REMARK    6  A    between atoms: C_5  and  C_6
REMARK    7  A    between atoms: C_5  and  N_19
REMARK    8  A    between atoms: C_6  and  C_7
REMARK    9  A    between atoms: C_10  and  C_11
REMARK   10  A    between atoms: C_20  and  C_22
REMARK   11  A    between atoms: C_22  and  C_23
REMARK   12  A    between atoms: C_23  and  C_24
REMARK   13  A    between atoms: C_24  and  O_26
REMARK   14  A    between atoms: C_27  and  O_29
REMARK                            x       y       z     vdW  Elec       q    Type
REMARK                         _______ _______ _______ _____ _____    ______ ____
ROOT
ATOM      1  C   UNL     1       3.764   5.217  17.680  0.00  0.00    +0.000 C 
ENDROOT
BRANCH   1   2
ATOM      2  N   UNL     1       2.600   4.508  18.240  0.00  0.00    +0.000 N 
ATOM      3  C   UNL     1       2.696   3.202  18.691  0.00  0.00    +0.000 C 
ATOM      4  O   UNL     1       3.744   2.567  18.727  0.00  0.00    +0.000 OA
ATOM      5  H   UNL     1       1.692   4.938  18.167  0.00  0.00    +0.000 HD
BRANCH   3   6
ATOM      6  C   UNL     1       1.369   2.595  19.100  0.00  0.00    +0.000 C 
BRANCH   6   7
ATOM      7  C   UNL     1       0.772   3.335  20.294  0.00  0.00    +0.000 C 
BRANCH   7   8
ATOM      8  C   UNL     1       1.731   3.371  21.454  0.00  0.00    +0.000 C 
ATOM      9  O   UNL     1       1.949   2.439  22.213  0.00  0.00    +0.000 OA
BRANCH   8  10
ATOM     10  O   UNL     1       2.349   4.568  21.582  0.00  0.00    +0.000 OA
ATOM     11  H   UNL     1       2.151   5.027  22.421  0.00  0.00    +0.000 HD
ENDBRANCH   8  10
ENDBRANCH   7   8
ENDBRANCH   6   7
ENDBRANCH   3   6
ENDBRANCH   1   2
BRANCH   1  12
ATOM     12  C   UNL     1       4.394   4.369  16.565  0.00  0.00    +0.000 C 
BRANCH  12  14
ATOM     13  C   UNL     1       6.305   3.639  15.081  0.00  0.00    +0.000 C 
ATOM     14  C   UNL     1       5.786   4.774  15.988  0.00  0.00    +0.000 C 
ATOM     15  C   UNL     1       5.559   6.055  15.169  0.00  0.00    +0.000 C 
BRANCH  14  16
ATOM     16  C   UNL     1       6.907   5.087  17.000  0.00  0.00    +0.000 C 
ATOM     17  O   UNL     1       7.573   6.117  16.998  0.00  0.00    +0.000 OA
BRANCH  16  18
ATOM     18  O   UNL     1       7.089   4.150  17.953  0.00  0.00    +0.000 OA
ATOM     19  H   UNL     1       6.649   3.300  17.794  0.00  0.00    +0.000 HD
ENDBRANCH  16  18
ENDBRANCH  14  16
ENDBRANCH  12  14
ENDBRANCH   1  12
BRANCH   1  20
ATOM     20  C   UNL     1       3.432   6.679  17.341  0.00  0.00    +0.000 C 
BRANCH  20  21
ATOM     21  C   UNL     1       2.544   7.570  18.190  0.00  0.00    +0.000 A 
ATOM     22  C   UNL     1       2.459   7.216  19.540  0.00  0.00    +0.000 A 
ATOM     23  C   UNL     1       1.783   8.009  20.463  0.00  0.00    +0.000 A 
ATOM     24  C   UNL     1       1.179   9.223  20.104  0.00  0.00    +0.000 A 
ATOM     25  C   UNL     1       1.263   9.591  18.754  0.00  0.00    +0.000 A 
ATOM     26  C   UNL     1       1.925   8.767  17.809  0.00  0.00    +0.000 A 
BRANCH  24  27
ATOM     27  C   UNL     1       0.442   9.971  21.148  0.00  0.00    +0.000 A 
ATOM     28  C   UNL     1       0.274   9.410  22.434  0.00  0.00    +0.000 A 
ATOM     29  C   UNL     1      -0.664   9.912  23.336  0.00  0.00    +0.000 A 
ATOM     30  C   UNL     1      -1.414  11.030  22.996  0.00  0.00    +0.000 A 
ATOM     31  C   UNL     1      -1.188  11.668  21.778  0.00  0.00    +0.000 A 
ATOM     32  C   UNL     1      -0.262  11.149  20.863  0.00  0.00    +0.000 A 
ENDBRANCH  24  27
ENDBRANCH  20  21
ENDBRANCH   1  20
TORSDOF 12
ENDMDL
