MODEL 1
REMARK VINA RESULT:      -7.6      0.000      0.000
REMARK  Name = 
REMARK  8 active torsions:
REMARK  status: ('A' for Active; 'I' for Inactive)
REMARK    1  A    between atoms: C_1  and  C_2
REMARK    2  A    between atoms: C_2  and  C_3
REMARK    3  A    between atoms: C_4  and  C_5
REMARK    4  A    between atoms: N_7  and  C_8
REMARK    5  A    between atoms: C_21  and  C_22
REMARK    6  A    between atoms: N_23  and  C_24
REMARK    7  A    between atoms: C_24  and  C_25
REMARK    8  A    between atoms: C_25  and  N_26
REMARK                            x       y       z     vdW  Elec       q    Type
REMARK                         _______ _______ _______ _____ _____    ______ ____
ROOT
ATOM      1  C   UNL     1       0.343  10.580  20.396  0.00  0.00    +0.000 A 
ATOM      2  C   UNL     1       1.131  10.445  19.273  0.00  0.00    +0.000 A 
ATOM      3  C   UNL     1       1.845  11.687  18.865  0.00  0.00    +0.000 A 
ATOM      4  O   UNL     1       2.594  11.717  17.888  0.00  0.00    +0.000 OA
ATOM      5  C   UNL     1       1.740  12.886  19.749  0.00  0.00    +0.000 A 
ATOM      6  C   UNL     1       0.836  12.939  20.741  0.00  0.00    +0.000 A 
ATOM      7  C   UNL     1       0.828  14.150  21.655  0.00  0.00    +0.000 C 
ATOM      8  N   UNL     1      -0.022  11.848  20.990  0.00  0.00    +0.000 N 
ENDROOT
BRANCH   2   9
ATOM      9  C   UNL     1       1.329   9.097  18.551  0.00  0.00    +0.000 C 
ATOM     10  O   UNL     1       0.747   8.900  17.480  0.00  0.00    +0.000 OA
ATOM     11  N   UNL     1       2.231   8.114  18.993  0.00  0.00    +0.000 N 
ATOM     12  H   UNL     1       2.826   8.324  19.789  0.00  0.00    +0.000 HD
BRANCH  11  13
ATOM     13  C   UNL     1       2.639   7.033  18.014  0.00  0.00    +0.000 C 
ATOM     14  C   UNL     1       3.935   7.510  17.311  0.00  0.00    +0.000 C 
ATOM     15  C   UNL     1       4.987   6.532  16.828  0.00  0.00    +0.000 C 
ATOM     16  C   UNL     1       4.787   5.068  17.100  0.00  0.00    +0.000 C 
ATOM     17  C   UNL     1       3.696   4.682  18.055  0.00  0.00    +0.000 A 
ATOM     18  C   UNL     1       3.656   3.302  18.350  0.00  0.00    +0.000 A 
ATOM     19  C   UNL     1       2.561   2.733  18.983  0.00  0.00    +0.000 A 
ATOM     20  C   UNL     1       1.509   3.573  19.341  0.00  0.00    +0.000 A 
ATOM     21  C   UNL     1       1.571   4.959  19.103  0.00  0.00    +0.000 A 
ATOM     22  C   UNL     1       2.678   5.570  18.475  0.00  0.00    +0.000 A 
ENDBRANCH  11  13
ENDBRANCH   2   9
BRANCH   1  24
ATOM     23  C   UNL     1       1.144   9.020  22.338  0.00  0.00    +0.000 C 
ATOM     24  C   UNL     1       0.105   9.348  21.278  0.00  0.00    +0.000 C 
ENDBRANCH   1  24
BRANCH   8  25
ATOM     25  C   UNL     1      -1.144  11.959  22.015  0.00  0.00    +0.000 C 
BRANCH  25  26
ATOM     26  C   UNL     1      -2.512  12.493  21.471  0.00  0.00    +0.000 C 
BRANCH  26  27
ATOM     27  N   UNL     1      -3.728  12.380  22.323  0.00  0.00    +0.000 NA
ATOM     28  C   UNL     1      -3.470  12.646  23.742  0.00  0.00    +0.000 C 
ATOM     29  C   UNL     1      -4.696  12.350  24.612  0.00  0.00    +0.000 C 
ATOM     30  C   UNL     1      -5.931  13.099  24.124  0.00  0.00    +0.000 C 
ATOM     31  C   UNL     1      -6.153  12.826  22.640  0.00  0.00    +0.000 C 
ATOM     32  C   UNL     1      -4.888  13.129  21.822  0.00  0.00    +0.000 C 
ENDBRANCH  26  27
ENDBRANCH  25  26
ENDBRANCH   8  25
TORSDOF 6
ENDMDL
MODEL 2
REMARK VINA RESULT:      -7.5      2.061      2.848
REMARK  Name = 
REMARK  8 active torsions:
REMARK  status: ('A' for Active; 'I' for Inactive)
REMARK    1  A    between atoms: C_1  and  C_2
REMARK    2  A    between atoms: C_2  and  C_3
REMARK    3  A    between atoms: C_4  and  C_5
REMARK    4  A    between atoms: N_7  and  C_8
REMARK    5  A    between atoms: C_21  and  C_22
REMARK    6  A    between atoms: N_23  and  C_24
REMARK    7  A    between atoms: C_24  and  C_25
REMARK    8  A    between atoms: C_25  and  N_26
REMARK                            x       y       z     vdW  Elec       q    Type
REMARK                         _______ _______ _______ _____ _____    ______ ____
ROOT
ATOM      1  C   UNL     1       0.312  10.606  19.914  0.00  0.00    +0.000 A 
ATOM      2  C   UNL     1       1.200  10.175  18.952  0.00  0.00    +0.000 A 
ATOM      3  C   UNL     1       2.027  11.254  18.345  0.00  0.00    +0.000 A 
ATOM      4  O   UNL     1       2.872  11.020  17.480  0.00  0.00    +0.000 OA
ATOM      5  C   UNL     1       1.908  12.634  18.902  0.00  0.00    +0.000 A 
ATOM      6  C   UNL     1       0.912  12.958  19.744  0.00  0.00    +0.000 A 
ATOM      7  C   UNL     1       0.885  14.354  20.338  0.00  0.00    +0.000 C 
ATOM      8  N   UNL     1      -0.033  11.992  20.145  0.00  0.00    +0.000 N 
ENDROOT
BRANCH   2   9
ATOM      9  C   UNL     1       1.387   8.685  18.598  0.00  0.00    +0.000 C 
ATOM     10  O   UNL     1       0.903   8.255  17.547  0.00  0.00    +0.000 OA
ATOM     11  N   UNL     1       2.179   7.809  19.357  0.00  0.00    +0.000 N 
ATOM     12  H   UNL     1       2.704   8.185  20.141  0.00  0.00    +0.000 HD
BRANCH  11  13
ATOM     13  C   UNL     1       2.617   6.509  18.714  0.00  0.00    +0.000 C 
ATOM     14  C   UNL     1       3.936   6.789  17.953  0.00  0.00    +0.000 C 
ATOM     15  C   UNL     1       5.001   5.724  17.783  0.00  0.00    +0.000 C 
ATOM     16  C   UNL     1       4.787   4.384  18.427  0.00  0.00    +0.000 C 
ATOM     17  C   UNL     1       3.664   4.259  19.413  0.00  0.00    +0.000 A 
ATOM     18  C   UNL     1       3.610   3.006  20.062  0.00  0.00    +0.000 A 
ATOM     19  C   UNL     1       2.492   2.620  20.787  0.00  0.00    +0.000 A 
ATOM     20  C   UNL     1       1.432   3.519  20.874  0.00  0.00    +0.000 A 
ATOM     21  C   UNL     1       1.506   4.792  20.279  0.00  0.00    +0.000 A 
ATOM     22  C   UNL     1       2.636   5.220  19.548  0.00  0.00    +0.000 A 
ENDBRANCH  11  13
ENDBRANCH   2   9
BRANCH   1  24
ATOM     23  C   UNL     1       0.820   9.525  22.242  0.00  0.00    +0.000 C 
ATOM     24  C   UNL     1      -0.091   9.634  21.030  0.00  0.00    +0.000 C 
ENDBRANCH   1  24
BRANCH   8  25
ATOM     25  C   UNL     1      -1.245  12.388  20.979  0.00  0.00    +0.000 C 
BRANCH  25  26
ATOM     26  C   UNL     1      -2.527  12.784  20.172  0.00  0.00    +0.000 C 
BRANCH  26  27
ATOM     27  N   UNL     1      -3.025  11.874  19.105  0.00  0.00    +0.000 NA
ATOM     28  C   UNL     1      -4.461  12.016  18.843  0.00  0.00    +0.000 C 
ATOM     29  C   UNL     1      -4.974  10.947  17.872  0.00  0.00    +0.000 C 
ATOM     30  C   UNL     1      -4.173  10.932  16.574  0.00  0.00    +0.000 C 
ATOM     31  C   UNL     1      -2.685  10.815  16.882  0.00  0.00    +0.000 C 
ATOM     32  C   UNL     1      -2.232  11.902  17.868  0.00  0.00    +0.000 C 
ENDBRANCH  26  27
ENDBRANCH  25  26
ENDBRANCH   8  25
TORSDOF 6
ENDMDL
MODEL 3
REMARK VINA RESULT:      -7.4      1.106      1.196
REMARK  Name = 
REMARK  8 active torsions:
REMARK  status: ('A' for Active; 'I' for Inactive)
REMARK    1  A    between atoms: C_1  and  C_2
REMARK    2  A    between atoms: C_2  and  C_3
REMARK    3  A    between atoms: C_4  and  C_5
REMARK    4  A    between atoms: N_7  and  C_8
REMARK    5  A    between atoms: C_21  and  C_22
REMARK    6  A    between atoms: N_23  and  C_24
REMARK    7  A    between atoms: C_24  and  C_25
REMARK    8  A    between atoms: C_25  and  N_26
REMARK                            x       y       z     vdW  Elec       q    Type
REMARK                         _______ _______ _______ _____ _____    ______ ____
ROOT
ATOM      1  C   UNL     1      -0.340  11.077  21.068  0.00  0.00    +0.000 A 
ATOM      2  C   UNL     1       0.559  10.868  20.044  0.00  0.00    +0.000 A 
ATOM      3  C   UNL     1       1.377  12.060  19.685  0.00  0.00    +0.000 A 
ATOM      4  O   UNL     1       2.230  12.022  18.797  0.00  0.00    +0.000 OA
ATOM      5  C   UNL     1       1.238  13.290  20.520  0.00  0.00    +0.000 A 
ATOM      6  C   UNL     1       0.233  13.419  21.402  0.00  0.00    +0.000 A 
ATOM      7  C   UNL     1       0.187  14.658  22.277  0.00  0.00    +0.000 C 
ATOM      8  N   UNL     1      -0.702  12.380  21.583  0.00  0.00    +0.000 N 
ENDROOT
BRANCH   2   9
ATOM      9  C   UNL     1       0.765   9.489  19.385  0.00  0.00    +0.000 C 
ATOM     10  O   UNL     1       0.189   9.242  18.322  0.00  0.00    +0.000 OA
ATOM     11  N   UNL     1       1.668   8.531  19.875  0.00  0.00    +0.000 N 
ATOM     12  H   UNL     1       2.259   8.779  20.663  0.00  0.00    +0.000 HD
BRANCH  11  13
ATOM     13  C   UNL     1       2.085   7.408  18.947  0.00  0.00    +0.000 C 
ATOM     14  C   UNL     1       3.100   7.995  17.935  0.00  0.00    +0.000 C 
ATOM     15  C   UNL     1       4.211   7.154  17.340  0.00  0.00    +0.000 C 
ATOM     16  C   UNL     1       4.361   5.732  17.799  0.00  0.00    +0.000 C 
ATOM     17  C   UNL     1       3.574   5.303  19.002  0.00  0.00    +0.000 A 
ATOM     18  C   UNL     1       3.865   3.993  19.439  0.00  0.00    +0.000 A 
ATOM     19  C   UNL     1       3.047   3.340  20.350  0.00  0.00    +0.000 A 
ATOM     20  C   UNL     1       1.939   4.030  20.838  0.00  0.00    +0.000 A 
ATOM     21  C   UNL     1       1.679   5.358  20.451  0.00  0.00    +0.000 A 
ATOM     22  C   UNL     1       2.501   6.053  19.538  0.00  0.00    +0.000 A 
ENDBRANCH  11  13
ENDBRANCH   2   9
BRANCH   1  24
ATOM     23  C   UNL     1       0.169   9.533  23.118  0.00  0.00    +0.000 C 
ATOM     24  C   UNL     1      -0.738   9.888  21.950  0.00  0.00    +0.000 C 
ENDBRANCH   1  24
BRANCH   8  25
ATOM     25  C   UNL     1      -1.923  12.579  22.472  0.00  0.00    +0.000 C 
BRANCH  25  26
ATOM     26  C   UNL     1      -3.237  13.011  21.738  0.00  0.00    +0.000 C 
BRANCH  26  27
ATOM     27  N   UNL     1      -4.553  12.594  22.296  0.00  0.00    +0.000 NA
ATOM     28  C   UNL     1      -4.834  13.170  23.615  0.00  0.00    +0.000 C 
ATOM     29  C   UNL     1      -6.107  12.585  24.236  0.00  0.00    +0.000 C 
ATOM     30  C   UNL     1      -7.306  12.723  23.305  0.00  0.00    +0.000 C 
ATOM     31  C   UNL     1      -6.971  12.144  21.935  0.00  0.00    +0.000 C 
ATOM     32  C   UNL     1      -5.681  12.758  21.370  0.00  0.00    +0.000 C 
ENDBRANCH  26  27
ENDBRANCH  25  26
ENDBRANCH   8  25
TORSDOF 6
ENDMDL
MODEL 4
REMARK VINA RESULT:      -7.2      2.205      4.671
REMARK  Name = 
REMARK  8 active torsions:
REMARK  status: ('A' for Active; 'I' for Inactive)
REMARK    1  A    between atoms: C_1  and  C_2
REMARK    2  A    between atoms: C_2  and  C_3
REMARK    3  A    between atoms: C_4  and  C_5
REMARK    4  A    between atoms: N_7  and  C_8
REMARK    5  A    between atoms: C_21  and  C_22
REMARK    6  A    between atoms: N_23  and  C_24
REMARK    7  A    between atoms: C_24  and  C_25
REMARK    8  A    between atoms: C_25  and  N_26
REMARK                            x       y       z     vdW  Elec       q    Type
REMARK                         _______ _______ _______ _____ _____    ______ ____
ROOT
ATOM      1  C   UNL     1       0.138  10.794  19.370  0.00  0.00    +0.000 A 
ATOM      2  C   UNL     1       0.851   9.655  19.676  0.00  0.00    +0.000 A 
ATOM      3  C   UNL     1       1.020   9.403  21.134  0.00  0.00    +0.000 A 
ATOM      4  O   UNL     1       1.625   8.418  21.560  0.00  0.00    +0.000 OA
ATOM      5  C   UNL     1       0.323  10.309  22.094  0.00  0.00    +0.000 A 
ATOM      6  C   UNL     1      -0.229  11.463  21.682  0.00  0.00    +0.000 A 
ATOM      7  C   UNL     1      -0.991  12.306  22.687  0.00  0.00    +0.000 C 
ATOM      8  N   UNL     1      -0.187  11.835  20.323  0.00  0.00    +0.000 N 
ENDROOT
BRANCH   2   9
ATOM      9  C   UNL     1       1.353   8.672  18.598  0.00  0.00    +0.000 C 
ATOM     10  O   UNL     1       1.521   9.082  17.446  0.00  0.00    +0.000 OA
ATOM     11  N   UNL     1       1.741   7.352  18.883  0.00  0.00    +0.000 N 
ATOM     12  H   UNL     1       1.750   7.048  19.852  0.00  0.00    +0.000 HD
BRANCH  11  13
ATOM     13  C   UNL     1       2.584   6.623  17.858  0.00  0.00    +0.000 C 
ATOM     14  C   UNL     1       3.912   7.404  17.709  0.00  0.00    +0.000 C 
ATOM     15  C   UNL     1       5.213   6.709  17.362  0.00  0.00    +0.000 C 
ATOM     16  C   UNL     1       5.214   5.213  17.224  0.00  0.00    +0.000 C 
ATOM     17  C   UNL     1       3.996   4.472  17.689  0.00  0.00    +0.000 A 
ATOM     18  C   UNL     1       4.127   3.067  17.638  0.00  0.00    +0.000 A 
ATOM     19  C   UNL     1       3.023   2.236  17.763  0.00  0.00    +0.000 A 
ATOM     20  C   UNL     1       1.780   2.834  17.963  0.00  0.00    +0.000 A 
ATOM     21  C   UNL     1       1.654   4.231  18.074  0.00  0.00    +0.000 A 
ATOM     22  C   UNL     1       2.760   5.102  17.967  0.00  0.00    +0.000 A 
ENDBRANCH  11  13
ENDBRANCH   2   9
BRANCH   1  24
ATOM     23  C   UNL     1      -2.028  10.188  18.034  0.00  0.00    +0.000 C 
ATOM     24  C   UNL     1      -0.653  10.836  18.057  0.00  0.00    +0.000 C 
ENDBRANCH   1  24
BRANCH   8  25
ATOM     25  C   UNL     1      -0.679  13.205  19.875  0.00  0.00    +0.000 C 
BRANCH  25  26
ATOM     26  C   UNL     1       0.301  14.398  20.133  0.00  0.00    +0.000 C 
BRANCH  26  27
ATOM     27  N   UNL     1       1.375  14.685  19.141  0.00  0.00    +0.000 NA
ATOM     28  C   UNL     1       1.672  16.114  19.004  0.00  0.00    +0.000 C 
ATOM     29  C   UNL     1       2.649  16.388  17.855  0.00  0.00    +0.000 C 
ATOM     30  C   UNL     1       3.926  15.566  17.991  0.00  0.00    +0.000 C 
ATOM     31  C   UNL     1       3.581  14.091  18.163  0.00  0.00    +0.000 C 
ATOM     32  C   UNL     1       2.591  13.881  19.318  0.00  0.00    +0.000 C 
ENDBRANCH  26  27
ENDBRANCH  25  26
ENDBRANCH   8  25
TORSDOF 6
ENDMDL
MODEL 5
REMARK VINA RESULT:      -7.1      2.390      4.336
REMARK  Name = 
REMARK  8 active torsions:
REMARK  status: ('A' for Active; 'I' for Inactive)
REMARK    1  A    between atoms: C_1  and  C_2
REMARK    2  A    between atoms: C_2  and  C_3
REMARK    3  A    between atoms: C_4  and  C_5
REMARK    4  A    between atoms: N_7  and  C_8
REMARK    5  A    between atoms: C_21  and  C_22
REMARK    6  A    between atoms: N_23  and  C_24
REMARK    7  A    between atoms: C_24  and  C_25
REMARK    8  A    between atoms: C_25  and  N_26
REMARK                            x       y       z     vdW  Elec       q    Type
REMARK                         _______ _______ _______ _____ _____    ______ ____
ROOT
ATOM      1  C   UNL     1       0.342  10.731  19.399  0.00  0.00    +0.000 A 
ATOM      2  C   UNL     1       0.927   9.543  19.782  0.00  0.00    +0.000 A 
ATOM      3  C   UNL     1       0.982   9.326  21.255  0.00  0.00    +0.000 A 
ATOM      4  O   UNL     1       1.465   8.305  21.746  0.00  0.00    +0.000 OA
ATOM      5  C   UNL     1       0.313  10.324  22.142  0.00  0.00    +0.000 A 
ATOM      6  C   UNL     1      -0.103  11.508  21.662  0.00  0.00    +0.000 A 
ATOM      7  C   UNL     1      -0.844  12.450  22.593  0.00  0.00    +0.000 C 
ATOM      8  N   UNL     1       0.057  11.828  20.299  0.00  0.00    +0.000 N 
ENDROOT
BRANCH   2   9
ATOM      9  C   UNL     1       1.402   8.483  18.767  0.00  0.00    +0.000 C 
ATOM     10  O   UNL     1       1.275   8.711  17.560  0.00  0.00    +0.000 OA
ATOM     11  N   UNL     1       2.079   7.310  19.141  0.00  0.00    +0.000 N 
ATOM     12  H   UNL     1       2.323   7.182  20.118  0.00  0.00    +0.000 HD
BRANCH  11  13
ATOM     13  C   UNL     1       2.844   6.560  18.070  0.00  0.00    +0.000 C 
ATOM     14  C   UNL     1       4.241   7.218  17.951  0.00  0.00    +0.000 C 
ATOM     15  C   UNL     1       5.467   6.421  17.556  0.00  0.00    +0.000 C 
ATOM     16  C   UNL     1       5.324   4.941  17.338  0.00  0.00    +0.000 C 
ATOM     17  C   UNL     1       4.042   4.296  17.774  0.00  0.00    +0.000 A 
ATOM     18  C   UNL     1       4.038   2.890  17.648  0.00  0.00    +0.000 A 
ATOM     19  C   UNL     1       2.859   2.163  17.739  0.00  0.00    +0.000 A 
ATOM     20  C   UNL     1       1.681   2.865  17.982  0.00  0.00    +0.000 A 
ATOM     21  C   UNL     1       1.690   4.260  18.169  0.00  0.00    +0.000 A 
ATOM     22  C   UNL     1       2.874   5.025  18.097  0.00  0.00    +0.000 A 
ENDBRANCH  11  13
ENDBRANCH   2   9
BRANCH   1  24
ATOM     23  C   UNL     1      -1.803  10.335  17.956  0.00  0.00    +0.000 C 
ATOM     24  C   UNL     1      -0.358  10.800  18.037  0.00  0.00    +0.000 C 
ENDBRANCH   1  24
BRANCH   8  25
ATOM     25  C   UNL     1      -0.278  13.222  19.782  0.00  0.00    +0.000 C 
BRANCH  25  26
ATOM     26  C   UNL     1       0.945  14.103  19.359  0.00  0.00    +0.000 C 
BRANCH  26  27
ATOM     27  N   UNL     1       0.703  15.403  18.675  0.00  0.00    +0.000 NA
ATOM     28  C   UNL     1      -0.523  16.073  19.118  0.00  0.00    +0.000 C 
ATOM     29  C   UNL     1      -0.835  17.313  18.273  0.00  0.00    +0.000 C 
ATOM     30  C   UNL     1       0.342  18.282  18.233  0.00  0.00    +0.000 C 
ATOM     31  C   UNL     1       1.606  17.547  17.799  0.00  0.00    +0.000 C 
ATOM     32  C   UNL     1       1.859  16.309  18.673  0.00  0.00    +0.000 C 
ENDBRANCH  26  27
ENDBRANCH  25  26
ENDBRANCH   8  25
TORSDOF 6
ENDMDL
MODEL 6
REMARK VINA RESULT:      -7.1      1.153      1.630
REMARK  Name = 
REMARK  8 active torsions:
REMARK  status: ('A' for Active; 'I' for Inactive)
REMARK    1  A    between atoms: C_1  and  C_2
REMARK    2  A    between atoms: C_2  and  C_3
REMARK    3  A    between atoms: C_4  and  C_5
REMARK    4  A    between atoms: N_7  and  C_8
REMARK    5  A    between atoms: C_21  and  C_22
REMARK    6  A    between atoms: N_23  and  C_24
REMARK    7  A    between atoms: C_24  and  C_25
REMARK    8  A    between atoms: C_25  and  N_26
REMARK                            x       y       z     vdW  Elec       q    Type
REMARK                         _______ _______ _______ _____ _____    ______ ____
ROOT
ATOM      1  C   UNL     1       0.037  11.106  20.152  0.00  0.00    +0.000 A 
ATOM      2  C   UNL     1       0.969  10.778  19.190  0.00  0.00    +0.000 A 
ATOM      3  C   UNL     1       1.838  11.908  18.759  0.00  0.00    +0.000 A 
ATOM      4  O   UNL     1       2.723  11.765  17.915  0.00  0.00    +0.000 OA
ATOM      5  C   UNL     1       1.705  13.214  19.471  0.00  0.00    +0.000 A 
ATOM      6  C   UNL     1       0.670  13.452  20.295  0.00  0.00    +0.000 A 
ATOM      7  C   UNL     1       0.629  14.767  21.050  0.00  0.00    +0.000 C 
ATOM      8  N   UNL     1      -0.304  12.461  20.530  0.00  0.00    +0.000 N 
ENDROOT
BRANCH   2   9
ATOM      9  C   UNL     1       1.157   9.338  18.669  0.00  0.00    +0.000 C 
ATOM     10  O   UNL     1       0.717   9.044  17.554  0.00  0.00    +0.000 OA
ATOM     11  N   UNL     1       1.906   8.366  19.352  0.00  0.00    +0.000 N 
ATOM     12  H   UNL     1       2.398   8.639  20.198  0.00  0.00    +0.000 HD
BRANCH  11  13
ATOM     13  C   UNL     1       2.360   7.146  18.579  0.00  0.00    +0.000 C 
ATOM     14  C   UNL     1       3.508   7.592  17.640  0.00  0.00    +0.000 C 
ATOM     15  C   UNL     1       4.630   6.652  17.248  0.00  0.00    +0.000 C 
ATOM     16  C   UNL     1       4.653   5.273  17.843  0.00  0.00    +0.000 C 
ATOM     17  C   UNL     1       3.719   4.992  18.982  0.00  0.00    +0.000 A 
ATOM     18  C   UNL     1       3.891   3.716  19.562  0.00  0.00    +0.000 A 
ATOM     19  C   UNL     1       2.946   3.186  20.428  0.00  0.00    +0.000 A 
ATOM     20  C   UNL     1       1.830   3.966  20.727  0.00  0.00    +0.000 A 
ATOM     21  C   UNL     1       1.685   5.262  20.199  0.00  0.00    +0.000 A 
ATOM     22  C   UNL     1       2.636   5.835  19.327  0.00  0.00    +0.000 A 
ENDBRANCH  11  13
ENDBRANCH   2   9
BRANCH   1  24
ATOM     23  C   UNL     1       0.398   9.767  22.370  0.00  0.00    +0.000 C 
ATOM     24  C   UNL     1      -0.433  10.015  21.121  0.00  0.00    +0.000 C 
ENDBRANCH   1  24
BRANCH   8  25
ATOM     25  C   UNL     1      -1.552  12.775  21.345  0.00  0.00    +0.000 C 
BRANCH  25  26
ATOM     26  C   UNL     1      -2.588  13.730  20.662  0.00  0.00    +0.000 C 
BRANCH  26  27
ATOM     27  N   UNL     1      -4.030  13.356  20.657  0.00  0.00    +0.000 NA
ATOM     28  C   UNL     1      -4.378  12.399  19.602  0.00  0.00    +0.000 C 
ATOM     29  C   UNL     1      -5.891  12.173  19.510  0.00  0.00    +0.000 C 
ATOM     30  C   UNL     1      -6.483  11.757  20.853  0.00  0.00    +0.000 C 
ATOM     31  C   UNL     1      -6.076  12.754  21.932  0.00  0.00    +0.000 C 
ATOM     32  C   UNL     1      -4.553  12.948  21.967  0.00  0.00    +0.000 C 
ENDBRANCH  26  27
ENDBRANCH  25  26
ENDBRANCH   8  25
TORSDOF 6
ENDMDL
MODEL 7
REMARK VINA RESULT:      -7.1      2.202      3.616
REMARK  Name = 
REMARK  8 active torsions:
REMARK  status: ('A' for Active; 'I' for Inactive)
REMARK    1  A    between atoms: C_1  and  C_2
REMARK    2  A    between atoms: C_2  and  C_3
REMARK    3  A    between atoms: C_4  and  C_5
REMARK    4  A    between atoms: N_7  and  C_8
REMARK    5  A    between atoms: C_21  and  C_22
REMARK    6  A    between atoms: N_23  and  C_24
REMARK    7  A    between atoms: C_24  and  C_25
REMARK    8  A    between atoms: C_25  and  N_26
REMARK                            x       y       z     vdW  Elec       q    Type
REMARK                         _______ _______ _______ _____ _____    ______ ____
ROOT
ATOM      1  C   UNL     1       0.495   9.915  19.926  0.00  0.00    +0.000 A 
ATOM      2  C   UNL     1       1.412   9.461  19.002  0.00  0.00    +0.000 A 
ATOM      3  C   UNL     1       2.113  10.536  18.245  0.00  0.00    +0.000 A 
ATOM      4  O   UNL     1       2.966  10.284  17.394  0.00  0.00    +0.000 OA
ATOM      5  C   UNL     1       1.856  11.955  18.631  0.00  0.00    +0.000 A 
ATOM      6  C   UNL     1       0.842  12.278  19.452  0.00  0.00    +0.000 A 
ATOM      7  C   UNL     1       0.677  13.727  19.871  0.00  0.00    +0.000 C 
ATOM      8  N   UNL     1       0.009  11.277  19.994  0.00  0.00    +0.000 N 
ENDROOT
BRANCH   2   9
ATOM      9  C   UNL     1       1.750   7.966  18.829  0.00  0.00    +0.000 C 
ATOM     10  O   UNL     1       1.460   7.407  17.767  0.00  0.00    +0.000 OA
ATOM     11  N   UNL     1       2.475   7.228  19.778  0.00  0.00    +0.000 N 
ATOM     12  H   UNL     1       2.849   7.714  20.588  0.00  0.00    +0.000 HD
BRANCH  11  13
ATOM     13  C   UNL     1       3.091   5.916  19.338  0.00  0.00    +0.000 C 
ATOM     14  C   UNL     1       1.988   4.833  19.425  0.00  0.00    +0.000 C 
ATOM     15  C   UNL     1       1.963   3.642  18.488  0.00  0.00    +0.000 C 
ATOM     16  C   UNL     1       3.005   3.553  17.410  0.00  0.00    +0.000 C 
ATOM     17  C   UNL     1       3.847   4.768  17.156  0.00  0.00    +0.000 A 
ATOM     18  C   UNL     1       4.714   4.642  16.048  0.00  0.00    +0.000 A 
ATOM     19  C   UNL     1       5.747   5.544  15.838  0.00  0.00    +0.000 A 
ATOM     20  C   UNL     1       5.888   6.593  16.743  0.00  0.00    +0.000 A 
ATOM     21  C   UNL     1       4.989   6.756  17.814  0.00  0.00    +0.000 A 
ATOM     22  C   UNL     1       3.920   5.865  18.046  0.00  0.00    +0.000 A 
ENDBRANCH  11  13
ENDBRANCH   2   9
BRANCH   1  24
ATOM     23  C   UNL     1       1.082   9.266  22.392  0.00  0.00    +0.000 C 
ATOM     24  C   UNL     1       0.212   9.054  21.163  0.00  0.00    +0.000 C 
ENDBRANCH   1  24
BRANCH   8  25
ATOM     25  C   UNL     1      -1.226  11.648  20.804  0.00  0.00    +0.000 C 
BRANCH  25  26
ATOM     26  C   UNL     1      -2.403  12.291  19.996  0.00  0.00    +0.000 C 
BRANCH  26  27
ATOM     27  N   UNL     1      -2.964  11.563  18.824  0.00  0.00    +0.000 NA
ATOM     28  C   UNL     1      -4.383  11.846  18.590  0.00  0.00    +0.000 C 
ATOM     29  C   UNL     1      -4.972  10.951  17.493  0.00  0.00    +0.000 C 
ATOM     30  C   UNL     1      -4.168  11.039  16.200  0.00  0.00    +0.000 C 
ATOM     31  C   UNL     1      -2.695  10.771  16.483  0.00  0.00    +0.000 C 
ATOM     32  C   UNL     1      -2.165  11.687  17.597  0.00  0.00    +0.000 C 
ENDBRANCH  26  27
ENDBRANCH  25  26
ENDBRANCH   8  25
TORSDOF 6
ENDMDL
MODEL 8
REMARK VINA RESULT:      -7.1      2.192      4.420
REMARK  Name = 
REMARK  8 active torsions:
REMARK  status: ('A' for Active; 'I' for Inactive)
REMARK    1  A    between atoms: C_1  and  C_2
REMARK    2  A    between atoms: C_2  and  C_3
REMARK    3  A    between atoms: C_4  and  C_5
REMARK    4  A    between atoms: N_7  and  C_8
REMARK    5  A    between atoms: C_21  and  C_22
REMARK    6  A    between atoms: N_23  and  C_24
REMARK    7  A    between atoms: C_24  and  C_25
REMARK    8  A    between atoms: C_25  and  N_26
REMARK                            x       y       z     vdW  Elec       q    Type
REMARK                         _______ _______ _______ _____ _____    ______ ____
ROOT
ATOM      1  C   UNL     1      -0.053  10.702  19.321  0.00  0.00    +0.000 A 
ATOM      2  C   UNL     1       0.733   9.622  19.663  0.00  0.00    +0.000 A 
ATOM      3  C   UNL     1       0.977   9.472  21.125  0.00  0.00    +0.000 A 
ATOM      4  O   UNL     1       1.652   8.549  21.581  0.00  0.00    +0.000 OA
ATOM      5  C   UNL     1       0.271  10.399  22.058  0.00  0.00    +0.000 A 
ATOM      6  C   UNL     1      -0.360  11.494  21.602  0.00  0.00    +0.000 A 
ATOM      7  C   UNL     1      -1.124  12.357  22.588  0.00  0.00    +0.000 C 
ATOM      8  N   UNL     1      -0.395  11.781  20.223  0.00  0.00    +0.000 N 
ENDROOT
BRANCH   2   9
ATOM      9  C   UNL     1       1.244   8.602  18.625  0.00  0.00    +0.000 C 
ATOM     10  O   UNL     1       1.233   8.908  17.429  0.00  0.00    +0.000 OA
ATOM     11  N   UNL     1       1.830   7.375  18.978  0.00  0.00    +0.000 N 
ATOM     12  H   UNL     1       1.981   7.175  19.962  0.00  0.00    +0.000 HD
BRANCH  11  13
ATOM     13  C   UNL     1       2.648   6.651  17.929  0.00  0.00    +0.000 C 
ATOM     14  C   UNL     1       3.991   7.409  17.783  0.00  0.00    +0.000 C 
ATOM     15  C   UNL     1       5.274   6.695  17.409  0.00  0.00    +0.000 C 
ATOM     16  C   UNL     1       5.244   5.203  17.240  0.00  0.00    +0.000 C 
ATOM     17  C   UNL     1       4.016   4.476  17.701  0.00  0.00    +0.000 A 
ATOM     18  C   UNL     1       4.119   3.071  17.621  0.00  0.00    +0.000 A 
ATOM     19  C   UNL     1       2.999   2.259  17.739  0.00  0.00    +0.000 A 
ATOM     20  C   UNL     1       1.771   2.877  17.965  0.00  0.00    +0.000 A 
ATOM     21  C   UNL     1       1.673   4.274  18.106  0.00  0.00    +0.000 A 
ATOM     22  C   UNL     1       2.795   5.124  18.005  0.00  0.00    +0.000 A 
ENDBRANCH  11  13
ENDBRANCH   2   9
BRANCH   1  24
ATOM     23  C   UNL     1      -2.309  10.063  18.160  0.00  0.00    +0.000 C 
ATOM     24  C   UNL     1      -0.899  10.619  18.044  0.00  0.00    +0.000 C 
ENDBRANCH   1  24
BRANCH   8  25
ATOM     25  C   UNL     1      -0.980  13.093  19.716  0.00  0.00    +0.000 C 
BRANCH  25  26
ATOM     26  C   UNL     1       0.041  14.090  19.071  0.00  0.00    +0.000 C 
BRANCH  26  27
ATOM     27  N   UNL     1       1.457  14.080  19.531  0.00  0.00    +0.000 NA
ATOM     28  C   UNL     1       2.391  14.641  18.549  0.00  0.00    +0.000 C 
ATOM     29  C   UNL     1       3.851  14.453  18.976  0.00  0.00    +0.000 C 
ATOM     30  C   UNL     1       4.110  15.013  20.370  0.00  0.00    +0.000 C 
ATOM     31  C   UNL     1       3.104  14.434  21.359  0.00  0.00    +0.000 C 
ATOM     32  C   UNL     1       1.662  14.641  20.873  0.00  0.00    +0.000 C 
ENDBRANCH  26  27
ENDBRANCH  25  26
ENDBRANCH   8  25
TORSDOF 6
ENDMDL
MODEL 9
REMARK VINA RESULT:      -7.0      1.088      1.163
REMARK  Name = 
REMARK  8 active torsions:
REMARK  status: ('A' for Active; 'I' for Inactive)
REMARK    1  A    between atoms: C_1  and  C_2
REMARK    2  A    between atoms: C_2  and  C_3
REMARK    3  A    between atoms: C_4  and  C_5
REMARK    4  A    between atoms: N_7  and  C_8
REMARK    5  A    between atoms: C_21  and  C_22
REMARK    6  A    between atoms: N_23  and  C_24
REMARK    7  A    between atoms: C_24  and  C_25
REMARK    8  A    between atoms: C_25  and  N_26
REMARK                            x       y       z     vdW  Elec       q    Type
REMARK                         _______ _______ _______ _____ _____    ______ ____
ROOT
ATOM      1  C   UNL     1       0.416  10.726  20.601  0.00  0.00    +0.000 A 
ATOM      2  C   UNL     1       1.122  10.576  19.427  0.00  0.00    +0.000 A 
ATOM      3  C   UNL     1       1.816  11.808  18.959  0.00  0.00    +0.000 A 
ATOM      4  O   UNL     1       2.494  11.824  17.931  0.00  0.00    +0.000 OA
ATOM      5  C   UNL     1       1.783  13.015  19.837  0.00  0.00    +0.000 A 
ATOM      6  C   UNL     1       0.950  13.084  20.890  0.00  0.00    +0.000 A 
ATOM      7  C   UNL     1       1.016  14.302  21.791  0.00  0.00    +0.000 C 
ATOM      8  N   UNL     1       0.103  12.003  21.208  0.00  0.00    +0.000 N 
ENDROOT
BRANCH   2   9
ATOM      9  C   UNL     1       1.259   9.219  18.705  0.00  0.00    +0.000 C 
ATOM     10  O   UNL     1       0.650   9.042  17.646  0.00  0.00    +0.000 OA
ATOM     11  N   UNL     1       2.133   8.206  19.133  0.00  0.00    +0.000 N 
ATOM     12  H   UNL     1       2.750   8.397  19.916  0.00  0.00    +0.000 HD
BRANCH  11  13
ATOM     13  C   UNL     1       2.484   7.110  18.148  0.00  0.00    +0.000 C 
ATOM     14  C   UNL     1       3.740   7.571  17.368  0.00  0.00    +0.000 C 
ATOM     15  C   UNL     1       4.762   6.583  16.843  0.00  0.00    +0.000 C 
ATOM     16  C   UNL     1       4.573   5.124  17.148  0.00  0.00    +0.000 C 
ATOM     17  C   UNL     1       3.537   4.756  18.167  0.00  0.00    +0.000 A 
ATOM     18  C   UNL     1       3.510   3.380  18.484  0.00  0.00    +0.000 A 
ATOM     19  C   UNL     1       2.449   2.824  19.185  0.00  0.00    +0.000 A 
ATOM     20  C   UNL     1       1.421   3.674  19.588  0.00  0.00    +0.000 A 
ATOM     21  C   UNL     1       1.473   5.055  19.326  0.00  0.00    +0.000 A 
ATOM     22  C   UNL     1       2.545   5.653  18.629  0.00  0.00    +0.000 A 
ENDBRANCH  11  13
ENDBRANCH   2   9
BRANCH   1  24
ATOM     23  C   UNL     1       1.334   9.182  22.502  0.00  0.00    +0.000 C 
ATOM     24  C   UNL     1       0.230   9.504  21.508  0.00  0.00    +0.000 C 
ENDBRANCH   1  24
BRANCH   8  25
ATOM     25  C   UNL     1      -0.944  12.132  22.307  0.00  0.00    +0.000 C 
BRANCH  25  26
ATOM     26  C   UNL     1      -2.244  12.913  21.920  0.00  0.00    +0.000 C 
BRANCH  26  27
ATOM     27  N   UNL     1      -2.989  13.655  22.975  0.00  0.00    +0.000 NA
ATOM     28  C   UNL     1      -2.113  14.316  23.948  0.00  0.00    +0.000 C 
ATOM     29  C   UNL     1      -2.906  14.917  25.114  0.00  0.00    +0.000 C 
ATOM     30  C   UNL     1      -4.003  15.858  24.627  0.00  0.00    +0.000 C 
ATOM     31  C   UNL     1      -4.874  15.151  23.595  0.00  0.00    +0.000 C 
ATOM     32  C   UNL     1      -4.025  14.559  22.460  0.00  0.00    +0.000 C 
ENDBRANCH  26  27
ENDBRANCH  25  26
ENDBRANCH   8  25
TORSDOF 6
ENDMDL
