MODEL 1
REMARK VINA RESULT:      -6.6      0.000      0.000
REMARK  Name = 
REMARK  12 active torsions:
REMARK  status: ('A' for Active; 'I' for Inactive)
REMARK    1  A    between atoms: C_1  and  C_2
REMARK    2  A    between atoms: C_2  and  N_3
REMARK    3  A    between atoms: N_3  and  C_4
REMARK    4  A    between atoms: N_3  and  C_6
REMARK    5  A    between atoms: C_4  and  C_5
REMARK    6  A    between atoms: C_8  and  C_9
REMARK    7  A    between atoms: N_12  and  C_13
REMARK    8  A    between atoms: C_16  and  C_17
REMARK    9  A    between atoms: C_17  and  C_18
REMARK   10  A    between atoms: C_17  and  C_19
REMARK   11  A    between atoms: C_23  and  S_24
REMARK   12  A    between atoms: S_24  and  C_25
REMARK                            x       y       z     vdW  Elec       q    Type
REMARK                         _______ _______ _______ _____ _____    ______ ____
ROOT
ATOM      1  C   UNL     1       3.218   4.343  18.730  0.00  0.00    +0.000 A 
ATOM      2  N   UNL     1       3.966   4.820  17.709  0.00  0.00    +0.000 NA
ATOM      3  C   UNL     1       4.034   6.145  17.539  0.00  0.00    +0.000 A 
ATOM      4  C   UNL     1       4.786   6.673  16.360  0.00  0.00    +0.000 C 
ATOM      5  N   UNL     1       3.447   7.037  18.337  0.00  0.00    +0.000 NA
ATOM      6  C   UNL     1       2.690   6.565  19.345  0.00  0.00    +0.000 A 
ATOM      7  N   UNL     1       2.050   7.519  20.151  0.00  0.00    +0.000 N 
ATOM      8  C   UNL     1       2.486   5.195  19.565  0.00  0.00    +0.000 A 
ATOM      9  H   UNL     1       1.913   7.240  21.115  0.00  0.00    +0.000 HD
ENDROOT
BRANCH   7  10
ATOM     10  C   UNL     1       1.400   8.707  19.776  0.00  0.00    +0.000 A 
ATOM     11  C   UNL     1       1.315   9.086  18.431  0.00  0.00    +0.000 A 
ATOM     12  C   UNL     1       0.531  10.170  18.038  0.00  0.00    +0.000 A 
ATOM     13  C   UNL     1      -0.167  10.927  18.983  0.00  0.00    +0.000 A 
ATOM     14  C   UNL     1       0.047  10.655  20.342  0.00  0.00    +0.000 A 
ATOM     15  C   UNL     1       0.819   9.554  20.732  0.00  0.00    +0.000 A 
ATOM     16 BR   UNL     1       1.028   9.223  22.592  0.00  0.00    +0.000 Br
BRANCH  13  17
ATOM     17  C   UNL     1      -1.195  11.936  18.516  0.00  0.00    +0.000 C 
ATOM     18  C   UNL     1      -0.510  13.261  18.163  0.00  0.00    +0.000 C 
ATOM     19  C   UNL     1      -2.046  11.428  17.356  0.00  0.00    +0.000 C 
ENDBRANCH  13  17
ENDBRANCH   7  10
BRANCH   8  20
ATOM     20  S   UNL     1       1.219   4.657  20.730  0.00  0.00    +0.000 S 
ATOM     21  C   UNL     1       2.158   3.538  21.791  0.00  0.00    +0.000 C 
ENDBRANCH   8  20
BRANCH   1  22
ATOM     22  N   UNL     1       3.232   2.929  18.934  0.00  0.00    +0.000 N 
BRANCH  22  24
ATOM     23  C   UNL     1       4.857   1.767  20.393  0.00  0.00    +0.000 C 
ATOM     24  C   UNL     1       4.615   2.414  19.040  0.00  0.00    +0.000 C 
ENDBRANCH  22  24
BRANCH  22  25
ATOM     25  C   UNL     1       2.391   2.256  17.921  0.00  0.00    +0.000 C 
ATOM     26  C   UNL     1       0.976   2.045  18.456  0.00  0.00    +0.000 C 
ENDBRANCH  22  25
ENDBRANCH   1  22
TORSDOF 6
ENDMDL
MODEL 2
REMARK VINA RESULT:      -6.5      6.853      9.237
REMARK  Name = 
REMARK  12 active torsions:
REMARK  status: ('A' for Active; 'I' for Inactive)
REMARK    1  A    between atoms: C_1  and  C_2
REMARK    2  A    between atoms: C_2  and  N_3
REMARK    3  A    between atoms: N_3  and  C_4
REMARK    4  A    between atoms: N_3  and  C_6
REMARK    5  A    between atoms: C_4  and  C_5
REMARK    6  A    between atoms: C_8  and  C_9
REMARK    7  A    between atoms: N_12  and  C_13
REMARK    8  A    between atoms: C_16  and  C_17
REMARK    9  A    between atoms: C_17  and  C_18
REMARK   10  A    between atoms: C_17  and  C_19
REMARK   11  A    between atoms: C_23  and  S_24
REMARK   12  A    between atoms: S_24  and  C_25
REMARK                            x       y       z     vdW  Elec       q    Type
REMARK                         _______ _______ _______ _____ _____    ______ ____
ROOT
ATOM      1  C   UNL     1      -5.011  11.685  18.373  0.00  0.00    +0.000 A 
ATOM      2  N   UNL     1      -4.797  11.302  17.094  0.00  0.00    +0.000 NA
ATOM      3  C   UNL     1      -3.533  11.192  16.669  0.00  0.00    +0.000 A 
ATOM      4  C   UNL     1      -3.293  10.856  15.233  0.00  0.00    +0.000 C 
ATOM      5  N   UNL     1      -2.461  11.394  17.435  0.00  0.00    +0.000 NA
ATOM      6  C   UNL     1      -2.671  11.790  18.705  0.00  0.00    +0.000 A 
ATOM      7  N   UNL     1      -1.531  12.033  19.485  0.00  0.00    +0.000 N 
ATOM      8  C   UNL     1      -3.953  12.013  19.229  0.00  0.00    +0.000 A 
ATOM      9  H   UNL     1      -1.643  11.851  20.474  0.00  0.00    +0.000 HD
ENDROOT
BRANCH   7  10
ATOM     10  C   UNL     1      -0.333  12.677  19.130  0.00  0.00    +0.000 A 
ATOM     11  C   UNL     1      -0.265  14.072  19.045  0.00  0.00    +0.000 A 
ATOM     12  C   UNL     1       0.954  14.722  18.859  0.00  0.00    +0.000 A 
ATOM     13  C   UNL     1       2.139  13.993  18.721  0.00  0.00    +0.000 A 
ATOM     14  C   UNL     1       2.054  12.596  18.639  0.00  0.00    +0.000 A 
ATOM     15  C   UNL     1       0.831  11.947  18.846  0.00  0.00    +0.000 A 
ATOM     16 BR   UNL     1       0.802  10.048  18.764  0.00  0.00    +0.000 Br
BRANCH  13  17
ATOM     17  C   UNL     1       3.468  14.718  18.766  0.00  0.00    +0.000 C 
ATOM     18  C   UNL     1       3.662  15.541  17.486  0.00  0.00    +0.000 C 
ATOM     19  C   UNL     1       3.634  15.585  20.009  0.00  0.00    +0.000 C 
ENDBRANCH  13  17
ENDBRANCH   7  10
BRANCH   8  20
ATOM     20  S   UNL     1      -4.135  12.837  20.822  0.00  0.00    +0.000 S 
ATOM     21  C   UNL     1      -4.740  14.462  20.320  0.00  0.00    +0.000 C 
ENDBRANCH   8  20
BRANCH   1  22
ATOM     22  N   UNL     1      -6.368  11.714  18.819  0.00  0.00    +0.000 N 
BRANCH  22  24
ATOM     23  C   UNL     1      -7.515  10.387  20.564  0.00  0.00    +0.000 C 
ATOM     24  C   UNL     1      -6.837  10.365  19.205  0.00  0.00    +0.000 C 
ENDBRANCH  22  24
BRANCH  22  25
ATOM     25  C   UNL     1      -7.218  12.411  17.830  0.00  0.00    +0.000 C 
ATOM     26  C   UNL     1      -7.914  13.609  18.473  0.00  0.00    +0.000 C 
ENDBRANCH  22  25
ENDBRANCH   1  22
TORSDOF 6
ENDMDL
MODEL 3
REMARK VINA RESULT:      -6.4      2.723      8.221
REMARK  Name = 
REMARK  12 active torsions:
REMARK  status: ('A' for Active; 'I' for Inactive)
REMARK    1  A    between atoms: C_1  and  C_2
REMARK    2  A    between atoms: C_2  and  N_3
REMARK    3  A    between atoms: N_3  and  C_4
REMARK    4  A    between atoms: N_3  and  C_6
REMARK    5  A    between atoms: C_4  and  C_5
REMARK    6  A    between atoms: C_8  and  C_9
REMARK    7  A    between atoms: N_12  and  C_13
REMARK    8  A    between atoms: C_16  and  C_17
REMARK    9  A    between atoms: C_17  and  C_18
REMARK   10  A    between atoms: C_17  and  C_19
REMARK   11  A    between atoms: C_23  and  S_24
REMARK   12  A    between atoms: S_24  and  C_25
REMARK                            x       y       z     vdW  Elec       q    Type
REMARK                         _______ _______ _______ _____ _____    ______ ____
ROOT
ATOM      1  C   UNL     1      -0.317  10.928  20.476  0.00  0.00    +0.000 A 
ATOM      2  N   UNL     1      -0.386  10.684  21.805  0.00  0.00    +0.000 NA
ATOM      3  C   UNL     1       0.313   9.655  22.298  0.00  0.00    +0.000 A 
ATOM      4  C   UNL     1       0.170   9.328  23.749  0.00  0.00    +0.000 C 
ATOM      5  N   UNL     1       1.113   8.873  21.573  0.00  0.00    +0.000 NA
ATOM      6  C   UNL     1       1.171   9.103  20.247  0.00  0.00    +0.000 A 
ATOM      7  N   UNL     1       1.990   8.246  19.496  0.00  0.00    +0.000 N 
ATOM      8  C   UNL     1       0.419  10.104  19.616  0.00  0.00    +0.000 A 
ATOM      9  H   UNL     1       2.410   8.667  18.676  0.00  0.00    +0.000 HD
ENDROOT
BRANCH   7  10
ATOM     10  C   UNL     1       2.148   6.853  19.597  0.00  0.00    +0.000 A 
ATOM     11  C   UNL     1       1.479   6.125  20.587  0.00  0.00    +0.000 A 
ATOM     12  C   UNL     1       1.498   4.731  20.591  0.00  0.00    +0.000 A 
ATOM     13  C   UNL     1       2.215   4.024  19.620  0.00  0.00    +0.000 A 
ATOM     14  C   UNL     1       3.020   4.748  18.729  0.00  0.00    +0.000 A 
ATOM     15  C   UNL     1       2.982   6.148  18.717  0.00  0.00    +0.000 A 
ATOM     16 BR   UNL     1       4.068   7.060  17.452  0.00  0.00    +0.000 Br
BRANCH  13  17
ATOM     17  C   UNL     1       2.024   2.527  19.498  0.00  0.00    +0.000 C 
ATOM     18  C   UNL     1       0.662   2.220  18.864  0.00  0.00    +0.000 C 
ATOM     19  C   UNL     1       3.154   1.840  18.739  0.00  0.00    +0.000 C 
ENDBRANCH  13  17
ENDBRANCH   7  10
BRANCH   8  20
ATOM     20  S   UNL     1       0.315  10.142  17.816  0.00  0.00    +0.000 S 
ATOM     21  C   UNL     1      -1.458   9.922  17.554  0.00  0.00    +0.000 C 
ENDBRANCH   8  20
BRANCH   1  22
ATOM     22  N   UNL     1      -1.009  12.081  19.995  0.00  0.00    +0.000 N 
BRANCH  22  24
ATOM     23  C   UNL     1       0.056  13.842  18.621  0.00  0.00    +0.000 C 
ATOM     24  C   UNL     1      -0.141  13.278  20.019  0.00  0.00    +0.000 C 
ENDBRANCH  22  24
BRANCH  22  25
ATOM     25  C   UNL     1      -2.301  12.234  20.697  0.00  0.00    +0.000 C 
ATOM     26  C   UNL     1      -2.442  13.648  21.255  0.00  0.00    +0.000 C 
ENDBRANCH  22  25
ENDBRANCH   1  22
TORSDOF 6
ENDMDL
MODEL 4
REMARK VINA RESULT:      -6.4      0.827      1.077
REMARK  Name = 
REMARK  12 active torsions:
REMARK  status: ('A' for Active; 'I' for Inactive)
REMARK    1  A    between atoms: C_1  and  C_2
REMARK    2  A    between atoms: C_2  and  N_3
REMARK    3  A    between atoms: N_3  and  C_4
REMARK    4  A    between atoms: N_3  and  C_6
REMARK    5  A    between atoms: C_4  and  C_5
REMARK    6  A    between atoms: C_8  and  C_9
REMARK    7  A    between atoms: N_12  and  C_13
REMARK    8  A    between atoms: C_16  and  C_17
REMARK    9  A    between atoms: C_17  and  C_18
REMARK   10  A    between atoms: C_17  and  C_19
REMARK   11  A    between atoms: C_23  and  S_24
REMARK   12  A    between atoms: S_24  and  C_25
REMARK                            x       y       z     vdW  Elec       q    Type
REMARK                         _______ _______ _______ _____ _____    ______ ____
ROOT
ATOM      1  C   UNL     1       3.605   4.550  18.791  0.00  0.00    +0.000 A 
ATOM      2  N   UNL     1       4.241   5.015  17.691  0.00  0.00    +0.000 NA
ATOM      3  C   UNL     1       4.156   6.322  17.415  0.00  0.00    +0.000 A 
ATOM      4  C   UNL     1       4.782   6.824  16.154  0.00  0.00    +0.000 C 
ATOM      5  N   UNL     1       3.521   7.212  18.177  0.00  0.00    +0.000 NA
ATOM      6  C   UNL     1       2.875   6.749  19.265  0.00  0.00    +0.000 A 
ATOM      7  N   UNL     1       2.181   7.696  20.033  0.00  0.00    +0.000 N 
ATOM      8  C   UNL     1       2.832   5.389  19.602  0.00  0.00    +0.000 A 
ATOM      9  H   UNL     1       2.126   7.485  21.022  0.00  0.00    +0.000 HD
ENDROOT
BRANCH   7  10
ATOM     10  C   UNL     1       1.387   8.775  19.609  0.00  0.00    +0.000 A 
ATOM     11  C   UNL     1       1.305   9.119  18.256  0.00  0.00    +0.000 A 
ATOM     12  C   UNL     1       0.395  10.076  17.810  0.00  0.00    +0.000 A 
ATOM     13  C   UNL     1      -0.441  10.741  18.712  0.00  0.00    +0.000 A 
ATOM     14  C   UNL     1      -0.248  10.521  20.084  0.00  0.00    +0.000 A 
ATOM     15  C   UNL     1       0.654   9.545  20.525  0.00  0.00    +0.000 A 
ATOM     16 BR   UNL     1       0.831   9.273  22.398  0.00  0.00    +0.000 Br
BRANCH  13  17
ATOM     17  C   UNL     1      -1.579  11.588  18.185  0.00  0.00    +0.000 C 
ATOM     18  C   UNL     1      -2.319  10.841  17.069  0.00  0.00    +0.000 C 
ATOM     19  C   UNL     1      -2.542  12.042  19.277  0.00  0.00    +0.000 C 
ENDBRANCH  13  17
ENDBRANCH   7  10
BRANCH   8  20
ATOM     20  S   UNL     1       1.695   4.821  20.881  0.00  0.00    +0.000 S 
ATOM     21  C   UNL     1       0.696   3.626  19.970  0.00  0.00    +0.000 C 
ENDBRANCH   8  20
BRANCH   1  22
ATOM     22  N   UNL     1       3.783   3.167  19.101  0.00  0.00    +0.000 N 
BRANCH  22  24
ATOM     23  C   UNL     1       4.873   1.602  20.677  0.00  0.00    +0.000 C 
ATOM     24  C   UNL     1       4.938   2.961  20.002  0.00  0.00    +0.000 C 
ENDBRANCH  22  24
BRANCH  22  25
ATOM     25  C   UNL     1       3.806   2.361  17.862  0.00  0.00    +0.000 C 
ATOM     26  C   UNL     1       2.402   1.870  17.517  0.00  0.00    +0.000 C 
ENDBRANCH  22  25
ENDBRANCH   1  22
TORSDOF 6
ENDMDL
MODEL 5
REMARK VINA RESULT:      -6.2      2.641      8.079
REMARK  Name = 
REMARK  12 active torsions:
REMARK  status: ('A' for Active; 'I' for Inactive)
REMARK    1  A    between atoms: C_1  and  C_2
REMARK    2  A    between atoms: C_2  and  N_3
REMARK    3  A    between atoms: N_3  and  C_4
REMARK    4  A    between atoms: N_3  and  C_6
REMARK    5  A    between atoms: C_4  and  C_5
REMARK    6  A    between atoms: C_8  and  C_9
REMARK    7  A    between atoms: N_12  and  C_13
REMARK    8  A    between atoms: C_16  and  C_17
REMARK    9  A    between atoms: C_17  and  C_18
REMARK   10  A    between atoms: C_17  and  C_19
REMARK   11  A    between atoms: C_23  and  S_24
REMARK   12  A    between atoms: S_24  and  C_25
REMARK                            x       y       z     vdW  Elec       q    Type
REMARK                         _______ _______ _______ _____ _____    ______ ____
ROOT
ATOM      1  C   UNL     1      -0.109  10.865  20.257  0.00  0.00    +0.000 A 
ATOM      2  N   UNL     1      -0.517  10.540  21.505  0.00  0.00    +0.000 NA
ATOM      3  C   UNL     1      -0.001   9.446  22.076  0.00  0.00    +0.000 A 
ATOM      4  C   UNL     1      -0.516   9.035  23.418  0.00  0.00    +0.000 C 
ATOM      5  N   UNL     1       0.926   8.670  21.515  0.00  0.00    +0.000 NA
ATOM      6  C   UNL     1       1.323   8.982  20.266  0.00  0.00    +0.000 A 
ATOM      7  N   UNL     1       2.272   8.132  19.678  0.00  0.00    +0.000 N 
ATOM      8  C   UNL     1       0.789  10.060  19.546  0.00  0.00    +0.000 A 
ATOM      9  H   UNL     1       2.899   8.581  19.023  0.00  0.00    +0.000 HD
ENDROOT
BRANCH   7  10
ATOM     10  C   UNL     1       2.350   6.729  19.711  0.00  0.00    +0.000 A 
ATOM     11  C   UNL     1       1.673   5.994  20.690  0.00  0.00    +0.000 A 
ATOM     12  C   UNL     1       1.609   4.603  20.630  0.00  0.00    +0.000 A 
ATOM     13  C   UNL     1       2.247   3.903  19.602  0.00  0.00    +0.000 A 
ATOM     14  C   UNL     1       3.063   4.620  18.715  0.00  0.00    +0.000 A 
ATOM     15  C   UNL     1       3.109   6.018  18.768  0.00  0.00    +0.000 A 
ATOM     16 BR   UNL     1       4.203   6.925  17.506  0.00  0.00    +0.000 Br
BRANCH  13  17
ATOM     17  C   UNL     1       1.962   2.427  19.419  0.00  0.00    +0.000 C 
ATOM     18  C   UNL     1       0.580   2.232  18.785  0.00  0.00    +0.000 C 
ATOM     19  C   UNL     1       3.042   1.704  18.622  0.00  0.00    +0.000 C 
ENDBRANCH  13  17
ENDBRANCH   7  10
BRANCH   8  20
ATOM     20  S   UNL     1       1.141  10.218  17.784  0.00  0.00    +0.000 S 
ATOM     21  C   UNL     1       2.402  11.511  17.785  0.00  0.00    +0.000 C 
ENDBRANCH   8  20
BRANCH   1  22
ATOM     22  N   UNL     1      -0.616  12.082  19.708  0.00  0.00    +0.000 N 
BRANCH  22  24
ATOM     23  C   UNL     1       0.640  14.204  19.505  0.00  0.00    +0.000 C 
ATOM     24  C   UNL     1      -0.097  13.259  20.439  0.00  0.00    +0.000 C 
ENDBRANCH  22  24
BRANCH  22  25
ATOM     25  C   UNL     1      -2.089  12.019  19.593  0.00  0.00    +0.000 C 
ATOM     26  C   UNL     1      -2.494  11.377  18.268  0.00  0.00    +0.000 C 
ENDBRANCH  22  25
ENDBRANCH   1  22
TORSDOF 6
ENDMDL
MODEL 6
REMARK VINA RESULT:      -6.1      1.086      1.861
REMARK  Name = 
REMARK  12 active torsions:
REMARK  status: ('A' for Active; 'I' for Inactive)
REMARK    1  A    between atoms: C_1  and  C_2
REMARK    2  A    between atoms: C_2  and  N_3
REMARK    3  A    between atoms: N_3  and  C_4
REMARK    4  A    between atoms: N_3  and  C_6
REMARK    5  A    between atoms: C_4  and  C_5
REMARK    6  A    between atoms: C_8  and  C_9
REMARK    7  A    between atoms: N_12  and  C_13
REMARK    8  A    between atoms: C_16  and  C_17
REMARK    9  A    between atoms: C_17  and  C_18
REMARK   10  A    between atoms: C_17  and  C_19
REMARK   11  A    between atoms: C_23  and  S_24
REMARK   12  A    between atoms: S_24  and  C_25
REMARK                            x       y       z     vdW  Elec       q    Type
REMARK                         _______ _______ _______ _____ _____    ______ ____
ROOT
ATOM      1  C   UNL     1       3.995   4.075  18.810  0.00  0.00    +0.000 A 
ATOM      2  N   UNL     1       4.606   4.509  17.684  0.00  0.00    +0.000 NA
ATOM      3  C   UNL     1       4.494   5.803  17.360  0.00  0.00    +0.000 A 
ATOM      4  C   UNL     1       5.091   6.267  16.071  0.00  0.00    +0.000 C 
ATOM      5  N   UNL     1       3.855   6.710  18.098  0.00  0.00    +0.000 NA
ATOM      6  C   UNL     1       3.233   6.278  19.212  0.00  0.00    +0.000 A 
ATOM      7  N   UNL     1       2.535   7.242  19.956  0.00  0.00    +0.000 N 
ATOM      8  C   UNL     1       3.220   4.931  19.601  0.00  0.00    +0.000 A 
ATOM      9  H   UNL     1       2.499   7.068  20.953  0.00  0.00    +0.000 HD
ENDROOT
BRANCH   7  10
ATOM     10  C   UNL     1       1.715   8.290  19.504  0.00  0.00    +0.000 A 
ATOM     11  C   UNL     1       1.579   8.559  18.138  0.00  0.00    +0.000 A 
ATOM     12  C   UNL     1       0.644   9.483  17.676  0.00  0.00    +0.000 A 
ATOM     13  C   UNL     1      -0.162  10.191  18.572  0.00  0.00    +0.000 A 
ATOM     14  C   UNL     1       0.084  10.049  19.945  0.00  0.00    +0.000 A 
ATOM     15  C   UNL     1       1.011   9.105  20.404  0.00  0.00    +0.000 A 
ATOM     16 BR   UNL     1       1.261   8.938  22.281  0.00  0.00    +0.000 Br
BRANCH  13  17
ATOM     17  C   UNL     1      -1.328  11.001  18.043  0.00  0.00    +0.000 C 
ATOM     18  C   UNL     1      -2.305  10.088  17.292  0.00  0.00    +0.000 C 
ATOM     19  C   UNL     1      -2.042  11.800  19.128  0.00  0.00    +0.000 C 
ENDBRANCH  13  17
ENDBRANCH   7  10
BRANCH   8  20
ATOM     20  S   UNL     1       2.113   4.394  20.919  0.00  0.00    +0.000 S 
ATOM     21  C   UNL     1       0.648   3.907  19.983  0.00  0.00    +0.000 C 
ENDBRANCH   8  20
BRANCH   1  22
ATOM     22  N   UNL     1       4.201   2.708  19.170  0.00  0.00    +0.000 N 
BRANCH  22  24
ATOM     23  C   UNL     1       2.615   2.153  17.354  0.00  0.00    +0.000 C 
ATOM     24  C   UNL     1       3.046   1.870  18.783  0.00  0.00    +0.000 C 
ENDBRANCH  22  24
BRANCH  22  25
ATOM     25  C   UNL     1       4.599   2.606  20.590  0.00  0.00    +0.000 C 
ATOM     26  C   UNL     1       5.204   1.233  20.878  0.00  0.00    +0.000 C 
ENDBRANCH  22  25
ENDBRANCH   1  22
TORSDOF 6
ENDMDL
MODEL 7
REMARK VINA RESULT:      -6.0      7.148      9.196
REMARK  Name = 
REMARK  12 active torsions:
REMARK  status: ('A' for Active; 'I' for Inactive)
REMARK    1  A    between atoms: C_1  and  C_2
REMARK    2  A    between atoms: C_2  and  N_3
REMARK    3  A    between atoms: N_3  and  C_4
REMARK    4  A    between atoms: N_3  and  C_6
REMARK    5  A    between atoms: C_4  and  C_5
REMARK    6  A    between atoms: C_8  and  C_9
REMARK    7  A    between atoms: N_12  and  C_13
REMARK    8  A    between atoms: C_16  and  C_17
REMARK    9  A    between atoms: C_17  and  C_18
REMARK   10  A    between atoms: C_17  and  C_19
REMARK   11  A    between atoms: C_23  and  S_24
REMARK   12  A    between atoms: S_24  and  C_25
REMARK                            x       y       z     vdW  Elec       q    Type
REMARK                         _______ _______ _______ _____ _____    ______ ____
ROOT
ATOM      1  C   UNL     1      -4.954  11.922  19.033  0.00  0.00    +0.000 A 
ATOM      2  N   UNL     1      -4.573  11.061  18.061  0.00  0.00    +0.000 NA
ATOM      3  C   UNL     1      -3.264  10.852  17.877  0.00  0.00    +0.000 A 
ATOM      4  C   UNL     1      -2.837   9.972  16.747  0.00  0.00    +0.000 C 
ATOM      5  N   UNL     1      -2.303  11.402  18.619  0.00  0.00    +0.000 NA
ATOM      6  C   UNL     1      -2.678  12.270  19.577  0.00  0.00    +0.000 A 
ATOM      7  N   UNL     1      -1.650  12.867  20.323  0.00  0.00    +0.000 N 
ATOM      8  C   UNL     1      -4.017  12.622  19.801  0.00  0.00    +0.000 A 
ATOM      9  H   UNL     1      -1.894  13.098  21.278  0.00  0.00    +0.000 HD
ENDROOT
BRANCH   7  10
ATOM     10  C   UNL     1      -0.413  13.370  19.886  0.00  0.00    +0.000 A 
ATOM     11  C   UNL     1      -0.336  14.576  19.182  0.00  0.00    +0.000 A 
ATOM     12  C   UNL     1       0.895  15.163  18.893  0.00  0.00    +0.000 A 
ATOM     13  C   UNL     1       2.089  14.542  19.273  0.00  0.00    +0.000 A 
ATOM     14  C   UNL     1       2.022  13.256  19.829  0.00  0.00    +0.000 A 
ATOM     15  C   UNL     1       0.784  12.680  20.135  0.00  0.00    +0.000 A 
ATOM     16 BR   UNL     1       0.773  10.952  20.927  0.00  0.00    +0.000 Br
BRANCH  13  17
ATOM     17  C   UNL     1       3.391  15.307  19.167  0.00  0.00    +0.000 C 
ATOM     18  C   UNL     1       4.340  14.891  20.298  0.00  0.00    +0.000 C 
ATOM     19  C   UNL     1       4.060  15.164  17.804  0.00  0.00    +0.000 C 
ENDBRANCH  13  17
ENDBRANCH   7  10
BRANCH   8  20
ATOM     20  S   UNL     1      -4.406  14.014  20.880  0.00  0.00    +0.000 S 
ATOM     21  C   UNL     1      -4.579  13.192  22.478  0.00  0.00    +0.000 C 
ENDBRANCH   8  20
BRANCH   1  22
ATOM     22  N   UNL     1      -6.358  12.061  19.256  0.00  0.00    +0.000 N 
BRANCH  22  24
ATOM     23  C   UNL     1      -7.208   9.776  19.678  0.00  0.00    +0.000 C 
ATOM     24  C   UNL     1      -6.835  11.116  20.289  0.00  0.00    +0.000 C 
ENDBRANCH  22  24
BRANCH  22  25
ATOM     25  C   UNL     1      -7.090  12.004  17.973  0.00  0.00    +0.000 C 
ATOM     26  C   UNL     1      -7.255  13.406  17.390  0.00  0.00    +0.000 C 
ENDBRANCH  22  25
ENDBRANCH   1  22
TORSDOF 6
ENDMDL
MODEL 8
REMARK VINA RESULT:      -5.9      7.190      9.139
REMARK  Name = 
REMARK  12 active torsions:
REMARK  status: ('A' for Active; 'I' for Inactive)
REMARK    1  A    between atoms: C_1  and  C_2
REMARK    2  A    between atoms: C_2  and  N_3
REMARK    3  A    between atoms: N_3  and  C_4
REMARK    4  A    between atoms: N_3  and  C_6
REMARK    5  A    between atoms: C_4  and  C_5
REMARK    6  A    between atoms: C_8  and  C_9
REMARK    7  A    between atoms: N_12  and  C_13
REMARK    8  A    between atoms: C_16  and  C_17
REMARK    9  A    between atoms: C_17  and  C_18
REMARK   10  A    between atoms: C_17  and  C_19
REMARK   11  A    between atoms: C_23  and  S_24
REMARK   12  A    between atoms: S_24  and  C_25
REMARK                            x       y       z     vdW  Elec       q    Type
REMARK                         _______ _______ _______ _____ _____    ______ ____
ROOT
ATOM      1  C   UNL     1      -4.734  11.916  18.764  0.00  0.00    +0.000 A 
ATOM      2  N   UNL     1      -4.390  11.213  17.660  0.00  0.00    +0.000 NA
ATOM      3  C   UNL     1      -3.090  11.056  17.389  0.00  0.00    +0.000 A 
ATOM      4  C   UNL     1      -2.707  10.358  16.125  0.00  0.00    +0.000 C 
ATOM      5  N   UNL     1      -2.100  11.509  18.159  0.00  0.00    +0.000 NA
ATOM      6  C   UNL     1      -2.439  12.222  19.250  0.00  0.00    +0.000 A 
ATOM      7  N   UNL     1      -1.383  12.722  20.027  0.00  0.00    +0.000 N 
ATOM      8  C   UNL     1      -3.770  12.514  19.583  0.00  0.00    +0.000 A 
ATOM      9  H   UNL     1      -1.584  12.808  21.016  0.00  0.00    +0.000 HD
ENDROOT
BRANCH   7  10
ATOM     10  C   UNL     1      -0.174  13.305  19.612  0.00  0.00    +0.000 A 
ATOM     11  C   UNL     1       0.904  12.511  19.204  0.00  0.00    +0.000 A 
ATOM     12  C   UNL     1       2.042  13.081  18.636  0.00  0.00    +0.000 A 
ATOM     13  C   UNL     1       2.149  14.467  18.488  0.00  0.00    +0.000 A 
ATOM     14  C   UNL     1       1.147  15.275  19.045  0.00  0.00    +0.000 A 
ATOM     15  C   UNL     1      -0.003  14.698  19.597  0.00  0.00    +0.000 A 
ATOM     16 BR   UNL     1      -1.338  15.857  20.294  0.00  0.00    +0.000 Br
BRANCH  13  17
ATOM     17  C   UNL     1       3.275  15.041  17.654  0.00  0.00    +0.000 C 
ATOM     18  C   UNL     1       3.142  16.566  17.568  0.00  0.00    +0.000 C 
ATOM     19  C   UNL     1       4.657  14.635  18.154  0.00  0.00    +0.000 C 
ENDBRANCH  13  17
ENDBRANCH   7  10
BRANCH   8  20
ATOM     20  S   UNL     1      -4.121  13.727  20.871  0.00  0.00    +0.000 S 
ATOM     21  C   UNL     1      -4.104  12.695  22.352  0.00  0.00    +0.000 C 
ENDBRANCH   8  20
BRANCH   1  22
ATOM     22  N   UNL     1      -6.127  11.997  19.069  0.00  0.00    +0.000 N 
BRANCH  22  24
ATOM     23  C   UNL     1      -6.999   9.698  19.348  0.00  0.00    +0.000 C 
ATOM     24  C   UNL     1      -6.525  10.961  20.047  0.00  0.00    +0.000 C 
ENDBRANCH  22  24
BRANCH  22  25
ATOM     25  C   UNL     1      -6.925  12.019  17.825  0.00  0.00    +0.000 C 
ATOM     26  C   UNL     1      -7.229  13.457  17.410  0.00  0.00    +0.000 C 
ENDBRANCH  22  25
ENDBRANCH   1  22
TORSDOF 6
ENDMDL
MODEL 9
REMARK VINA RESULT:      -5.8      2.865      7.755
REMARK  Name = 
REMARK  12 active torsions:
REMARK  status: ('A' for Active; 'I' for Inactive)
REMARK    1  A    between atoms: C_1  and  C_2
REMARK    2  A    between atoms: C_2  and  N_3
REMARK    3  A    between atoms: N_3  and  C_4
REMARK    4  A    between atoms: N_3  and  C_6
REMARK    5  A    between atoms: C_4  and  C_5
REMARK    6  A    between atoms: C_8  and  C_9
REMARK    7  A    between atoms: N_12  and  C_13
REMARK    8  A    between atoms: C_16  and  C_17
REMARK    9  A    between atoms: C_17  and  C_18
REMARK   10  A    between atoms: C_17  and  C_19
REMARK   11  A    between atoms: C_23  and  S_24
REMARK   12  A    between atoms: S_24  and  C_25
REMARK                            x       y       z     vdW  Elec       q    Type
REMARK                         _______ _______ _______ _____ _____    ______ ____
ROOT
ATOM      1  C   UNL     1       0.275  11.417  20.079  0.00  0.00    +0.000 A 
ATOM      2  N   UNL     1       1.040  12.243  19.327  0.00  0.00    +0.000 NA
ATOM      3  C   UNL     1       1.873  11.696  18.434  0.00  0.00    +0.000 A 
ATOM      4  C   UNL     1       2.782  12.599  17.666  0.00  0.00    +0.000 C 
ATOM      5  N   UNL     1       1.972  10.388  18.200  0.00  0.00    +0.000 NA
ATOM      6  C   UNL     1       1.224   9.563  18.957  0.00  0.00    +0.000 A 
ATOM      7  N   UNL     1       1.370   8.188  18.721  0.00  0.00    +0.000 N 
ATOM      8  C   UNL     1       0.378  10.025  19.975  0.00  0.00    +0.000 A 
ATOM      9  H   UNL     1       0.540   7.635  18.893  0.00  0.00    +0.000 HD
ENDROOT
BRANCH   7  10
ATOM     10  C   UNL     1       2.540   7.447  18.481  0.00  0.00    +0.000 A 
ATOM     11  C   UNL     1       3.387   7.768  17.415  0.00  0.00    +0.000 A 
ATOM     12  C   UNL     1       4.628   7.148  17.270  0.00  0.00    +0.000 A 
ATOM     13  C   UNL     1       5.045   6.166  18.173  0.00  0.00    +0.000 A 
ATOM     14  C   UNL     1       4.134   5.724  19.143  0.00  0.00    +0.000 A 
ATOM     15  C   UNL     1       2.897   6.362  19.296  0.00  0.00    +0.000 A 
ATOM     16 BR   UNL     1       1.732   5.736  20.661  0.00  0.00    +0.000 Br
BRANCH  13  17
ATOM     17  C   UNL     1       6.481   5.687  18.140  0.00  0.00    +0.000 C 
ATOM     18  C   UNL     1       7.331   6.630  17.279  0.00  0.00    +0.000 C 
ATOM     19  C   UNL     1       7.085   5.515  19.529  0.00  0.00    +0.000 C 
ENDBRANCH  13  17
ENDBRANCH   7  10
BRANCH   8  20
ATOM     20  S   UNL     1      -0.342   8.851  21.139  0.00  0.00    +0.000 S 
ATOM     21  C   UNL     1       0.637   9.169  22.623  0.00  0.00    +0.000 C 
ENDBRANCH   8  20
BRANCH   1  22
ATOM     22  N   UNL     1      -0.661  12.034  20.964  0.00  0.00    +0.000 N 
BRANCH  22  24
ATOM     23  C   UNL     1      -2.484  11.840  19.302  0.00  0.00    +0.000 C 
ATOM     24  C   UNL     1      -1.704  12.769  20.217  0.00  0.00    +0.000 C 
ENDBRANCH  22  24
BRANCH  22  25
ATOM     25  C   UNL     1       0.048  12.827  21.990  0.00  0.00    +0.000 C 
ATOM     26  C   UNL     1      -0.949  13.590  22.859  0.00  0.00    +0.000 C 
ENDBRANCH  22  25
ENDBRANCH   1  22
TORSDOF 6
ENDMDL
