MODEL 1
REMARK VINA RESULT:      -8.7      0.000      0.000
REMARK  Name = 
REMARK  9 active torsions:
REMARK  status: ('A' for Active; 'I' for Inactive)
REMARK    1  A    between atoms: C_1  and  C_2
REMARK    2  A    between atoms: C_2  and  O_3
REMARK    3  A    between atoms: O_3  and  C_4
REMARK    4  A    between atoms: C_4  and  C_6
REMARK    5  A    between atoms: C_7  and  C_8
REMARK    6  A    between atoms: C_8  and  N_9
REMARK    7  A    between atoms: C_22  and  C_23
REMARK    8  A    between atoms: C_26  and  O_27
REMARK    9  A    between atoms: O_27  and  C_28
REMARK                            x       y       z     vdW  Elec       q    Type
REMARK                         _______ _______ _______ _____ _____    ______ ____
ROOT
ATOM      1  C   UNL     1       2.974   4.652  18.164  0.00  0.00    +0.000 C 
ATOM      2  C   UNL     1       4.117   4.592  17.443  0.00  0.00    +0.000 C 
ATOM      3  N   UNL     1       5.267   5.092  18.041  0.00  0.00    +0.000 N 
ATOM      4  C   UNL     1       5.386   5.396  19.368  0.00  0.00    +0.000 C 
ATOM      5  O   UNL     1       6.462   5.659  19.886  0.00  0.00    +0.000 OA
ATOM      6  N   UNL     1       4.225   5.379  20.084  0.00  0.00    +0.000 N 
ATOM      7  C   UNL     1       2.933   5.468  19.436  0.00  0.00    +0.000 C 
ATOM      8  H   UNL     1       6.158   5.064  17.556  0.00  0.00    +0.000 HD
ATOM      9  H   UNL     1       4.317   5.722  21.031  0.00  0.00    +0.000 HD
ENDROOT
BRANCH   7  10
ATOM     10  C   UNL     1       2.513   6.925  19.216  0.00  0.00    +0.000 A 
ATOM     11  C   UNL     1       1.857   7.675  20.209  0.00  0.00    +0.000 A 
ATOM     12  C   UNL     1       1.416   8.977  19.963  0.00  0.00    +0.000 A 
ATOM     13  C   UNL     1       1.650   9.583  18.733  0.00  0.00    +0.000 A 
ATOM     14  C   UNL     1       2.336   8.877  17.749  0.00  0.00    +0.000 A 
ATOM     15  C   UNL     1       2.759   7.560  17.987  0.00  0.00    +0.000 A 
BRANCH  13  16
ATOM     16  O   UNL     1       1.098  10.824  18.593  0.00  0.00    +0.000 OA
ATOM     17  C   UNL     1       2.008  11.902  18.430  0.00  0.00    +0.000 C 
ENDBRANCH  13  16
ENDBRANCH   7  10
BRANCH   1  18
ATOM     18  C   UNL     1       1.814   3.773  17.878  0.00  0.00    +0.000 C 
ATOM     19  O   UNL     1       0.908   4.071  17.112  0.00  0.00    +0.000 OA
BRANCH  18  20
ATOM     20  O   UNL     1       2.003   2.551  18.419  0.00  0.00    +0.000 OA
BRANCH  20  22
ATOM     21  C   UNL     1       1.305   2.606  20.708  0.00  0.00    +0.000 C 
ATOM     22  C   UNL     1       0.978   2.088  19.317  0.00  0.00    +0.000 C 
ENDBRANCH  20  22
ENDBRANCH  18  20
ENDBRANCH   1  18
BRANCH   2  23
ATOM     23  C   UNL     1       4.324   3.940  16.091  0.00  0.00    +0.000 C 
BRANCH  23  24
ATOM     24  N   UNL     1       5.427   4.535  15.347  0.00  0.00    +0.000 N 
ATOM     25  C   UNL     1       6.386   5.356  15.879  0.00  0.00    +0.000 A 
ATOM     26  N   UNL     1       7.347   5.611  15.023  0.00  0.00    +0.000 NA
ATOM     27  C   UNL     1       7.015   4.905  13.891  0.00  0.00    +0.000 A 
ATOM     28  C   UNL     1       7.723   4.765  12.689  0.00  0.00    +0.000 A 
ATOM     29  C   UNL     1       7.194   3.946  11.685  0.00  0.00    +0.000 A 
ATOM     30  C   UNL     1       5.969   3.303  11.863  0.00  0.00    +0.000 A 
ATOM     31  C   UNL     1       5.241   3.441  13.050  0.00  0.00    +0.000 A 
ATOM     32  C   UNL     1       5.801   4.237  14.057  0.00  0.00    +0.000 A 
ENDBRANCH  23  24
ENDBRANCH   2  23
TORSDOF 7
ENDMDL
MODEL 2
REMARK VINA RESULT:      -8.7      0.884      1.362
REMARK  Name = 
REMARK  9 active torsions:
REMARK  status: ('A' for Active; 'I' for Inactive)
REMARK    1  A    between atoms: C_1  and  C_2
REMARK    2  A    between atoms: C_2  and  O_3
REMARK    3  A    between atoms: O_3  and  C_4
REMARK    4  A    between atoms: C_4  and  C_6
REMARK    5  A    between atoms: C_7  and  C_8
REMARK    6  A    between atoms: C_8  and  N_9
REMARK    7  A    between atoms: C_22  and  C_23
REMARK    8  A    between atoms: C_26  and  O_27
REMARK    9  A    between atoms: O_27  and  C_28
REMARK                            x       y       z     vdW  Elec       q    Type
REMARK                         _______ _______ _______ _____ _____    ______ ____
ROOT
ATOM      1  C   UNL     1       3.696   3.981  18.173  0.00  0.00    +0.000 C 
ATOM      2  C   UNL     1       4.848   4.060  17.469  0.00  0.00    +0.000 C 
ATOM      3  N   UNL     1       5.905   4.738  18.062  0.00  0.00    +0.000 N 
ATOM      4  C   UNL     1       5.957   5.102  19.378  0.00  0.00    +0.000 C 
ATOM      5  O   UNL     1       6.976   5.533  19.899  0.00  0.00    +0.000 OA
ATOM      6  N   UNL     1       4.798   4.944  20.081  0.00  0.00    +0.000 N 
ATOM      7  C   UNL     1       3.517   4.826  19.414  0.00  0.00    +0.000 C 
ATOM      8  H   UNL     1       6.799   4.820  17.590  0.00  0.00    +0.000 HD
ATOM      9  H   UNL     1       4.824   5.329  21.016  0.00  0.00    +0.000 HD
ENDROOT
BRANCH   7  10
ATOM     10  C   UNL     1       2.899   6.201  19.136  0.00  0.00    +0.000 A 
ATOM     11  C   UNL     1       3.063   6.861  17.905  0.00  0.00    +0.000 A 
ATOM     12  C   UNL     1       2.556   8.145  17.697  0.00  0.00    +0.000 A 
ATOM     13  C   UNL     1       1.837   8.793  18.697  0.00  0.00    +0.000 A 
ATOM     14  C   UNL     1       1.624   8.142  19.909  0.00  0.00    +0.000 A 
ATOM     15  C   UNL     1       2.153   6.861  20.127  0.00  0.00    +0.000 A 
BRANCH  13  16
ATOM     16  O   UNL     1       1.467  10.072  18.397  0.00  0.00    +0.000 OA
ATOM     17  C   UNL     1       0.089  10.381  18.553  0.00  0.00    +0.000 C 
ENDBRANCH  13  16
ENDBRANCH   7  10
BRANCH   1  18
ATOM     18  C   UNL     1       2.677   2.937  17.906  0.00  0.00    +0.000 C 
ATOM     19  O   UNL     1       2.935   1.745  17.800  0.00  0.00    +0.000 OA
BRANCH  18  20
ATOM     20  O   UNL     1       1.435   3.456  17.994  0.00  0.00    +0.000 OA
BRANCH  20  22
ATOM     21  C   UNL     1       0.682   3.201  20.251  0.00  0.00    +0.000 C 
ATOM     22  C   UNL     1       0.501   2.734  18.817  0.00  0.00    +0.000 C 
ENDBRANCH  20  22
ENDBRANCH  18  20
ENDBRANCH   1  18
BRANCH   2  23
ATOM     23  C   UNL     1       5.169   3.398  16.144  0.00  0.00    +0.000 C 
BRANCH  23  24
ATOM     24  N   UNL     1       6.040   4.214  15.308  0.00  0.00    +0.000 N 
ATOM     25  C   UNL     1       6.970   5.105  15.773  0.00  0.00    +0.000 A 
ATOM     26  N   UNL     1       7.725   5.577  14.809  0.00  0.00    +0.000 NA
ATOM     27  C   UNL     1       7.287   4.946  13.670  0.00  0.00    +0.000 A 
ATOM     28  C   UNL     1       7.782   5.028  12.360  0.00  0.00    +0.000 A 
ATOM     29  C   UNL     1       7.188   4.244  11.363  0.00  0.00    +0.000 A 
ATOM     30  C   UNL     1       6.103   3.419  11.659  0.00  0.00    +0.000 A 
ATOM     31  C   UNL     1       5.586   3.336  12.957  0.00  0.00    +0.000 A 
ATOM     32  C   UNL     1       6.213   4.100  13.948  0.00  0.00    +0.000 A 
ENDBRANCH  23  24
ENDBRANCH   2  23
TORSDOF 7
ENDMDL
MODEL 3
REMARK VINA RESULT:      -8.4      5.053      8.744
REMARK  Name = 
REMARK  9 active torsions:
REMARK  status: ('A' for Active; 'I' for Inactive)
REMARK    1  A    between atoms: C_1  and  C_2
REMARK    2  A    between atoms: C_2  and  O_3
REMARK    3  A    between atoms: O_3  and  C_4
REMARK    4  A    between atoms: C_4  and  C_6
REMARK    5  A    between atoms: C_7  and  C_8
REMARK    6  A    between atoms: C_8  and  N_9
REMARK    7  A    between atoms: C_22  and  C_23
REMARK    8  A    between atoms: C_26  and  O_27
REMARK    9  A    between atoms: O_27  and  C_28
REMARK                            x       y       z     vdW  Elec       q    Type
REMARK                         _______ _______ _______ _____ _____    ______ ____
ROOT
ATOM      1  C   UNL     1       0.402  12.250  19.013  0.00  0.00    +0.000 C 
ATOM      2  C   UNL     1       0.414  11.008  18.479  0.00  0.00    +0.000 C 
ATOM      3  N   UNL     1      -0.757  10.569  17.875  0.00  0.00    +0.000 N 
ATOM      4  C   UNL     1      -1.817  11.371  17.556  0.00  0.00    +0.000 C 
ATOM      5  O   UNL     1      -2.748  10.982  16.866  0.00  0.00    +0.000 OA
ATOM      6  N   UNL     1      -1.767  12.641  18.052  0.00  0.00    +0.000 N 
ATOM      7  C   UNL     1      -0.909  12.987  19.167  0.00  0.00    +0.000 C 
ATOM      8  H   UNL     1      -0.807   9.652  17.445  0.00  0.00    +0.000 HD
ATOM      9  H   UNL     1      -2.612  13.177  17.906  0.00  0.00    +0.000 HD
ENDROOT
BRANCH   7  10
ATOM     10  C   UNL     1      -1.602  12.730  20.510  0.00  0.00    +0.000 A 
ATOM     11  C   UNL     1      -0.936  12.136  21.596  0.00  0.00    +0.000 A 
ATOM     12  C   UNL     1      -1.605  11.842  22.786  0.00  0.00    +0.000 A 
ATOM     13  C   UNL     1      -2.949  12.167  22.941  0.00  0.00    +0.000 A 
ATOM     14  C   UNL     1      -3.619  12.796  21.896  0.00  0.00    +0.000 A 
ATOM     15  C   UNL     1      -2.953  13.071  20.691  0.00  0.00    +0.000 A 
BRANCH  13  16
ATOM     16  O   UNL     1      -3.504  11.754  24.118  0.00  0.00    +0.000 OA
ATOM     17  C   UNL     1      -4.606  12.514  24.594  0.00  0.00    +0.000 C 
ENDBRANCH  13  16
ENDBRANCH   7  10
BRANCH   1  18
ATOM     18  C   UNL     1       1.649  13.017  19.258  0.00  0.00    +0.000 C 
ATOM     19  O   UNL     1       2.247  13.019  20.326  0.00  0.00    +0.000 OA
BRANCH  18  20
ATOM     20  O   UNL     1       2.118  13.535  18.104  0.00  0.00    +0.000 OA
BRANCH  20  22
ATOM     21  C   UNL     1       3.402  15.490  17.595  0.00  0.00    +0.000 C 
ATOM     22  C   UNL     1       3.452  14.075  18.147  0.00  0.00    +0.000 C 
ENDBRANCH  20  22
ENDBRANCH  18  20
ENDBRANCH   1  18
BRANCH   2  23
ATOM     23  C   UNL     1       1.595  10.066  18.357  0.00  0.00    +0.000 C 
BRANCH  23  24
ATOM     24  N   UNL     1       1.599   9.039  19.392  0.00  0.00    +0.000 N 
ATOM     25  C   UNL     1       1.012   9.158  20.623  0.00  0.00    +0.000 A 
ATOM     26  N   UNL     1       1.027   8.026  21.287  0.00  0.00    +0.000 NA
ATOM     27  C   UNL     1       1.625   7.123  20.442  0.00  0.00    +0.000 A 
ATOM     28  C   UNL     1       1.841   5.748  20.617  0.00  0.00    +0.000 A 
ATOM     29  C   UNL     1       2.439   5.021  19.581  0.00  0.00    +0.000 A 
ATOM     30  C   UNL     1       2.841   5.657  18.406  0.00  0.00    +0.000 A 
ATOM     31  C   UNL     1       2.646   7.031  18.218  0.00  0.00    +0.000 A 
ATOM     32  C   UNL     1       2.016   7.736  19.252  0.00  0.00    +0.000 A 
ENDBRANCH  23  24
ENDBRANCH   2  23
TORSDOF 7
ENDMDL
MODEL 4
REMARK VINA RESULT:      -8.3      4.900      8.479
REMARK  Name = 
REMARK  9 active torsions:
REMARK  status: ('A' for Active; 'I' for Inactive)
REMARK    1  A    between atoms: C_1  and  C_2
REMARK    2  A    between atoms: C_2  and  O_3
REMARK    3  A    between atoms: O_3  and  C_4
REMARK    4  A    between atoms: C_4  and  C_6
REMARK    5  A    between atoms: C_7  and  C_8
REMARK    6  A    between atoms: C_8  and  N_9
REMARK    7  A    between atoms: C_22  and  C_23
REMARK    8  A    between atoms: C_26  and  O_27
REMARK    9  A    between atoms: O_27  and  C_28
REMARK                            x       y       z     vdW  Elec       q    Type
REMARK                         _______ _______ _______ _____ _____    ______ ____
ROOT
ATOM      1  C   UNL     1       0.478  12.034  18.727  0.00  0.00    +0.000 C 
ATOM      2  C   UNL     1       0.513  10.753  18.296  0.00  0.00    +0.000 C 
ATOM      3  N   UNL     1      -0.657  10.237  17.754  0.00  0.00    +0.000 N 
ATOM      4  C   UNL     1      -1.743  10.983  17.392  0.00  0.00    +0.000 C 
ATOM      5  O   UNL     1      -2.675  10.516  16.755  0.00  0.00    +0.000 OA
ATOM      6  N   UNL     1      -1.717  12.291  17.780  0.00  0.00    +0.000 N 
ATOM      7  C   UNL     1      -0.849  12.748  18.846  0.00  0.00    +0.000 C 
ATOM      8  H   UNL     1      -0.690   9.286  17.402  0.00  0.00    +0.000 HD
ATOM      9  H   UNL     1      -2.578  12.792  17.608  0.00  0.00    +0.000 HD
ENDROOT
BRANCH   7  10
ATOM     10  C   UNL     1      -1.511  12.587  20.219  0.00  0.00    +0.000 A 
ATOM     11  C   UNL     1      -0.904  11.868  21.264  0.00  0.00    +0.000 A 
ATOM     12  C   UNL     1      -1.557  11.669  22.482  0.00  0.00    +0.000 A 
ATOM     13  C   UNL     1      -2.817  12.212  22.708  0.00  0.00    +0.000 A 
ATOM     14  C   UNL     1      -3.420  12.965  21.704  0.00  0.00    +0.000 A 
ATOM     15  C   UNL     1      -2.775  13.146  20.471  0.00  0.00    +0.000 A 
BRANCH  13  16
ATOM     16  O   UNL     1      -3.378  11.877  23.906  0.00  0.00    +0.000 OA
ATOM     17  C   UNL     1      -4.501  12.645  24.313  0.00  0.00    +0.000 C 
ENDBRANCH  13  16
ENDBRANCH   7  10
BRANCH   1  18
ATOM     18  C   UNL     1       1.708  12.849  18.884  0.00  0.00    +0.000 C 
ATOM     19  O   UNL     1       2.143  13.596  18.018  0.00  0.00    +0.000 OA
BRANCH  18  20
ATOM     20  O   UNL     1       2.150  12.797  20.157  0.00  0.00    +0.000 OA
BRANCH  20  22
ATOM     21  C   UNL     1       1.431  14.663  21.472  0.00  0.00    +0.000 C 
ATOM     22  C   UNL     1       2.598  14.040  20.726  0.00  0.00    +0.000 C 
ENDBRANCH  20  22
ENDBRANCH  18  20
ENDBRANCH   1  18
BRANCH   2  23
ATOM     23  C   UNL     1       1.716   9.833  18.229  0.00  0.00    +0.000 C 
BRANCH  23  24
ATOM     24  N   UNL     1       1.709   8.827  19.284  0.00  0.00    +0.000 N 
ATOM     25  C   UNL     1       1.148   8.987  20.522  0.00  0.00    +0.000 A 
ATOM     26  N   UNL     1       1.142   7.868  21.209  0.00  0.00    +0.000 NA
ATOM     27  C   UNL     1       1.700   6.932  20.372  0.00  0.00    +0.000 A 
ATOM     28  C   UNL     1       1.881   5.555  20.571  0.00  0.00    +0.000 A 
ATOM     29  C   UNL     1       2.441   4.792  19.540  0.00  0.00    +0.000 A 
ATOM     30  C   UNL     1       2.840   5.393  18.346  0.00  0.00    +0.000 A 
ATOM     31  C   UNL     1       2.680   6.767  18.134  0.00  0.00    +0.000 A 
ATOM     32  C   UNL     1       2.088   7.510  19.163  0.00  0.00    +0.000 A 
ENDBRANCH  23  24
ENDBRANCH   2  23
TORSDOF 7
ENDMDL
MODEL 5
REMARK VINA RESULT:      -7.9      7.676     11.970
REMARK  Name = 
REMARK  9 active torsions:
REMARK  status: ('A' for Active; 'I' for Inactive)
REMARK    1  A    between atoms: C_1  and  C_2
REMARK    2  A    between atoms: C_2  and  O_3
REMARK    3  A    between atoms: O_3  and  C_4
REMARK    4  A    between atoms: C_4  and  C_6
REMARK    5  A    between atoms: C_7  and  C_8
REMARK    6  A    between atoms: C_8  and  N_9
REMARK    7  A    between atoms: C_22  and  C_23
REMARK    8  A    between atoms: C_26  and  O_27
REMARK    9  A    between atoms: O_27  and  C_28
REMARK                            x       y       z     vdW  Elec       q    Type
REMARK                         _______ _______ _______ _____ _____    ______ ____
ROOT
ATOM      1  C   UNL     1      -0.397  12.698  21.823  0.00  0.00    +0.000 C 
ATOM      2  C   UNL     1      -1.292  12.353  22.776  0.00  0.00    +0.000 C 
ATOM      3  N   UNL     1      -1.375  11.006  23.105  0.00  0.00    +0.000 N 
ATOM      4  C   UNL     1      -0.464  10.056  22.737  0.00  0.00    +0.000 C 
ATOM      5  O   UNL     1      -0.476   8.924  23.197  0.00  0.00    +0.000 OA
ATOM      6  N   UNL     1       0.471  10.456  21.827  0.00  0.00    +0.000 N 
ATOM      7  C   UNL     1       0.266  11.622  20.993  0.00  0.00    +0.000 C 
ATOM      8  H   UNL     1      -2.018  10.686  23.822  0.00  0.00    +0.000 HD
ATOM      9  H   UNL     1       1.057   9.709  21.480  0.00  0.00    +0.000 HD
ENDROOT
BRANCH   7  10
ATOM     10  C   UNL     1      -0.504  11.272  19.715  0.00  0.00    +0.000 A 
ATOM     11  C   UNL     1      -1.691  11.932  19.350  0.00  0.00    +0.000 A 
ATOM     12  C   UNL     1      -2.418  11.549  18.222  0.00  0.00    +0.000 A 
ATOM     13  C   UNL     1      -1.963  10.521  17.403  0.00  0.00    +0.000 A 
ATOM     14  C   UNL     1      -0.768   9.881  17.718  0.00  0.00    +0.000 A 
ATOM     15  C   UNL     1      -0.048  10.251  18.865  0.00  0.00    +0.000 A 
BRANCH  13  16
ATOM     16  O   UNL     1      -2.805  10.189  16.380  0.00  0.00    +0.000 OA
ATOM     17  C   UNL     1      -3.905  11.061  16.164  0.00  0.00    +0.000 C 
ENDBRANCH  13  16
ENDBRANCH   7  10
BRANCH   1  18
ATOM     18  C   UNL     1       0.132  14.079  21.699  0.00  0.00    +0.000 C 
ATOM     19  O   UNL     1       1.048  14.520  22.379  0.00  0.00    +0.000 OA
BRANCH  18  20
ATOM     20  O   UNL     1      -0.399  14.692  20.620  0.00  0.00    +0.000 OA
BRANCH  20  22
ATOM     21  C   UNL     1       1.045  14.474  18.723  0.00  0.00    +0.000 C 
ATOM     22  C   UNL     1       0.521  15.423  19.789  0.00  0.00    +0.000 C 
ENDBRANCH  20  22
ENDBRANCH  18  20
ENDBRANCH   1  18
BRANCH   2  23
ATOM     23  C   UNL     1      -2.148  13.277  23.618  0.00  0.00    +0.000 C 
BRANCH  23  24
ATOM     24  N   UNL     1      -3.563  12.928  23.568  0.00  0.00    +0.000 N 
ATOM     25  C   UNL     1      -4.301  12.472  24.627  0.00  0.00    +0.000 A 
ATOM     26  N   UNL     1      -5.579  12.396  24.341  0.00  0.00    +0.000 NA
ATOM     27  C   UNL     1      -5.684  12.847  23.047  0.00  0.00    +0.000 A 
ATOM     28  C   UNL     1      -6.830  13.038  22.260  0.00  0.00    +0.000 A 
ATOM     29  C   UNL     1      -6.683  13.557  20.969  0.00  0.00    +0.000 A 
ATOM     30  C   UNL     1      -5.418  13.853  20.460  0.00  0.00    +0.000 A 
ATOM     31  C   UNL     1      -4.262  13.656  21.225  0.00  0.00    +0.000 A 
ATOM     32  C   UNL     1      -4.430  13.167  22.527  0.00  0.00    +0.000 A 
ENDBRANCH  23  24
ENDBRANCH   2  23
TORSDOF 7
ENDMDL
MODEL 6
REMARK VINA RESULT:      -7.9      7.555     11.223
REMARK  Name = 
REMARK  9 active torsions:
REMARK  status: ('A' for Active; 'I' for Inactive)
REMARK    1  A    between atoms: C_1  and  C_2
REMARK    2  A    between atoms: C_2  and  O_3
REMARK    3  A    between atoms: O_3  and  C_4
REMARK    4  A    between atoms: C_4  and  C_6
REMARK    5  A    between atoms: C_7  and  C_8
REMARK    6  A    between atoms: C_8  and  N_9
REMARK    7  A    between atoms: C_22  and  C_23
REMARK    8  A    between atoms: C_26  and  O_27
REMARK    9  A    between atoms: O_27  and  C_28
REMARK                            x       y       z     vdW  Elec       q    Type
REMARK                         _______ _______ _______ _____ _____    ______ ____
ROOT
ATOM      1  C   UNL     1      -2.514  13.690  21.694  0.00  0.00    +0.000 C 
ATOM      2  C   UNL     1      -3.775  13.277  21.431  0.00  0.00    +0.000 C 
ATOM      3  N   UNL     1      -4.409  12.525  22.411  0.00  0.00    +0.000 N 
ATOM      4  C   UNL     1      -3.968  12.390  23.697  0.00  0.00    +0.000 C 
ATOM      5  O   UNL     1      -4.647  11.871  24.572  0.00  0.00    +0.000 OA
ATOM      6  N   UNL     1      -2.720  12.880  23.948  0.00  0.00    +0.000 N 
ATOM      7  C   UNL     1      -1.771  13.120  22.881  0.00  0.00    +0.000 C 
ATOM      8  H   UNL     1      -5.360  12.197  22.278  0.00  0.00    +0.000 HD
ATOM      9  H   UNL     1      -2.367  12.664  24.871  0.00  0.00    +0.000 HD
ENDROOT
BRANCH   7  10
ATOM     10  C   UNL     1      -0.965  11.858  22.550  0.00  0.00    +0.000 A 
ATOM     11  C   UNL     1      -1.116  10.662  23.273  0.00  0.00    +0.000 A 
ATOM     12  C   UNL     1      -0.320   9.547  23.006  0.00  0.00    +0.000 A 
ATOM     13  C   UNL     1       0.624   9.579  21.985  0.00  0.00    +0.000 A 
ATOM     14  C   UNL     1       0.762  10.738  21.226  0.00  0.00    +0.000 A 
ATOM     15  C   UNL     1      -0.022  11.867  21.509  0.00  0.00    +0.000 A 
BRANCH  13  16
ATOM     16  O   UNL     1       1.392   8.455  21.879  0.00  0.00    +0.000 OA
ATOM     17  C   UNL     1       1.612   7.964  20.565  0.00  0.00    +0.000 C 
ENDBRANCH  13  16
ENDBRANCH   7  10
BRANCH   1  18
ATOM     18  C   UNL     1      -1.899  14.846  20.995  0.00  0.00    +0.000 C 
ATOM     19  O   UNL     1      -1.870  15.980  21.452  0.00  0.00    +0.000 OA
BRANCH  18  20
ATOM     20  O   UNL     1      -1.222  14.431  19.904  0.00  0.00    +0.000 OA
BRANCH  20  22
ATOM     21  C   UNL     1       0.848  14.202  18.725  0.00  0.00    +0.000 C 
ATOM     22  C   UNL     1       0.029  15.093  19.644  0.00  0.00    +0.000 C 
ENDBRANCH  20  22
ENDBRANCH  18  20
ENDBRANCH   1  18
BRANCH   2  23
ATOM     23  C   UNL     1      -4.632  13.630  20.232  0.00  0.00    +0.000 C 
BRANCH  23  24
ATOM     24  N   UNL     1      -4.833  12.498  19.337  0.00  0.00    +0.000 N 
ATOM     25  C   UNL     1      -6.042  12.093  18.838  0.00  0.00    +0.000 A 
ATOM     26  N   UNL     1      -5.911  11.154  17.930  0.00  0.00    +0.000 NA
ATOM     27  C   UNL     1      -4.556  10.957  17.812  0.00  0.00    +0.000 A 
ATOM     28  C   UNL     1      -3.851  10.114  16.939  0.00  0.00    +0.000 A 
ATOM     29  C   UNL     1      -2.452  10.121  16.978  0.00  0.00    +0.000 A 
ATOM     30  C   UNL     1      -1.769  10.928  17.888  0.00  0.00    +0.000 A 
ATOM     31  C   UNL     1      -2.455  11.765  18.775  0.00  0.00    +0.000 A 
ATOM     32  C   UNL     1      -3.853  11.771  18.700  0.00  0.00    +0.000 A 
ENDBRANCH  23  24
ENDBRANCH   2  23
TORSDOF 7
ENDMDL
MODEL 7
REMARK VINA RESULT:      -7.9      4.926      8.647
REMARK  Name = 
REMARK  9 active torsions:
REMARK  status: ('A' for Active; 'I' for Inactive)
REMARK    1  A    between atoms: C_1  and  C_2
REMARK    2  A    between atoms: C_2  and  O_3
REMARK    3  A    between atoms: O_3  and  C_4
REMARK    4  A    between atoms: C_4  and  C_6
REMARK    5  A    between atoms: C_7  and  C_8
REMARK    6  A    between atoms: C_8  and  N_9
REMARK    7  A    between atoms: C_22  and  C_23
REMARK    8  A    between atoms: C_26  and  O_27
REMARK    9  A    between atoms: O_27  and  C_28
REMARK                            x       y       z     vdW  Elec       q    Type
REMARK                         _______ _______ _______ _____ _____    ______ ____
ROOT
ATOM      1  C   UNL     1      -0.536  11.941  19.812  0.00  0.00    +0.000 C 
ATOM      2  C   UNL     1      -0.383  10.624  19.543  0.00  0.00    +0.000 C 
ATOM      3  N   UNL     1      -1.185  10.086  18.545  0.00  0.00    +0.000 N 
ATOM      4  C   UNL     1      -1.917  10.820  17.654  0.00  0.00    +0.000 C 
ATOM      5  O   UNL     1      -2.462  10.317  16.682  0.00  0.00    +0.000 OA
ATOM      6  N   UNL     1      -1.993  12.158  17.912  0.00  0.00    +0.000 N 
ATOM      7  C   UNL     1      -1.710  12.693  19.228  0.00  0.00    +0.000 C 
ATOM      8  H   UNL     1      -1.108   9.108  18.288  0.00  0.00    +0.000 HD
ATOM      9  H   UNL     1      -2.634  12.660  17.312  0.00  0.00    +0.000 HD
ENDROOT
BRANCH   7  10
ATOM     10  C   UNL     1      -2.954  12.676  20.122  0.00  0.00    +0.000 A 
ATOM     11  C   UNL     1      -2.877  12.833  21.518  0.00  0.00    +0.000 A 
ATOM     12  C   UNL     1      -4.014  12.740  22.323  0.00  0.00    +0.000 A 
ATOM     13  C   UNL     1      -5.266  12.526  21.757  0.00  0.00    +0.000 A 
ATOM     14  C   UNL     1      -5.375  12.411  20.374  0.00  0.00    +0.000 A 
ATOM     15  C   UNL     1      -4.229  12.482  19.566  0.00  0.00    +0.000 A 
BRANCH  13  16
ATOM     16  O   UNL     1      -6.282  12.374  22.657  0.00  0.00    +0.000 OA
ATOM     17  C   UNL     1      -6.384  13.370  23.664  0.00  0.00    +0.000 C 
ENDBRANCH  13  16
ENDBRANCH   7  10
BRANCH   1  18
ATOM     18  C   UNL     1       0.522  12.738  20.481  0.00  0.00    +0.000 C 
ATOM     19  O   UNL     1       0.939  12.505  21.607  0.00  0.00    +0.000 OA
BRANCH  18  20
ATOM     20  O   UNL     1       1.079  13.606  19.611  0.00  0.00    +0.000 OA
BRANCH  20  22
ATOM     21  C   UNL     1       2.814  14.316  18.122  0.00  0.00    +0.000 C 
ATOM     22  C   UNL     1       2.268  13.155  18.937  0.00  0.00    +0.000 C 
ENDBRANCH  20  22
ENDBRANCH  18  20
ENDBRANCH   1  18
BRANCH   2  23
ATOM     23  C   UNL     1       0.644   9.674  20.127  0.00  0.00    +0.000 C 
BRANCH  23  24
ATOM     24  N   UNL     1       1.427   8.998  19.100  0.00  0.00    +0.000 N 
ATOM     25  C   UNL     1       1.859   9.571  17.934  0.00  0.00    +0.000 A 
ATOM     26  N   UNL     1       2.680   8.787  17.275  0.00  0.00    +0.000 NA
ATOM     27  C   UNL     1       2.810   7.665  18.058  0.00  0.00    +0.000 A 
ATOM     28  C   UNL     1       3.617   6.534  17.867  0.00  0.00    +0.000 A 
ATOM     29  C   UNL     1       3.611   5.528  18.840  0.00  0.00    +0.000 A 
ATOM     30  C   UNL     1       2.795   5.632  19.966  0.00  0.00    +0.000 A 
ATOM     31  C   UNL     1       1.972   6.747  20.168  0.00  0.00    +0.000 A 
ATOM     32  C   UNL     1       2.016   7.759  19.201  0.00  0.00    +0.000 A 
ENDBRANCH  23  24
ENDBRANCH   2  23
TORSDOF 7
ENDMDL
MODEL 8
REMARK VINA RESULT:      -7.9      7.601     11.852
REMARK  Name = 
REMARK  9 active torsions:
REMARK  status: ('A' for Active; 'I' for Inactive)
REMARK    1  A    between atoms: C_1  and  C_2
REMARK    2  A    between atoms: C_2  and  O_3
REMARK    3  A    between atoms: O_3  and  C_4
REMARK    4  A    between atoms: C_4  and  C_6
REMARK    5  A    between atoms: C_7  and  C_8
REMARK    6  A    between atoms: C_8  and  N_9
REMARK    7  A    between atoms: C_22  and  C_23
REMARK    8  A    between atoms: C_26  and  O_27
REMARK    9  A    between atoms: O_27  and  C_28
REMARK                            x       y       z     vdW  Elec       q    Type
REMARK                         _______ _______ _______ _____ _____    ______ ____
ROOT
ATOM      1  C   UNL     1      -0.361  12.697  21.702  0.00  0.00    +0.000 C 
ATOM      2  C   UNL     1      -1.224  12.362  22.687  0.00  0.00    +0.000 C 
ATOM      3  N   UNL     1      -1.258  11.027  23.070  0.00  0.00    +0.000 N 
ATOM      4  C   UNL     1      -0.326  10.092  22.719  0.00  0.00    +0.000 C 
ATOM      5  O   UNL     1      -0.293   8.979  23.222  0.00  0.00    +0.000 OA
ATOM      6  N   UNL     1       0.576  10.484  21.773  0.00  0.00    +0.000 N 
ATOM      7  C   UNL     1       0.318  11.610  20.899  0.00  0.00    +0.000 C 
ATOM      8  H   UNL     1      -1.876  10.716  23.813  0.00  0.00    +0.000 HD
ATOM      9  H   UNL     1       1.179   9.742  21.442  0.00  0.00    +0.000 HD
ENDROOT
BRANCH   7  10
ATOM     10  C   UNL     1      -0.468  11.186  19.653  0.00  0.00    +0.000 A 
ATOM     11  C   UNL     1      -0.126  10.048  18.902  0.00  0.00    +0.000 A 
ATOM     12  C   UNL     1      -0.807   9.721  17.728  0.00  0.00    +0.000 A 
ATOM     13  C   UNL     1      -1.873  10.498  17.289  0.00  0.00    +0.000 A 
ATOM     14  C   UNL     1      -2.259  11.606  18.038  0.00  0.00    +0.000 A 
ATOM     15  C   UNL     1      -1.560  11.948  19.206  0.00  0.00    +0.000 A 
BRANCH  13  16
ATOM     16  O   UNL     1      -2.400  10.119  16.088  0.00  0.00    +0.000 OA
ATOM     17  C   UNL     1      -3.411  10.959  15.550  0.00  0.00    +0.000 C 
ENDBRANCH  13  16
ENDBRANCH   7  10
BRANCH   1  18
ATOM     18  C   UNL     1       0.121  14.087  21.512  0.00  0.00    +0.000 C 
ATOM     19  O   UNL     1      -0.515  14.953  20.927  0.00  0.00    +0.000 OA
BRANCH  18  20
ATOM     20  O   UNL     1       1.241  14.301  22.233  0.00  0.00    +0.000 OA
BRANCH  20  22
ATOM     21  C   UNL     1       3.357  14.059  21.141  0.00  0.00    +0.000 C 
ATOM     22  C   UNL     1       2.286  15.043  21.579  0.00  0.00    +0.000 C 
ENDBRANCH  20  22
ENDBRANCH  18  20
ENDBRANCH   1  18
BRANCH   2  23
ATOM     23  C   UNL     1      -2.092  13.292  23.511  0.00  0.00    +0.000 C 
BRANCH  23  24
ATOM     24  N   UNL     1      -3.502  12.923  23.471  0.00  0.00    +0.000 N 
ATOM     25  C   UNL     1      -4.249  12.547  24.555  0.00  0.00    +0.000 A 
ATOM     26  N   UNL     1      -5.523  12.432  24.259  0.00  0.00    +0.000 NA
ATOM     27  C   UNL     1      -5.614  12.775  22.931  0.00  0.00    +0.000 A 
ATOM     28  C   UNL     1      -6.750  12.886  22.116  0.00  0.00    +0.000 A 
ATOM     29  C   UNL     1      -6.591  13.300  20.789  0.00  0.00    +0.000 A 
ATOM     30  C   UNL     1      -5.322  13.568  20.274  0.00  0.00    +0.000 A 
ATOM     31  C   UNL     1      -4.175  13.449  21.068  0.00  0.00    +0.000 A 
ATOM     32  C   UNL     1      -4.356  13.066  22.403  0.00  0.00    +0.000 A 
ENDBRANCH  23  24
ENDBRANCH   2  23
TORSDOF 7
ENDMDL
MODEL 9
REMARK VINA RESULT:      -7.8      7.823     12.217
REMARK  Name = 
REMARK  9 active torsions:
REMARK  status: ('A' for Active; 'I' for Inactive)
REMARK    1  A    between atoms: C_1  and  C_2
REMARK    2  A    between atoms: C_2  and  O_3
REMARK    3  A    between atoms: O_3  and  C_4
REMARK    4  A    between atoms: C_4  and  C_6
REMARK    5  A    between atoms: C_7  and  C_8
REMARK    6  A    between atoms: C_8  and  N_9
REMARK    7  A    between atoms: C_22  and  C_23
REMARK    8  A    between atoms: C_26  and  O_27
REMARK    9  A    between atoms: O_27  and  C_28
REMARK                            x       y       z     vdW  Elec       q    Type
REMARK                         _______ _______ _______ _____ _____    ______ ____
ROOT
ATOM      1  C   UNL     1      -0.648  12.916  21.735  0.00  0.00    +0.000 C 
ATOM      2  C   UNL     1      -1.460  12.523  22.743  0.00  0.00    +0.000 C 
ATOM      3  N   UNL     1      -1.397  11.187  23.120  0.00  0.00    +0.000 N 
ATOM      4  C   UNL     1      -0.417  10.315  22.737  0.00  0.00    +0.000 C 
ATOM      5  O   UNL     1      -0.299   9.204  23.234  0.00  0.00    +0.000 OA
ATOM      6  N   UNL     1       0.431  10.767  21.768  0.00  0.00    +0.000 N 
ATOM      7  C   UNL     1       0.076  11.877  20.908  0.00  0.00    +0.000 C 
ATOM      8  H   UNL     1      -1.972  10.835  23.878  0.00  0.00    +0.000 HD
ATOM      9  H   UNL     1       1.070  10.067  21.417  0.00  0.00    +0.000 HD
ENDROOT
BRANCH   7  10
ATOM     10  C   UNL     1      -0.717  11.409  19.683  0.00  0.00    +0.000 A 
ATOM     11  C   UNL     1      -1.950  11.981  19.324  0.00  0.00    +0.000 A 
ATOM     12  C   UNL     1      -2.692  11.490  18.248  0.00  0.00    +0.000 A 
ATOM     13  C   UNL     1      -2.208  10.439  17.475  0.00  0.00    +0.000 A 
ATOM     14  C   UNL     1      -0.970   9.885  17.783  0.00  0.00    +0.000 A 
ATOM     15  C   UNL     1      -0.233  10.363  18.879  0.00  0.00    +0.000 A 
BRANCH  13  16
ATOM     16  O   UNL     1      -3.065  10.001  16.506  0.00  0.00    +0.000 OA
ATOM     17  C   UNL     1      -3.020  10.693  15.267  0.00  0.00    +0.000 C 
ENDBRANCH  13  16
ENDBRANCH   7  10
BRANCH   1  18
ATOM     18  C   UNL     1      -0.262  14.335  21.539  0.00  0.00    +0.000 C 
ATOM     19  O   UNL     1      -0.779  15.072  20.711  0.00  0.00    +0.000 OA
BRANCH  18  20
ATOM     20  O   UNL     1       0.579  14.734  22.516  0.00  0.00    +0.000 OA
BRANCH  20  22
ATOM     21  C   UNL     1      -0.200  16.439  24.004  0.00  0.00    +0.000 C 
ATOM     22  C   UNL     1       0.634  16.150  22.768  0.00  0.00    +0.000 C 
ENDBRANCH  20  22
ENDBRANCH  18  20
ENDBRANCH   1  18
BRANCH   2  23
ATOM     23  C   UNL     1      -2.361  13.392  23.596  0.00  0.00    +0.000 C 
BRANCH  23  24
ATOM     24  N   UNL     1      -3.753  12.962  23.558  0.00  0.00    +0.000 N 
ATOM     25  C   UNL     1      -4.449  12.447  24.619  0.00  0.00    +0.000 A 
ATOM     26  N   UNL     1      -5.724  12.301  24.347  0.00  0.00    +0.000 NA
ATOM     27  C   UNL     1      -5.872  12.764  23.062  0.00  0.00    +0.000 A 
ATOM     28  C   UNL     1      -7.037  12.898  22.292  0.00  0.00    +0.000 A 
ATOM     29  C   UNL     1      -6.938  13.444  21.007  0.00  0.00    +0.000 A 
ATOM     30  C   UNL     1      -5.699  13.821  20.487  0.00  0.00    +0.000 A 
ATOM     31  C   UNL     1      -4.524  13.682  21.235  0.00  0.00    +0.000 A 
ATOM     32  C   UNL     1      -4.646  13.165  22.531  0.00  0.00    +0.000 A 
ENDBRANCH  23  24
ENDBRANCH   2  23
TORSDOF 7
ENDMDL
