MODEL 1
REMARK VINA RESULT:      -8.2      0.000      0.000
REMARK  Name = 
REMARK  3 active torsions:
REMARK  status: ('A' for Active; 'I' for Inactive)
REMARK    1  A    between atoms: C_2  and  C_19
REMARK    2  A    between atoms: N_3  and  C_4
REMARK    3  A    between atoms: C_8  and  C_9
REMARK                            x       y       z     vdW  Elec       q    Type
REMARK                         _______ _______ _______ _____ _____    ______ ____
ROOT
ATOM      1  C   UNL     1       4.342   4.815  17.575  0.00  0.00    +0.000 A 
ATOM      2  C   UNL     1       4.312   3.766  18.487  0.00  0.00    +0.000 A 
ATOM      3  C   UNL     1       3.611   3.886  19.689  0.00  0.00    +0.000 A 
ATOM      4  C   UNL     1       2.923   5.059  19.992  0.00  0.00    +0.000 A 
ATOM      5  C   UNL     1       2.943   6.142  19.097  0.00  0.00    +0.000 A 
ATOM      6  C   UNL     1       3.685   6.006  17.905  0.00  0.00    +0.000 A 
ENDROOT
BRANCH   5   7
ATOM      7  C   UNL     1       2.221   7.411  19.329  0.00  0.00    +0.000 A 
ATOM      8  N   UNL     1       1.693   7.721  20.497  0.00  0.00    +0.000 NA
ATOM      9  C   UNL     1       1.057   8.943  20.439  0.00  0.00    +0.000 A 
ATOM     10  C   UNL     1       0.368   9.554  21.503  0.00  0.00    +0.000 A 
ATOM     11  C   UNL     1      -0.262  10.785  21.305  0.00  0.00    +0.000 A 
ATOM     12  C   UNL     1      -0.195  11.416  20.066  0.00  0.00    +0.000 A 
ATOM     13  C   UNL     1       0.501  10.837  18.999  0.00  0.00    +0.000 A 
ATOM     14  C   UNL     1       1.117   9.593  19.207  0.00  0.00    +0.000 A 
ATOM     15  S   UNL     1       2.019   8.616  18.114  0.00  0.00    +0.000 S 
ENDBRANCH   5   7
BRANCH   1  18
ATOM     16  O   UNL     1       7.073   5.635  16.858  0.00  0.00    +0.000 OA
ATOM     17  C   UNL     1       6.284   5.149  16.055  0.00  0.00    +0.000 C 
ATOM     18  N   UNL     1       4.988   4.748  16.322  0.00  0.00    +0.000 N 
ATOM     19  H   UNL     1       4.518   4.248  15.571  0.00  0.00    +0.000 HD
BRANCH  17  20
ATOM     20  C   UNL     1       6.709   4.845  14.642  0.00  0.00    +0.000 C 
ATOM     21  C   UNL     1       5.973   3.950  13.975  0.00  0.00    +0.000 C 
ATOM     22  O   UNL     1       6.145   3.562  12.683  0.00  0.00    +0.000 OA
ATOM     23  C   UNL     1       7.257   4.144  12.019  0.00  0.00    +0.000 C 
ATOM     24  C   UNL     1       7.978   5.309  12.706  0.00  0.00    +0.000 C 
ATOM     25  O   UNL     1       7.791   5.503  14.106  0.00  0.00    +0.000 OA
ENDBRANCH  17  20
ENDBRANCH   1  18
TORSDOF 3
ENDMDL
MODEL 2
REMARK VINA RESULT:      -8.0      0.844      1.310
REMARK  Name = 
REMARK  3 active torsions:
REMARK  status: ('A' for Active; 'I' for Inactive)
REMARK    1  A    between atoms: C_2  and  C_19
REMARK    2  A    between atoms: N_3  and  C_4
REMARK    3  A    between atoms: C_8  and  C_9
REMARK                            x       y       z     vdW  Elec       q    Type
REMARK                         _______ _______ _______ _____ _____    ______ ____
ROOT
ATOM      1  C   UNL     1       4.501   4.783  17.539  0.00  0.00    +0.000 A 
ATOM      2  C   UNL     1       4.518   3.715  18.428  0.00  0.00    +0.000 A 
ATOM      3  C   UNL     1       3.828   3.784  19.641  0.00  0.00    +0.000 A 
ATOM      4  C   UNL     1       3.104   4.926  19.977  0.00  0.00    +0.000 A 
ATOM      5  C   UNL     1       3.076   6.028  19.106  0.00  0.00    +0.000 A 
ATOM      6  C   UNL     1       3.806   5.943  17.902  0.00  0.00    +0.000 A 
ENDROOT
BRANCH   5   7
ATOM      7  C   UNL     1       2.313   7.265  19.374  0.00  0.00    +0.000 A 
ATOM      8  N   UNL     1       2.134   8.199  18.460  0.00  0.00    +0.000 NA
ATOM      9  C   UNL     1       1.412   9.256  18.973  0.00  0.00    +0.000 A 
ATOM     10  C   UNL     1       1.072  10.427  18.270  0.00  0.00    +0.000 A 
ATOM     11  C   UNL     1       0.359  11.440  18.916  0.00  0.00    +0.000 A 
ATOM     12  C   UNL     1      -0.028  11.289  20.245  0.00  0.00    +0.000 A 
ATOM     13  C   UNL     1       0.283  10.126  20.958  0.00  0.00    +0.000 A 
ATOM     14  C   UNL     1       1.011   9.120  20.301  0.00  0.00    +0.000 A 
ATOM     15  S   UNL     1       1.564   7.601  20.890  0.00  0.00    +0.000 S 
ENDBRANCH   5   7
BRANCH   1  18
ATOM     16  O   UNL     1       7.366   4.960  16.906  0.00  0.00    +0.000 OA
ATOM     17  C   UNL     1       6.494   4.848  16.051  0.00  0.00    +0.000 C 
ATOM     18  N   UNL     1       5.132   4.766  16.277  0.00  0.00    +0.000 N 
ATOM     19  H   UNL     1       4.563   4.547  15.464  0.00  0.00    +0.000 HD
BRANCH  17  20
ATOM     20  C   UNL     1       6.854   4.692  14.596  0.00  0.00    +0.000 C 
ATOM     21  C   UNL     1       6.157   3.787  13.901  0.00  0.00    +0.000 C 
ATOM     22  O   UNL     1       6.280   3.515  12.574  0.00  0.00    +0.000 OA
ATOM     23  C   UNL     1       7.293   4.245  11.898  0.00  0.00    +0.000 C 
ATOM     24  C   UNL     1       7.953   5.416  12.636  0.00  0.00    +0.000 C 
ATOM     25  O   UNL     1       7.838   5.485  14.056  0.00  0.00    +0.000 OA
ENDBRANCH  17  20
ENDBRANCH   1  18
TORSDOF 3
ENDMDL
MODEL 3
REMARK VINA RESULT:      -7.8      1.354      1.948
REMARK  Name = 
REMARK  3 active torsions:
REMARK  status: ('A' for Active; 'I' for Inactive)
REMARK    1  A    between atoms: C_2  and  C_19
REMARK    2  A    between atoms: N_3  and  C_4
REMARK    3  A    between atoms: C_8  and  C_9
REMARK                            x       y       z     vdW  Elec       q    Type
REMARK                         _______ _______ _______ _____ _____    ______ ____
ROOT
ATOM      1  C   UNL     1       3.323   5.104  18.774  0.00  0.00    +0.000 A 
ATOM      2  C   UNL     1       3.019   3.971  19.519  0.00  0.00    +0.000 A 
ATOM      3  C   UNL     1       2.173   4.052  20.628  0.00  0.00    +0.000 A 
ATOM      4  C   UNL     1       1.614   5.272  21.002  0.00  0.00    +0.000 A 
ATOM      5  C   UNL     1       1.911   6.439  20.277  0.00  0.00    +0.000 A 
ATOM      6  C   UNL     1       2.793   6.334  19.181  0.00  0.00    +0.000 A 
ENDROOT
BRANCH   5   7
ATOM      7  C   UNL     1       1.342   7.766  20.591  0.00  0.00    +0.000 A 
ATOM      8  N   UNL     1       0.780   8.038  21.753  0.00  0.00    +0.000 NA
ATOM      9  C   UNL     1       0.310   9.334  21.780  0.00  0.00    +0.000 A 
ATOM     10  C   UNL     1      -0.367   9.933  22.858  0.00  0.00    +0.000 A 
ATOM     11  C   UNL     1      -0.820  11.250  22.747  0.00  0.00    +0.000 A 
ATOM     12  C   UNL     1      -0.591  11.975  21.580  0.00  0.00    +0.000 A 
ATOM     13  C   UNL     1       0.096  11.406  20.502  0.00  0.00    +0.000 A 
ATOM     14  C   UNL     1       0.534  10.077  20.622  0.00  0.00    +0.000 A 
ATOM     15  S   UNL     1       1.376   9.091  19.490  0.00  0.00    +0.000 S 
ENDBRANCH   5   7
BRANCH   1  18
ATOM     16  O   UNL     1       6.153   4.355  18.501  0.00  0.00    +0.000 OA
ATOM     17  C   UNL     1       5.460   4.718  17.558  0.00  0.00    +0.000 C 
ATOM     18  N   UNL     1       4.129   5.090  17.615  0.00  0.00    +0.000 N 
ATOM     19  H   UNL     1       3.675   5.240  16.718  0.00  0.00    +0.000 HD
BRANCH  17  20
ATOM     20  C   UNL     1       6.002   4.709  16.152  0.00  0.00    +0.000 C 
ATOM     21  C   UNL     1       7.151   5.363  15.948  0.00  0.00    +0.000 C 
ATOM     22  O   UNL     1       7.840   5.444  14.779  0.00  0.00    +0.000 OA
ATOM     23  C   UNL     1       7.227   4.804  13.670  0.00  0.00    +0.000 C 
ATOM     24  C   UNL     1       6.024   3.892  13.937  0.00  0.00    +0.000 C 
ATOM     25  O   UNL     1       5.324   4.023  15.173  0.00  0.00    +0.000 OA
ENDBRANCH  17  20
ENDBRANCH   1  18
TORSDOF 3
ENDMDL
MODEL 4
REMARK VINA RESULT:      -7.7      0.687      1.125
REMARK  Name = 
REMARK  3 active torsions:
REMARK  status: ('A' for Active; 'I' for Inactive)
REMARK    1  A    between atoms: C_2  and  C_19
REMARK    2  A    between atoms: N_3  and  C_4
REMARK    3  A    between atoms: C_8  and  C_9
REMARK                            x       y       z     vdW  Elec       q    Type
REMARK                         _______ _______ _______ _____ _____    ______ ____
ROOT
ATOM      1  C   UNL     1       4.214   4.613  17.549  0.00  0.00    +0.000 A 
ATOM      2  C   UNL     1       4.180   3.493  18.371  0.00  0.00    +0.000 A 
ATOM      3  C   UNL     1       3.513   3.527  19.598  0.00  0.00    +0.000 A 
ATOM      4  C   UNL     1       2.865   4.687  20.017  0.00  0.00    +0.000 A 
ATOM      5  C   UNL     1       2.891   5.841  19.215  0.00  0.00    +0.000 A 
ATOM      6  C   UNL     1       3.597   5.788  17.995  0.00  0.00    +0.000 A 
ENDROOT
BRANCH   5   7
ATOM      7  C   UNL     1       2.209   7.103  19.573  0.00  0.00    +0.000 A 
ATOM      8  N   UNL     1       1.686   7.311  20.766  0.00  0.00    +0.000 NA
ATOM      9  C   UNL     1       1.091   8.553  20.831  0.00  0.00    +0.000 A 
ATOM     10  C   UNL     1       0.416   9.076  21.950  0.00  0.00    +0.000 A 
ATOM     11  C   UNL     1      -0.172  10.341  21.876  0.00  0.00    +0.000 A 
ATOM     12  C   UNL     1      -0.080  11.090  20.707  0.00  0.00    +0.000 A 
ATOM     13  C   UNL     1       0.601  10.599  19.588  0.00  0.00    +0.000 A 
ATOM     14  C   UNL     1       1.176   9.320  19.670  0.00  0.00    +0.000 A 
ATOM     15  S   UNL     1       2.051   8.430  18.485  0.00  0.00    +0.000 S 
ENDBRANCH   5   7
BRANCH   1  18
ATOM     16  O   UNL     1       7.067   4.427  16.866  0.00  0.00    +0.000 OA
ATOM     17  C   UNL     1       6.181   4.538  16.027  0.00  0.00    +0.000 C 
ATOM     18  N   UNL     1       4.824   4.637  16.276  0.00  0.00    +0.000 N 
ATOM     19  H   UNL     1       4.222   4.594  15.459  0.00  0.00    +0.000 HD
BRANCH  17  20
ATOM     20  C   UNL     1       6.500   4.486  14.555  0.00  0.00    +0.000 C 
ATOM     21  C   UNL     1       7.453   5.317  14.119  0.00  0.00    +0.000 C 
ATOM     22  O   UNL     1       7.931   5.405  12.848  0.00  0.00    +0.000 OA
ATOM     23  C   UNL     1       7.300   4.554  11.904  0.00  0.00    +0.000 C 
ATOM     24  C   UNL     1       6.355   3.466  12.430  0.00  0.00    +0.000 C 
ATOM     25  O   UNL     1       5.834   3.591  13.752  0.00  0.00    +0.000 OA
ENDBRANCH  17  20
ENDBRANCH   1  18
TORSDOF 3
ENDMDL
MODEL 5
REMARK VINA RESULT:      -7.5      3.349      8.541
REMARK  Name = 
REMARK  3 active torsions:
REMARK  status: ('A' for Active; 'I' for Inactive)
REMARK    1  A    between atoms: C_2  and  C_19
REMARK    2  A    between atoms: N_3  and  C_4
REMARK    3  A    between atoms: C_8  and  C_9
REMARK                            x       y       z     vdW  Elec       q    Type
REMARK                         _______ _______ _______ _____ _____    ______ ____
ROOT
ATOM      1  C   UNL     1       2.144   5.411  20.650  0.00  0.00    +0.000 A 
ATOM      2  C   UNL     1       1.963   4.197  21.301  0.00  0.00    +0.000 A 
ATOM      3  C   UNL     1       2.602   3.041  20.846  0.00  0.00    +0.000 A 
ATOM      4  C   UNL     1       3.438   3.088  19.732  0.00  0.00    +0.000 A 
ATOM      5  C   UNL     1       3.632   4.297  19.044  0.00  0.00    +0.000 A 
ATOM      6  C   UNL     1       2.950   5.442  19.506  0.00  0.00    +0.000 A 
ENDROOT
BRANCH   5   7
ATOM      7  C   UNL     1       4.520   4.439  17.871  0.00  0.00    +0.000 A 
ATOM      8  N   UNL     1       4.198   3.973  16.680  0.00  0.00    +0.000 NA
ATOM      9  C   UNL     1       5.206   4.214  15.770  0.00  0.00    +0.000 A 
ATOM     10  C   UNL     1       5.195   3.821  14.419  0.00  0.00    +0.000 A 
ATOM     11  C   UNL     1       6.297   4.101  13.606  0.00  0.00    +0.000 A 
ATOM     12  C   UNL     1       7.396   4.779  14.125  0.00  0.00    +0.000 A 
ATOM     13  C   UNL     1       7.422   5.195  15.460  0.00  0.00    +0.000 A 
ATOM     14  C   UNL     1       6.314   4.896  16.269  0.00  0.00    +0.000 A 
ATOM     15  S   UNL     1       6.043   5.243  17.933  0.00  0.00    +0.000 S 
ENDBRANCH   5   7
BRANCH   1  18
ATOM     16  O   UNL     1       2.131   8.025  19.305  0.00  0.00    +0.000 OA
ATOM     17  C   UNL     1       1.599   7.826  20.391  0.00  0.00    +0.000 C 
ATOM     18  N   UNL     1       1.571   6.627  21.081  0.00  0.00    +0.000 N 
ATOM     19  H   UNL     1       0.977   6.607  21.905  0.00  0.00    +0.000 HD
BRANCH  17  20
ATOM     20  C   UNL     1       0.802   8.909  21.072  0.00  0.00    +0.000 C 
ATOM     21  C   UNL     1       1.018   9.077  22.381  0.00  0.00    +0.000 C 
ATOM     22  O   UNL     1       0.449  10.019  23.180  0.00  0.00    +0.000 OA
ATOM     23  C   UNL     1      -0.503  10.858  22.544  0.00  0.00    +0.000 C 
ATOM     24  C   UNL     1      -0.607  10.802  21.015  0.00  0.00    +0.000 C 
ATOM     25  O   UNL     1      -0.068   9.672  20.331  0.00  0.00    +0.000 OA
ENDBRANCH  17  20
ENDBRANCH   1  18
TORSDOF 3
ENDMDL
MODEL 6
REMARK VINA RESULT:      -7.4      1.513      2.350
REMARK  Name = 
REMARK  3 active torsions:
REMARK  status: ('A' for Active; 'I' for Inactive)
REMARK    1  A    between atoms: C_2  and  C_19
REMARK    2  A    between atoms: N_3  and  C_4
REMARK    3  A    between atoms: C_8  and  C_9
REMARK                            x       y       z     vdW  Elec       q    Type
REMARK                         _______ _______ _______ _____ _____    ______ ____
ROOT
ATOM      1  C   UNL     1       3.303   5.537  18.789  0.00  0.00    +0.000 A 
ATOM      2  C   UNL     1       2.976   4.472  19.621  0.00  0.00    +0.000 A 
ATOM      3  C   UNL     1       2.120   4.653  20.709  0.00  0.00    +0.000 A 
ATOM      4  C   UNL     1       1.573   5.906  20.977  0.00  0.00    +0.000 A 
ATOM      5  C   UNL     1       1.893   7.006  20.163  0.00  0.00    +0.000 A 
ATOM      6  C   UNL     1       2.784   6.802  19.089  0.00  0.00    +0.000 A 
ENDROOT
BRANCH   5   7
ATOM      7  C   UNL     1       1.337   8.361  20.362  0.00  0.00    +0.000 A 
ATOM      8  N   UNL     1       1.203   9.223  19.373  0.00  0.00    +0.000 NA
ATOM      9  C   UNL     1       0.685  10.417  19.829  0.00  0.00    +0.000 A 
ATOM     10  C   UNL     1       0.444  11.556  19.038  0.00  0.00    +0.000 A 
ATOM     11  C   UNL     1      -0.056  12.718  19.630  0.00  0.00    +0.000 A 
ATOM     12  C   UNL     1      -0.333  12.747  20.994  0.00  0.00    +0.000 A 
ATOM     13  C   UNL     1      -0.119  11.622  21.797  0.00  0.00    +0.000 A 
ATOM     14  C   UNL     1       0.398  10.464  21.192  0.00  0.00    +0.000 A 
ATOM     15  S   UNL     1       0.790   8.940  21.890  0.00  0.00    +0.000 S 
ENDBRANCH   5   7
BRANCH   1  18
ATOM     16  O   UNL     1       5.981   4.349  18.548  0.00  0.00    +0.000 OA
ATOM     17  C   UNL     1       5.376   4.839  17.602  0.00  0.00    +0.000 C 
ATOM     18  N   UNL     1       4.120   5.418  17.645  0.00  0.00    +0.000 N 
ATOM     19  H   UNL     1       3.715   5.659  16.745  0.00  0.00    +0.000 HD
BRANCH  17  20
ATOM     20  C   UNL     1       5.939   4.773  16.206  0.00  0.00    +0.000 C 
ATOM     21  C   UNL     1       7.104   5.398  16.000  0.00  0.00    +0.000 C 
ATOM     22  O   UNL     1       7.812   5.427  14.839  0.00  0.00    +0.000 OA
ATOM     23  C   UNL     1       7.204   4.763  13.742  0.00  0.00    +0.000 C 
ATOM     24  C   UNL     1       5.979   3.883  14.019  0.00  0.00    +0.000 C 
ATOM     25  O   UNL     1       5.263   4.068  15.239  0.00  0.00    +0.000 OA
ENDBRANCH  17  20
ENDBRANCH   1  18
TORSDOF 3
ENDMDL
MODEL 7
REMARK VINA RESULT:      -7.4      0.996      1.656
REMARK  Name = 
REMARK  3 active torsions:
REMARK  status: ('A' for Active; 'I' for Inactive)
REMARK    1  A    between atoms: C_2  and  C_19
REMARK    2  A    between atoms: N_3  and  C_4
REMARK    3  A    between atoms: C_8  and  C_9
REMARK                            x       y       z     vdW  Elec       q    Type
REMARK                         _______ _______ _______ _____ _____    ______ ____
ROOT
ATOM      1  C   UNL     1       4.267   4.751  17.528  0.00  0.00    +0.000 A 
ATOM      2  C   UNL     1       4.263   3.663  18.393  0.00  0.00    +0.000 A 
ATOM      3  C   UNL     1       3.601   3.730  19.621  0.00  0.00    +0.000 A 
ATOM      4  C   UNL     1       2.926   4.890  19.998  0.00  0.00    +0.000 A 
ATOM      5  C   UNL     1       2.922   6.012  19.152  0.00  0.00    +0.000 A 
ATOM      6  C   UNL     1       3.624   5.927  17.932  0.00  0.00    +0.000 A 
ENDROOT
BRANCH   5   7
ATOM      7  C   UNL     1       2.211   7.270  19.464  0.00  0.00    +0.000 A 
ATOM      8  N   UNL     1       2.096   8.252  18.591  0.00  0.00    +0.000 NA
ATOM      9  C   UNL     1       1.412   9.317  19.139  0.00  0.00    +0.000 A 
ATOM     10  C   UNL     1       1.141  10.534  18.486  0.00  0.00    +0.000 A 
ATOM     11  C   UNL     1       0.463  11.549  19.165  0.00  0.00    +0.000 A 
ATOM     12  C   UNL     1       0.040  11.354  20.478  0.00  0.00    +0.000 A 
ATOM     13  C   UNL     1       0.281  10.146  21.140  0.00  0.00    +0.000 A 
ATOM     14  C   UNL     1       0.977   9.139  20.451  0.00  0.00    +0.000 A 
ATOM     15  S   UNL     1       1.446   7.569  20.978  0.00  0.00    +0.000 S 
ENDBRANCH   5   7
BRANCH   1  18
ATOM     16  O   UNL     1       7.107   4.445  16.835  0.00  0.00    +0.000 OA
ATOM     17  C   UNL     1       6.223   4.585  15.998  0.00  0.00    +0.000 C 
ATOM     18  N   UNL     1       4.872   4.739  16.253  0.00  0.00    +0.000 N 
ATOM     19  H   UNL     1       4.264   4.714  15.439  0.00  0.00    +0.000 HD
BRANCH  17  20
ATOM     20  C   UNL     1       6.532   4.508  14.525  0.00  0.00    +0.000 C 
ATOM     21  C   UNL     1       7.488   5.325  14.070  0.00  0.00    +0.000 C 
ATOM     22  O   UNL     1       7.958   5.390  12.796  0.00  0.00    +0.000 OA
ATOM     23  C   UNL     1       7.316   4.528  11.869  0.00  0.00    +0.000 C 
ATOM     24  C   UNL     1       6.368   3.456  12.418  0.00  0.00    +0.000 C 
ATOM     25  O   UNL     1       5.856   3.604  13.741  0.00  0.00    +0.000 OA
ENDBRANCH  17  20
ENDBRANCH   1  18
TORSDOF 3
ENDMDL
MODEL 8
REMARK VINA RESULT:      -7.3      1.148      1.309
REMARK  Name = 
REMARK  3 active torsions:
REMARK  status: ('A' for Active; 'I' for Inactive)
REMARK    1  A    between atoms: C_2  and  C_19
REMARK    2  A    between atoms: N_3  and  C_4
REMARK    3  A    between atoms: C_8  and  C_9
REMARK                            x       y       z     vdW  Elec       q    Type
REMARK                         _______ _______ _______ _____ _____    ______ ____
ROOT
ATOM      1  C   UNL     1       3.638   4.975  18.582  0.00  0.00    +0.000 A 
ATOM      2  C   UNL     1       3.378   3.860  19.372  0.00  0.00    +0.000 A 
ATOM      3  C   UNL     1       2.550   3.958  20.492  0.00  0.00    +0.000 A 
ATOM      4  C   UNL     1       1.964   5.175  20.835  0.00  0.00    +0.000 A 
ATOM      5  C   UNL     1       2.216   6.323  20.064  0.00  0.00    +0.000 A 
ATOM      6  C   UNL     1       3.081   6.203  18.956  0.00  0.00    +0.000 A 
ENDROOT
BRANCH   5   7
ATOM      7  C   UNL     1       1.617   7.645  20.343  0.00  0.00    +0.000 A 
ATOM      8  N   UNL     1       1.082   7.947  21.510  0.00  0.00    +0.000 NA
ATOM      9  C   UNL     1       0.573   9.229  21.499  0.00  0.00    +0.000 A 
ATOM     10  C   UNL     1      -0.089   9.852  22.573  0.00  0.00    +0.000 A 
ATOM     11  C   UNL     1      -0.585  11.149  22.423  0.00  0.00    +0.000 A 
ATOM     12  C   UNL     1      -0.413  11.832  21.223  0.00  0.00    +0.000 A 
ATOM     13  C   UNL     1       0.259  11.240  20.147  0.00  0.00    +0.000 A 
ATOM     14  C   UNL     1       0.740   9.930  20.306  0.00  0.00    +0.000 A 
ATOM     15  S   UNL     1       1.578   8.924  19.189  0.00  0.00    +0.000 S 
ENDBRANCH   5   7
BRANCH   1  18
ATOM     16  O   UNL     1       6.526   4.504  18.307  0.00  0.00    +0.000 OA
ATOM     17  C   UNL     1       5.785   4.707  17.353  0.00  0.00    +0.000 C 
ATOM     18  N   UNL     1       4.422   4.941  17.409  0.00  0.00    +0.000 N 
ATOM     19  H   UNL     1       3.941   4.962  16.514  0.00  0.00    +0.000 HD
BRANCH  17  20
ATOM     20  C   UNL     1       6.304   4.629  15.939  0.00  0.00    +0.000 C 
ATOM     21  C   UNL     1       5.694   3.760  15.125  0.00  0.00    +0.000 C 
ATOM     22  O   UNL     1       5.965   3.559  13.808  0.00  0.00    +0.000 OA
ATOM     23  C   UNL     1       7.040   4.326  13.287  0.00  0.00    +0.000 C 
ATOM     24  C   UNL     1       7.605   5.458  14.153  0.00  0.00    +0.000 C 
ATOM     25  O   UNL     1       7.334   5.452  15.553  0.00  0.00    +0.000 OA
ENDBRANCH  17  20
ENDBRANCH   1  18
TORSDOF 3
ENDMDL
MODEL 9
REMARK VINA RESULT:      -7.2      4.445      6.417
REMARK  Name = 
REMARK  3 active torsions:
REMARK  status: ('A' for Active; 'I' for Inactive)
REMARK    1  A    between atoms: C_2  and  C_19
REMARK    2  A    between atoms: N_3  and  C_4
REMARK    3  A    between atoms: C_8  and  C_9
REMARK                            x       y       z     vdW  Elec       q    Type
REMARK                         _______ _______ _______ _____ _____    ______ ____
ROOT
ATOM      1  C   UNL     1       6.901   6.762  16.785  0.00  0.00    +0.000 A 
ATOM      2  C   UNL     1       7.421   6.086  15.686  0.00  0.00    +0.000 A 
ATOM      3  C   UNL     1       6.901   4.850  15.298  0.00  0.00    +0.000 A 
ATOM      4  C   UNL     1       5.845   4.274  16.002  0.00  0.00    +0.000 A 
ATOM      5  C   UNL     1       5.305   4.926  17.124  0.00  0.00    +0.000 A 
ATOM      6  C   UNL     1       5.869   6.158  17.513  0.00  0.00    +0.000 A 
ENDROOT
BRANCH   5   7
ATOM      7  C   UNL     1       4.170   4.397  17.910  0.00  0.00    +0.000 A 
ATOM      8  N   UNL     1       4.069   4.575  19.213  0.00  0.00    +0.000 NA
ATOM      9  C   UNL     1       2.935   3.964  19.705  0.00  0.00    +0.000 A 
ATOM     10  C   UNL     1       2.544   3.937  21.057  0.00  0.00    +0.000 A 
ATOM     11  C   UNL     1       1.384   3.256  21.430  0.00  0.00    +0.000 A 
ATOM     12  C   UNL     1       0.605   2.617  20.469  0.00  0.00    +0.000 A 
ATOM     13  C   UNL     1       0.963   2.646  19.116  0.00  0.00    +0.000 A 
ATOM     14  C   UNL     1       2.140   3.323  18.756  0.00  0.00    +0.000 A 
ATOM     15  S   UNL     1       2.861   3.525  17.207  0.00  0.00    +0.000 S 
ENDBRANCH   5   7
BRANCH   1  18
ATOM     16  O   UNL     1       8.675   7.455  19.024  0.00  0.00    +0.000 OA
ATOM     17  C   UNL     1       8.186   8.289  18.271  0.00  0.00    +0.000 C 
ATOM     18  N   UNL     1       7.342   8.035  17.205  0.00  0.00    +0.000 N 
ATOM     19  H   UNL     1       7.133   8.831  16.609  0.00  0.00    +0.000 HD
BRANCH  17  20
ATOM     20  C   UNL     1       8.552   9.746  18.390  0.00  0.00    +0.000 C 
ATOM     21  C   UNL     1       9.446  10.064  19.332  0.00  0.00    +0.000 C 
ATOM     22  O   UNL     1       9.953  11.301  19.582  0.00  0.00    +0.000 OA
ATOM     23  C   UNL     1       9.422  12.346  18.782  0.00  0.00    +0.000 C 
ATOM     24  C   UNL     1       8.554  11.963  17.577  0.00  0.00    +0.000 C 
ATOM     25  O   UNL     1       7.985  10.656  17.529  0.00  0.00    +0.000 OA
ENDBRANCH  17  20
ENDBRANCH   1  18
TORSDOF 3
ENDMDL
