MODEL 1
REMARK VINA RESULT:      -7.1      0.000      0.000
REMARK  Name = 
REMARK  5 active torsions:
REMARK  status: ('A' for Active; 'I' for Inactive)
REMARK    1  A    between atoms: C_2  and  C_3
REMARK    2  A    between atoms: C_3  and  O_4
REMARK    3  A    between atoms: O_4  and  C_5
REMARK    4  A    between atoms: C_8  and  O_9
REMARK    5  A    between atoms: O_9  and  C_10
REMARK                            x       y       z     vdW  Elec       q    Type
REMARK                         _______ _______ _______ _____ _____    ______ ____
ROOT
ATOM      1  C   UNL     1       6.419   5.783  17.042  0.00  0.00    +0.000 A 
ATOM      2  C   UNL     1       6.073   5.605  18.394  0.00  0.00    +0.000 A 
ATOM      3  C   UNL     1       5.251   4.549  18.806  0.00  0.00    +0.000 A 
ATOM      4  C   UNL     1       4.741   3.668  17.859  0.00  0.00    +0.000 A 
ATOM      5  C   UNL     1       5.011   3.881  16.506  0.00  0.00    +0.000 A 
ATOM      6  C   UNL     1       5.916   4.873  16.105  0.00  0.00    +0.000 A 
ATOM      7  I   UNL     1       6.556   4.636  14.101  0.00  0.00    +0.000 I 
ENDROOT
BRANCH   1   8
ATOM      8  O   UNL     1       7.275   6.836  16.841  0.00  0.00    +0.000 OA
BRANCH   8   9
ATOM      9  C   UNL     1       7.826   7.425  18.013  0.00  0.00    +0.000 C 
BRANCH   9  11
ATOM     10  C   UNL     1       8.779   9.655  18.621  0.00  0.00    +0.000 C 
ATOM     11  C   UNL     1       8.073   8.883  17.780  0.00  0.00    +0.000 C 
ENDBRANCH   9  11
ENDBRANCH   8   9
ENDBRANCH   1   8
BRANCH   4  12
ATOM     12  O   UNL     1       4.001   2.599  18.316  0.00  0.00    +0.000 OA
BRANCH  12  13
ATOM     13  C   UNL     1       3.086   2.825  19.329  0.00  0.00    +0.000 A 
ATOM     14  C   UNL     1       3.324   2.523  20.676  0.00  0.00    +0.000 A 
ATOM     15  C   UNL     1       2.315   2.690  21.623  0.00  0.00    +0.000 A 
ATOM     16  C   UNL     1       1.087   3.227  21.242  0.00  0.00    +0.000 A 
ATOM     17  C   UNL     1       0.873   3.601  19.915  0.00  0.00    +0.000 A 
ATOM     18  C   UNL     1       1.870   3.398  18.958  0.00  0.00    +0.000 A 
ENDBRANCH  12  13
ENDBRANCH   4  12
TORSDOF 5
ENDMDL
MODEL 2
REMARK VINA RESULT:      -7.0      0.325      1.178
REMARK  Name = 
REMARK  5 active torsions:
REMARK  status: ('A' for Active; 'I' for Inactive)
REMARK    1  A    between atoms: C_2  and  C_3
REMARK    2  A    between atoms: C_3  and  O_4
REMARK    3  A    between atoms: O_4  and  C_5
REMARK    4  A    between atoms: C_8  and  O_9
REMARK    5  A    between atoms: O_9  and  C_10
REMARK                            x       y       z     vdW  Elec       q    Type
REMARK                         _______ _______ _______ _____ _____    ______ ____
ROOT
ATOM      1  C   UNL     1       6.106   5.925  16.792  0.00  0.00    +0.000 A 
ATOM      2  C   UNL     1       5.630   5.839  18.113  0.00  0.00    +0.000 A 
ATOM      3  C   UNL     1       4.863   4.750  18.544  0.00  0.00    +0.000 A 
ATOM      4  C   UNL     1       4.539   3.740  17.644  0.00  0.00    +0.000 A 
ATOM      5  C   UNL     1       4.937   3.854  16.311  0.00  0.00    +0.000 A 
ATOM      6  C   UNL     1       5.790   4.888  15.905  0.00  0.00    +0.000 A 
ATOM      7  I   UNL     1       6.666   4.533  14.011  0.00  0.00    +0.000 I 
ENDROOT
BRANCH   1   8
ATOM      8  O   UNL     1       6.884   7.033  16.574  0.00  0.00    +0.000 OA
BRANCH   8   9
ATOM      9  C   UNL     1       7.705   7.443  17.660  0.00  0.00    +0.000 C 
BRANCH   9  11
ATOM     10  C   UNL     1       8.723   9.603  18.403  0.00  0.00    +0.000 C 
ATOM     11  C   UNL     1       7.802   8.938  17.688  0.00  0.00    +0.000 C 
ENDBRANCH   9  11
ENDBRANCH   8   9
ENDBRANCH   1   8
BRANCH   4  12
ATOM     12  O   UNL     1       3.849   2.650  18.130  0.00  0.00    +0.000 OA
BRANCH  12  13
ATOM     13  C   UNL     1       2.945   2.855  19.157  0.00  0.00    +0.000 A 
ATOM     14  C   UNL     1       1.687   3.446  18.983  0.00  0.00    +0.000 A 
ATOM     15  C   UNL     1       0.874   3.706  20.085  0.00  0.00    +0.000 A 
ATOM     16  C   UNL     1       1.282   3.312  21.357  0.00  0.00    +0.000 A 
ATOM     17  C   UNL     1       2.500   2.652  21.525  0.00  0.00    +0.000 A 
ATOM     18  C   UNL     1       3.333   2.426  20.427  0.00  0.00    +0.000 A 
ENDBRANCH  12  13
ENDBRANCH   4  12
TORSDOF 5
ENDMDL
MODEL 3
REMARK VINA RESULT:      -7.0      0.766      1.236
REMARK  Name = 
REMARK  5 active torsions:
REMARK  status: ('A' for Active; 'I' for Inactive)
REMARK    1  A    between atoms: C_2  and  C_3
REMARK    2  A    between atoms: C_3  and  O_4
REMARK    3  A    between atoms: O_4  and  C_5
REMARK    4  A    between atoms: C_8  and  O_9
REMARK    5  A    between atoms: O_9  and  C_10
REMARK                            x       y       z     vdW  Elec       q    Type
REMARK                         _______ _______ _______ _____ _____    ______ ____
ROOT
ATOM      1  C   UNL     1       6.543   6.029  17.368  0.00  0.00    +0.000 A 
ATOM      2  C   UNL     1       6.392   5.959  18.764  0.00  0.00    +0.000 A 
ATOM      3  C   UNL     1       5.705   4.901  19.373  0.00  0.00    +0.000 A 
ATOM      4  C   UNL     1       5.136   3.908  18.584  0.00  0.00    +0.000 A 
ATOM      5  C   UNL     1       5.210   4.008  17.194  0.00  0.00    +0.000 A 
ATOM      6  C   UNL     1       5.984   5.008  16.589  0.00  0.00    +0.000 A 
ATOM      7  I   UNL     1       6.369   4.621  14.544  0.00  0.00    +0.000 I 
ENDROOT
BRANCH   1   8
ATOM      8  O   UNL     1       7.291   7.105  16.962  0.00  0.00    +0.000 OA
BRANCH   8   9
ATOM      9  C   UNL     1       8.067   7.741  17.970  0.00  0.00    +0.000 C 
BRANCH   9  11
ATOM     10  C   UNL     1       8.873  10.065  18.420  0.00  0.00    +0.000 C 
ATOM     11  C   UNL     1       8.074   9.222  17.746  0.00  0.00    +0.000 C 
ENDBRANCH   9  11
ENDBRANCH   8   9
ENDBRANCH   1   8
BRANCH   4  12
ATOM     12  O   UNL     1       4.538   2.846  19.228  0.00  0.00    +0.000 OA
BRANCH  12  13
ATOM     13  C   UNL     1       3.168   2.882  19.411  0.00  0.00    +0.000 A 
ATOM     14  C   UNL     1       2.248   2.281  18.541  0.00  0.00    +0.000 A 
ATOM     15  C   UNL     1       0.879   2.446  18.742  0.00  0.00    +0.000 A 
ATOM     16  C   UNL     1       0.420   3.150  19.853  0.00  0.00    +0.000 A 
ATOM     17  C   UNL     1       1.332   3.684  20.765  0.00  0.00    +0.000 A 
ATOM     18  C   UNL     1       2.705   3.553  20.543  0.00  0.00    +0.000 A 
ENDBRANCH  12  13
ENDBRANCH   4  12
TORSDOF 5
ENDMDL
MODEL 4
REMARK VINA RESULT:      -6.8      5.691      6.710
REMARK  Name = 
REMARK  5 active torsions:
REMARK  status: ('A' for Active; 'I' for Inactive)
REMARK    1  A    between atoms: C_2  and  C_3
REMARK    2  A    between atoms: C_3  and  O_4
REMARK    3  A    between atoms: O_4  and  C_5
REMARK    4  A    between atoms: C_8  and  O_9
REMARK    5  A    between atoms: O_9  and  C_10
REMARK                            x       y       z     vdW  Elec       q    Type
REMARK                         _______ _______ _______ _____ _____    ______ ____
ROOT
ATOM      1  C   UNL     1       0.795   9.819  19.075  0.00  0.00    +0.000 A 
ATOM      2  C   UNL     1       1.426   9.225  17.967  0.00  0.00    +0.000 A 
ATOM      3  C   UNL     1       2.174   8.049  18.096  0.00  0.00    +0.000 A 
ATOM      4  C   UNL     1       2.323   7.464  19.349  0.00  0.00    +0.000 A 
ATOM      5  C   UNL     1       1.770   8.087  20.468  0.00  0.00    +0.000 A 
ATOM      6  C   UNL     1       0.935   9.204  20.326  0.00  0.00    +0.000 A 
ATOM      7  I   UNL     1      -0.190   9.615  22.071  0.00  0.00    +0.000 I 
ENDROOT
BRANCH   1   8
ATOM      8  O   UNL     1       0.063  10.930  18.744  0.00  0.00    +0.000 OA
BRANCH   8   9
ATOM      9  C   UNL     1      -1.348  10.754  18.684  0.00  0.00    +0.000 C 
BRANCH   9  11
ATOM     10  C   UNL     1      -2.600  10.646  16.523  0.00  0.00    +0.000 C 
ATOM     11  C   UNL     1      -1.724  10.109  17.386  0.00  0.00    +0.000 C 
ENDBRANCH   9  11
ENDBRANCH   8   9
ENDBRANCH   1   8
BRANCH   4  12
ATOM     12  O   UNL     1       3.002   6.266  19.417  0.00  0.00    +0.000 OA
BRANCH  12  13
ATOM     13  C   UNL     1       2.263   5.099  19.472  0.00  0.00    +0.000 A 
ATOM     14  C   UNL     1       1.781   4.536  20.662  0.00  0.00    +0.000 A 
ATOM     15  C   UNL     1       1.127   3.306  20.643  0.00  0.00    +0.000 A 
ATOM     16  C   UNL     1       0.886   2.666  19.429  0.00  0.00    +0.000 A 
ATOM     17  C   UNL     1       1.295   3.261  18.235  0.00  0.00    +0.000 A 
ATOM     18  C   UNL     1       1.986   4.475  18.256  0.00  0.00    +0.000 A 
ENDBRANCH  12  13
ENDBRANCH   4  12
TORSDOF 5
ENDMDL
MODEL 5
REMARK VINA RESULT:      -6.7      2.304      3.703
REMARK  Name = 
REMARK  5 active torsions:
REMARK  status: ('A' for Active; 'I' for Inactive)
REMARK    1  A    between atoms: C_2  and  C_3
REMARK    2  A    between atoms: C_3  and  O_4
REMARK    3  A    between atoms: O_4  and  C_5
REMARK    4  A    between atoms: C_8  and  O_9
REMARK    5  A    between atoms: O_9  and  C_10
REMARK                            x       y       z     vdW  Elec       q    Type
REMARK                         _______ _______ _______ _____ _____    ______ ____
ROOT
ATOM      1  C   UNL     1       6.277   4.943  16.380  0.00  0.00    +0.000 A 
ATOM      2  C   UNL     1       5.148   4.132  16.173  0.00  0.00    +0.000 A 
ATOM      3  C   UNL     1       3.954   4.348  16.871  0.00  0.00    +0.000 A 
ATOM      4  C   UNL     1       3.885   5.370  17.811  0.00  0.00    +0.000 A 
ATOM      5  C   UNL     1       5.022   6.131  18.084  0.00  0.00    +0.000 A 
ATOM      6  C   UNL     1       6.183   5.983  17.313  0.00  0.00    +0.000 A 
ATOM      7  I   UNL     1       7.540   7.590  17.559  0.00  0.00    +0.000 I 
ENDROOT
BRANCH   1   8
ATOM      8  O   UNL     1       7.331   4.614  15.567  0.00  0.00    +0.000 OA
BRANCH   8   9
ATOM      9  C   UNL     1       7.176   4.926  14.188  0.00  0.00    +0.000 C 
BRANCH   9  11
ATOM     10  C   UNL     1       6.519   3.652  12.140  0.00  0.00    +0.000 C 
ATOM     11  C   UNL     1       6.535   3.775  13.476  0.00  0.00    +0.000 C 
ENDBRANCH   9  11
ENDBRANCH   8   9
ENDBRANCH   1   8
BRANCH   4  12
ATOM     12  O   UNL     1       2.668   5.597  18.418  0.00  0.00    +0.000 OA
BRANCH  12  13
ATOM     13  C   UNL     1       2.179   4.632  19.280  0.00  0.00    +0.000 A 
ATOM     14  C   UNL     1       1.247   3.654  18.908  0.00  0.00    +0.000 A 
ATOM     15  C   UNL     1       0.729   2.777  19.860  0.00  0.00    +0.000 A 
ATOM     16  C   UNL     1       1.194   2.825  21.172  0.00  0.00    +0.000 A 
ATOM     17  C   UNL     1       2.179   3.746  21.530  0.00  0.00    +0.000 A 
ATOM     18  C   UNL     1       2.670   4.651  20.585  0.00  0.00    +0.000 A 
ENDBRANCH  12  13
ENDBRANCH   4  12
TORSDOF 5
ENDMDL
MODEL 6
REMARK VINA RESULT:      -6.7      0.921      1.076
REMARK  Name = 
REMARK  5 active torsions:
REMARK  status: ('A' for Active; 'I' for Inactive)
REMARK    1  A    between atoms: C_2  and  C_3
REMARK    2  A    between atoms: C_3  and  O_4
REMARK    3  A    between atoms: O_4  and  C_5
REMARK    4  A    between atoms: C_8  and  O_9
REMARK    5  A    between atoms: O_9  and  C_10
REMARK                            x       y       z     vdW  Elec       q    Type
REMARK                         _______ _______ _______ _____ _____    ______ ____
ROOT
ATOM      1  C   UNL     1       6.827   6.026  17.371  0.00  0.00    +0.000 A 
ATOM      2  C   UNL     1       6.714   5.964  18.772  0.00  0.00    +0.000 A 
ATOM      3  C   UNL     1       5.962   4.965  19.402  0.00  0.00    +0.000 A 
ATOM      4  C   UNL     1       5.288   4.025  18.630  0.00  0.00    +0.000 A 
ATOM      5  C   UNL     1       5.326   4.123  17.238  0.00  0.00    +0.000 A 
ATOM      6  C   UNL     1       6.161   5.057  16.610  0.00  0.00    +0.000 A 
ATOM      7  I   UNL     1       6.450   4.645  14.553  0.00  0.00    +0.000 I 
ENDROOT
BRANCH   1   8
ATOM      8  O   UNL     1       7.649   7.037  16.943  0.00  0.00    +0.000 OA
BRANCH   8   9
ATOM      9  C   UNL     1       7.381   8.328  17.477  0.00  0.00    +0.000 C 
BRANCH   9  11
ATOM     10  C   UNL     1       8.831   9.764  18.922  0.00  0.00    +0.000 C 
ATOM     11  C   UNL     1       8.668   9.011  17.822  0.00  0.00    +0.000 C 
ENDBRANCH   9  11
ENDBRANCH   8   9
ENDBRANCH   1   8
BRANCH   4  12
ATOM     12  O   UNL     1       4.624   3.015  19.292  0.00  0.00    +0.000 OA
BRANCH  12  13
ATOM     13  C   UNL     1       3.262   3.150  19.492  0.00  0.00    +0.000 A 
ATOM     14  C   UNL     1       2.693   4.038  20.415  0.00  0.00    +0.000 A 
ATOM     15  C   UNL     1       1.315   4.046  20.626  0.00  0.00    +0.000 A 
ATOM     16  C   UNL     1       0.492   3.219  19.865  0.00  0.00    +0.000 A 
ATOM     17  C   UNL     1       1.047   2.390  18.890  0.00  0.00    +0.000 A 
ATOM     18  C   UNL     1       2.431   2.353  18.705  0.00  0.00    +0.000 A 
ENDBRANCH  12  13
ENDBRANCH   4  12
TORSDOF 5
ENDMDL
MODEL 7
REMARK VINA RESULT:      -6.7      2.139      3.583
REMARK  Name = 
REMARK  5 active torsions:
REMARK  status: ('A' for Active; 'I' for Inactive)
REMARK    1  A    between atoms: C_2  and  C_3
REMARK    2  A    between atoms: C_3  and  O_4
REMARK    3  A    between atoms: O_4  and  C_5
REMARK    4  A    between atoms: C_8  and  O_9
REMARK    5  A    between atoms: O_9  and  C_10
REMARK                            x       y       z     vdW  Elec       q    Type
REMARK                         _______ _______ _______ _____ _____    ______ ____
ROOT
ATOM      1  C   UNL     1       5.993   5.179  16.080  0.00  0.00    +0.000 A 
ATOM      2  C   UNL     1       5.088   4.103  16.131  0.00  0.00    +0.000 A 
ATOM      3  C   UNL     1       4.708   3.525  17.348  0.00  0.00    +0.000 A 
ATOM      4  C   UNL     1       5.252   4.005  18.535  0.00  0.00    +0.000 A 
ATOM      5  C   UNL     1       6.210   5.018  18.491  0.00  0.00    +0.000 A 
ATOM      6  C   UNL     1       6.513   5.665  17.286  0.00  0.00    +0.000 A 
ATOM      7  I   UNL     1       7.559   7.484  17.571  0.00  0.00    +0.000 I 
ENDROOT
BRANCH   1   8
ATOM      8  O   UNL     1       6.200   5.646  14.807  0.00  0.00    +0.000 OA
BRANCH   8   9
ATOM      9  C   UNL     1       6.999   4.825  13.964  0.00  0.00    +0.000 C 
BRANCH   9  11
ATOM     10  C   UNL     1       6.555   3.277  12.051  0.00  0.00    +0.000 C 
ATOM     11  C   UNL     1       6.120   3.942  13.133  0.00  0.00    +0.000 C 
ENDBRANCH   9  11
ENDBRANCH   8   9
ENDBRANCH   1   8
BRANCH   4  12
ATOM     12  O   UNL     1       4.790   3.459  19.714  0.00  0.00    +0.000 OA
BRANCH  12  13
ATOM     13  C   UNL     1       3.445   3.585  20.009  0.00  0.00    +0.000 A 
ATOM     14  C   UNL     1       2.566   2.499  20.120  0.00  0.00    +0.000 A 
ATOM     15  C   UNL     1       1.204   2.715  20.323  0.00  0.00    +0.000 A 
ATOM     16  C   UNL     1       0.724   4.013  20.488  0.00  0.00    +0.000 A 
ATOM     17  C   UNL     1       1.608   5.092  20.456  0.00  0.00    +0.000 A 
ATOM     18  C   UNL     1       2.967   4.879  20.214  0.00  0.00    +0.000 A 
ENDBRANCH  12  13
ENDBRANCH   4  12
TORSDOF 5
ENDMDL
MODEL 8
REMARK VINA RESULT:      -6.7      5.760      6.874
REMARK  Name = 
REMARK  5 active torsions:
REMARK  status: ('A' for Active; 'I' for Inactive)
REMARK    1  A    between atoms: C_2  and  C_3
REMARK    2  A    between atoms: C_3  and  O_4
REMARK    3  A    between atoms: O_4  and  C_5
REMARK    4  A    between atoms: C_8  and  O_9
REMARK    5  A    between atoms: O_9  and  C_10
REMARK                            x       y       z     vdW  Elec       q    Type
REMARK                         _______ _______ _______ _____ _____    ______ ____
ROOT
ATOM      1  C   UNL     1       0.695   9.830  19.102  0.00  0.00    +0.000 A 
ATOM      2  C   UNL     1       1.298   9.258  17.966  0.00  0.00    +0.000 A 
ATOM      3  C   UNL     1       2.094   8.111  18.061  0.00  0.00    +0.000 A 
ATOM      4  C   UNL     1       2.319   7.533  19.305  0.00  0.00    +0.000 A 
ATOM      5  C   UNL     1       1.793   8.136  20.448  0.00  0.00    +0.000 A 
ATOM      6  C   UNL     1       0.913   9.221  20.344  0.00  0.00    +0.000 A 
ATOM      7  I   UNL     1      -0.149   9.591  22.138  0.00  0.00    +0.000 I 
ENDROOT
BRANCH   1   8
ATOM      8  O   UNL     1      -0.091  10.913  18.804  0.00  0.00    +0.000 OA
BRANCH   8   9
ATOM      9  C   UNL     1      -1.490  10.665  18.720  0.00  0.00    +0.000 C 
BRANCH   9  11
ATOM     10  C   UNL     1      -3.106  10.693  16.812  0.00  0.00    +0.000 C 
ATOM     11  C   UNL     1      -1.879  10.435  17.292  0.00  0.00    +0.000 C 
ENDBRANCH   9  11
ENDBRANCH   8   9
ENDBRANCH   1   8
BRANCH   4  12
ATOM     12  O   UNL     1       3.044   6.361  19.342  0.00  0.00    +0.000 OA
BRANCH  12  13
ATOM     13  C   UNL     1       2.351   5.164  19.345  0.00  0.00    +0.000 A 
ATOM     14  C   UNL     1       2.022   4.450  18.186  0.00  0.00    +0.000 A 
ATOM     15  C   UNL     1       1.236   3.301  18.267  0.00  0.00    +0.000 A 
ATOM     16  C   UNL     1       0.836   2.820  19.512  0.00  0.00    +0.000 A 
ATOM     17  C   UNL     1       1.227   3.485  20.674  0.00  0.00    +0.000 A 
ATOM     18  C   UNL     1       1.982   4.658  20.592  0.00  0.00    +0.000 A 
ENDBRANCH  12  13
ENDBRANCH   4  12
TORSDOF 5
ENDMDL
MODEL 9
REMARK VINA RESULT:      -6.6      2.439      6.595
REMARK  Name = 
REMARK  5 active torsions:
REMARK  status: ('A' for Active; 'I' for Inactive)
REMARK    1  A    between atoms: C_2  and  C_3
REMARK    2  A    between atoms: C_3  and  O_4
REMARK    3  A    between atoms: O_4  and  C_5
REMARK    4  A    between atoms: C_8  and  O_9
REMARK    5  A    between atoms: O_9  and  C_10
REMARK                            x       y       z     vdW  Elec       q    Type
REMARK                         _______ _______ _______ _____ _____    ______ ____
ROOT
ATOM      1  C   UNL     1       1.874   4.207  18.335  0.00  0.00    +0.000 A 
ATOM      2  C   UNL     1       2.535   3.332  17.454  0.00  0.00    +0.000 A 
ATOM      3  C   UNL     1       3.739   3.688  16.836  0.00  0.00    +0.000 A 
ATOM      4  C   UNL     1       4.287   4.944  17.073  0.00  0.00    +0.000 A 
ATOM      5  C   UNL     1       3.600   5.852  17.881  0.00  0.00    +0.000 A 
ATOM      6  C   UNL     1       2.451   5.459  18.581  0.00  0.00    +0.000 A 
ATOM      7  I   UNL     1       1.929   6.813  20.123  0.00  0.00    +0.000 I 
ENDROOT
BRANCH   1   8
ATOM      8  O   UNL     1       0.742   3.662  18.885  0.00  0.00    +0.000 OA
BRANCH   8   9
ATOM      9  C   UNL     1       0.936   2.522  19.712  0.00  0.00    +0.000 C 
BRANCH   9  11
ATOM     10  C   UNL     1       2.482   2.795  21.659  0.00  0.00    +0.000 C 
ATOM     11  C   UNL     1       1.270   2.957  21.106  0.00  0.00    +0.000 C 
ENDBRANCH   9  11
ENDBRANCH   8   9
ENDBRANCH   1   8
BRANCH   4  12
ATOM     12  O   UNL     1       5.512   5.223  16.506  0.00  0.00    +0.000 OA
BRANCH  12  13
ATOM     13  C   UNL     1       6.420   5.961  17.243  0.00  0.00    +0.000 A 
ATOM     14  C   UNL     1       6.734   7.301  16.980  0.00  0.00    +0.000 A 
ATOM     15  C   UNL     1       7.732   7.946  17.709  0.00  0.00    +0.000 A 
ATOM     16  C   UNL     1       8.370   7.279  18.752  0.00  0.00    +0.000 A 
ATOM     17  C   UNL     1       8.006   5.969  19.069  0.00  0.00    +0.000 A 
ATOM     18  C   UNL     1       7.033   5.309  18.313  0.00  0.00    +0.000 A 
ENDBRANCH  12  13
ENDBRANCH   4  12
TORSDOF 5
ENDMDL
