MODEL 1
REMARK VINA RESULT:      -9.3      0.000      0.000
REMARK  Name = 
REMARK  11 active torsions:
REMARK  status: ('A' for Active; 'I' for Inactive)
REMARK    1  A    between atoms: C_1  and  C_2
REMARK    2  A    between atoms: C_4  and  C_5
REMARK    3  A    between atoms: C_5  and  O_6
REMARK    4  A    between atoms: O_6  and  C_7
REMARK    5  A    between atoms: C_10  and  C_11
REMARK    6  A    between atoms: N_13  and  C_14
REMARK    7  A    between atoms: C_14  and  C_15
REMARK    8  A    between atoms: C_15  and  C_16
REMARK    9  A    between atoms: N_18  and  O_19
REMARK   10  A    between atoms: N_22  and  C_23
REMARK   11  A    between atoms: C_23  and  C_24
REMARK                            x       y       z     vdW  Elec       q    Type
REMARK                         _______ _______ _______ _____ _____    ______ ____
ROOT
ATOM      1  C   UNL     1       2.492   6.275  19.770  0.00  0.00    +0.000 C 
ATOM      2  O   UNL     1       1.997   5.544  20.618  0.00  0.00    +0.000 OA
ATOM      3  N   UNL     1       3.563   5.922  18.989  0.00  0.00    +0.000 N 
ATOM      4  H   UNL     1       3.502   6.415  18.106  0.00  0.00    +0.000 HD
ENDROOT
BRANCH   1   8
ATOM      5  C   UNL     1       0.825  10.214  18.803  0.00  0.00    +0.000 A 
ATOM      6  C   UNL     1       1.530   9.473  17.850  0.00  0.00    +0.000 A 
ATOM      7  C   UNL     1       2.075   8.213  18.176  0.00  0.00    +0.000 A 
ATOM      8  C   UNL     1       1.935   7.669  19.464  0.00  0.00    +0.000 A 
ATOM      9  C   UNL     1       1.258   8.456  20.422  0.00  0.00    +0.000 A 
ATOM     10  C   UNL     1       0.731   9.718  20.099  0.00  0.00    +0.000 A 
BRANCH   5  11
ATOM     11  O   UNL     1       0.203  11.414  18.579  0.00  0.00    +0.000 OA
BRANCH  11  12
ATOM     12  C   UNL     1      -1.075  11.572  19.209  0.00  0.00    +0.000 C 
BRANCH  12  16
ATOM     13  C   UNL     1      -2.962  10.119  14.745  0.00  0.00    +0.000 C 
ATOM     14  C   UNL     1      -3.129  10.708  16.114  0.00  0.00    +0.000 A 
ATOM     15  C   UNL     1      -2.049  10.831  16.979  0.00  0.00    +0.000 A 
ATOM     16  C   UNL     1      -2.248  11.399  18.243  0.00  0.00    +0.000 A 
ATOM     17  C   UNL     1      -3.548  11.838  18.599  0.00  0.00    +0.000 A 
ATOM     18  C   UNL     1      -3.880  12.429  19.843  0.00  0.00    +0.000 A 
ATOM     19  C   UNL     1      -5.181  12.843  20.130  0.00  0.00    +0.000 A 
ATOM     20  C   UNL     1      -6.180  12.671  19.182  0.00  0.00    +0.000 A 
ATOM     21  C   UNL     1      -5.869  12.088  17.954  0.00  0.00    +0.000 A 
ATOM     22  C   UNL     1      -4.580  11.669  17.645  0.00  0.00    +0.000 A 
ATOM     23  N   UNL     1      -4.375  11.118  16.438  0.00  0.00    +0.000 NA
ENDBRANCH  12  16
ENDBRANCH  11  12
ENDBRANCH   5  11
ENDBRANCH   1   8
BRANCH   3  24
ATOM     24  C   UNL     1       4.368   4.685  18.769  0.00  0.00    +0.000 C 
ATOM     25  C   UNL     1       5.935   4.680  18.835  0.00  0.00    +0.000 C 
ATOM     26  C   UNL     1       6.764   5.118  17.630  0.00  0.00    +0.000 C 
ATOM     27  N   UNL     1       6.168   4.795  16.324  0.00  0.00    +0.000 NA
ATOM     28  C   UNL     1       4.775   5.235  16.320  0.00  0.00    +0.000 C 
ATOM     29  C   UNL     1       3.989   4.320  17.311  0.00  0.00    +0.000 C 
BRANCH  24  30
ATOM     30  C   UNL     1       4.022   3.667  19.889  0.00  0.00    +0.000 C 
BRANCH  30  31
ATOM     31  C   UNL     1       3.909   2.202  19.599  0.00  0.00    +0.000 C 
ATOM     32  O   UNL     1       2.915   1.658  19.111  0.00  0.00    +0.000 OA
ATOM     33  N   UNL     1       5.076   1.539  19.895  0.00  0.00    +0.000 N 
ATOM     34  H   UNL     1       5.919   1.980  20.257  0.00  0.00    +0.000 HD
BRANCH  33  35
ATOM     35  O   UNL     1       5.168   0.171  19.577  0.00  0.00    +0.000 OA
ATOM     36  H   UNL     1       5.094  -0.256  20.460  0.00  0.00    +0.000 HD
ENDBRANCH  33  35
ENDBRANCH  30  31
ENDBRANCH  24  30
BRANCH  27  37
ATOM     37  C   UNL     1       7.029   5.368  15.265  0.00  0.00    +0.000 C 
BRANCH  37  38
ATOM     38  C   UNL     1       6.993   4.741  13.873  0.00  0.00    +0.000 C 
ATOM     39  F   UNL     1       6.413   3.507  13.977  0.00  0.00    +0.000 F 
ENDBRANCH  37  38
ENDBRANCH  27  37
ENDBRANCH   3  24
TORSDOF 10
ENDMDL
MODEL 2
REMARK VINA RESULT:      -9.2      1.826      2.157
REMARK  Name = 
REMARK  11 active torsions:
REMARK  status: ('A' for Active; 'I' for Inactive)
REMARK    1  A    between atoms: C_1  and  C_2
REMARK    2  A    between atoms: C_4  and  C_5
REMARK    3  A    between atoms: C_5  and  O_6
REMARK    4  A    between atoms: O_6  and  C_7
REMARK    5  A    between atoms: C_10  and  C_11
REMARK    6  A    between atoms: N_13  and  C_14
REMARK    7  A    between atoms: C_14  and  C_15
REMARK    8  A    between atoms: C_15  and  C_16
REMARK    9  A    between atoms: N_18  and  O_19
REMARK   10  A    between atoms: N_22  and  C_23
REMARK   11  A    between atoms: C_23  and  C_24
REMARK                            x       y       z     vdW  Elec       q    Type
REMARK                         _______ _______ _______ _____ _____    ______ ____
ROOT
ATOM      1  C   UNL     1       2.015   7.048  19.793  0.00  0.00    +0.000 C 
ATOM      2  O   UNL     1       1.928   6.409  20.834  0.00  0.00    +0.000 OA
ATOM      3  N   UNL     1       2.617   6.575  18.655  0.00  0.00    +0.000 N 
ATOM      4  H   UNL     1       2.184   7.011  17.850  0.00  0.00    +0.000 HD
ENDROOT
BRANCH   1   8
ATOM      5  C   UNL     1       0.240  11.022  19.256  0.00  0.00    +0.000 A 
ATOM      6  C   UNL     1       1.016  10.434  18.253  0.00  0.00    +0.000 A 
ATOM      7  C   UNL     1       1.594   9.161  18.442  0.00  0.00    +0.000 A 
ATOM      8  C   UNL     1       1.418   8.451  19.640  0.00  0.00    +0.000 A 
ATOM      9  C   UNL     1       0.668   9.084  20.657  0.00  0.00    +0.000 A 
ATOM     10  C   UNL     1       0.107  10.359  20.472  0.00  0.00    +0.000 A 
BRANCH   5  11
ATOM     11  O   UNL     1      -0.418  12.220  19.158  0.00  0.00    +0.000 OA
BRANCH  11  12
ATOM     12  C   UNL     1      -1.769  12.222  19.637  0.00  0.00    +0.000 C 
BRANCH  12  16
ATOM     13  C   UNL     1      -2.892  10.451  15.033  0.00  0.00    +0.000 C 
ATOM     14  C   UNL     1      -3.304  10.959  16.383  0.00  0.00    +0.000 A 
ATOM     15  C   UNL     1      -2.357  11.315  17.334  0.00  0.00    +0.000 A 
ATOM     16  C   UNL     1      -2.786  11.797  18.577  0.00  0.00    +0.000 A 
ATOM     17  C   UNL     1      -4.177  11.914  18.823  0.00  0.00    +0.000 A 
ATOM     18  C   UNL     1      -4.739  12.388  20.034  0.00  0.00    +0.000 A 
ATOM     19  C   UNL     1      -6.119  12.481  20.211  0.00  0.00    +0.000 A 
ATOM     20  C   UNL     1      -6.969  12.098  19.183  0.00  0.00    +0.000 A 
ATOM     21  C   UNL     1      -6.431  11.626  17.986  0.00  0.00    +0.000 A 
ATOM     22  C   UNL     1      -5.059  11.526  17.786  0.00  0.00    +0.000 A 
ATOM     23  N   UNL     1      -4.633  11.061  16.601  0.00  0.00    +0.000 NA
ENDBRANCH  12  16
ENDBRANCH  11  12
ENDBRANCH   5  11
ENDBRANCH   1   8
BRANCH   3  24
ATOM     24  C   UNL     1       3.207   5.277  18.215  0.00  0.00    +0.000 C 
ATOM     25  C   UNL     1       4.163   4.436  19.129  0.00  0.00    +0.000 C 
ATOM     26  C   UNL     1       5.648   4.778  19.223  0.00  0.00    +0.000 C 
ATOM     27  N   UNL     1       6.236   5.307  17.982  0.00  0.00    +0.000 NA
ATOM     28  C   UNL     1       5.378   6.374  17.472  0.00  0.00    +0.000 C 
ATOM     29  C   UNL     1       4.047   5.716  16.988  0.00  0.00    +0.000 C 
BRANCH  24  30
ATOM     30  C   UNL     1       2.053   4.265  17.983  0.00  0.00    +0.000 C 
BRANCH  30  31
ATOM     31  C   UNL     1       1.741   3.200  18.989  0.00  0.00    +0.000 C 
ATOM     32  O   UNL     1       2.107   2.024  18.902  0.00  0.00    +0.000 OA
ATOM     33  N   UNL     1       1.037   3.705  20.055  0.00  0.00    +0.000 N 
ATOM     34  H   UNL     1       0.765   4.680  20.162  0.00  0.00    +0.000 HD
BRANCH  33  35
ATOM     35  O   UNL     1       0.759   2.851  21.140  0.00  0.00    +0.000 OA
ATOM     36  H   UNL     1       1.503   2.210  21.100  0.00  0.00    +0.000 HD
ENDBRANCH  33  35
ENDBRANCH  30  31
ENDBRANCH  24  30
BRANCH  27  37
ATOM     37  C   UNL     1       7.641   5.685  18.258  0.00  0.00    +0.000 C 
BRANCH  37  38
ATOM     38  C   UNL     1       7.981   7.164  18.428  0.00  0.00    +0.000 C 
ATOM     39  F   UNL     1       8.112   7.718  17.185  0.00  0.00    +0.000 F 
ENDBRANCH  37  38
ENDBRANCH  27  37
ENDBRANCH   3  24
TORSDOF 10
ENDMDL
MODEL 3
REMARK VINA RESULT:      -9.2      1.513      2.690
REMARK  Name = 
REMARK  11 active torsions:
REMARK  status: ('A' for Active; 'I' for Inactive)
REMARK    1  A    between atoms: C_1  and  C_2
REMARK    2  A    between atoms: C_4  and  C_5
REMARK    3  A    between atoms: C_5  and  O_6
REMARK    4  A    between atoms: O_6  and  C_7
REMARK    5  A    between atoms: C_10  and  C_11
REMARK    6  A    between atoms: N_13  and  C_14
REMARK    7  A    between atoms: C_14  and  C_15
REMARK    8  A    between atoms: C_15  and  C_16
REMARK    9  A    between atoms: N_18  and  O_19
REMARK   10  A    between atoms: N_22  and  C_23
REMARK   11  A    between atoms: C_23  and  C_24
REMARK                            x       y       z     vdW  Elec       q    Type
REMARK                         _______ _______ _______ _____ _____    ______ ____
ROOT
ATOM      1  C   UNL     1       3.729   6.734  17.972  0.00  0.00    +0.000 C 
ATOM      2  O   UNL     1       4.562   7.120  17.163  0.00  0.00    +0.000 OA
ATOM      3  N   UNL     1       3.657   5.446  18.439  0.00  0.00    +0.000 N 
ATOM      4  H   UNL     1       3.263   5.457  19.372  0.00  0.00    +0.000 HD
ENDROOT
BRANCH   1   8
ATOM      5  C   UNL     1       0.664   9.395  19.632  0.00  0.00    +0.000 A 
ATOM      6  C   UNL     1       1.199   9.613  18.360  0.00  0.00    +0.000 A 
ATOM      7  C   UNL     1       2.195   8.759  17.841  0.00  0.00    +0.000 A 
ATOM      8  C   UNL     1       2.686   7.674  18.585  0.00  0.00    +0.000 A 
ATOM      9  C   UNL     1       2.162   7.500  19.886  0.00  0.00    +0.000 A 
ATOM     10  C   UNL     1       1.181   8.362  20.406  0.00  0.00    +0.000 A 
BRANCH   5  11
ATOM     11  O   UNL     1      -0.347  10.119  20.207  0.00  0.00    +0.000 OA
BRANCH  11  12
ATOM     12  C   UNL     1      -0.557  11.428  19.660  0.00  0.00    +0.000 C 
BRANCH  12  16
ATOM     13  C   UNL     1      -5.030  13.301  21.101  0.00  0.00    +0.000 C 
ATOM     14  C   UNL     1      -4.151  12.628  20.089  0.00  0.00    +0.000 A 
ATOM     15  C   UNL     1      -2.811  12.381  20.356  0.00  0.00    +0.000 A 
ATOM     16  C   UNL     1      -2.029  11.738  19.388  0.00  0.00    +0.000 A 
ATOM     17  C   UNL     1      -2.635  11.352  18.165  0.00  0.00    +0.000 A 
ATOM     18  C   UNL     1      -1.957  10.695  17.109  0.00  0.00    +0.000 A 
ATOM     19  C   UNL     1      -2.613  10.339  15.931  0.00  0.00    +0.000 A 
ATOM     20  C   UNL     1      -3.960  10.635  15.780  0.00  0.00    +0.000 A 
ATOM     21  C   UNL     1      -4.641  11.285  16.810  0.00  0.00    +0.000 A 
ATOM     22  C   UNL     1      -4.008  11.648  17.993  0.00  0.00    +0.000 A 
ATOM     23  N   UNL     1      -4.743  12.269  18.929  0.00  0.00    +0.000 NA
ENDBRANCH  12  16
ENDBRANCH  11  12
ENDBRANCH   5  11
ENDBRANCH   1   8
BRANCH   3  24
ATOM     24  C   UNL     1       4.477   4.208  18.300  0.00  0.00    +0.000 C 
ATOM     25  C   UNL     1       6.036   4.248  18.138  0.00  0.00    +0.000 C 
ATOM     26  C   UNL     1       6.669   4.505  16.773  0.00  0.00    +0.000 C 
ATOM     27  N   UNL     1       5.912   3.964  15.633  0.00  0.00    +0.000 NA
ATOM     28  C   UNL     1       4.514   4.368  15.762  0.00  0.00    +0.000 C 
ATOM     29  C   UNL     1       3.915   3.606  16.986  0.00  0.00    +0.000 C 
BRANCH  24  30
ATOM     30  C   UNL     1       4.336   3.375  19.602  0.00  0.00    +0.000 C 
BRANCH  30  31
ATOM     31  C   UNL     1       3.004   2.866  20.058  0.00  0.00    +0.000 C 
ATOM     32  O   UNL     1       2.270   2.128  19.394  0.00  0.00    +0.000 OA
ATOM     33  N   UNL     1       2.717   3.279  21.336  0.00  0.00    +0.000 N 
ATOM     34  H   UNL     1       3.331   3.852  21.913  0.00  0.00    +0.000 HD
BRANCH  33  35
ATOM     35  O   UNL     1       1.547   2.795  21.951  0.00  0.00    +0.000 OA
ATOM     36  H   UNL     1       1.894   2.390  22.776  0.00  0.00    +0.000 HD
ENDBRANCH  33  35
ENDBRANCH  30  31
ENDBRANCH  24  30
BRANCH  27  37
ATOM     37  C   UNL     1       6.591   4.380  14.384  0.00  0.00    +0.000 C 
BRANCH  37  38
ATOM     38  C   UNL     1       6.280   3.621  13.096  0.00  0.00    +0.000 C 
ATOM     39  F   UNL     1       4.945   3.756  12.833  0.00  0.00    +0.000 F 
ENDBRANCH  37  38
ENDBRANCH  27  37
ENDBRANCH   3  24
TORSDOF 10
ENDMDL
MODEL 4
REMARK VINA RESULT:      -9.2      1.808      2.373
REMARK  Name = 
REMARK  11 active torsions:
REMARK  status: ('A' for Active; 'I' for Inactive)
REMARK    1  A    between atoms: C_1  and  C_2
REMARK    2  A    between atoms: C_4  and  C_5
REMARK    3  A    between atoms: C_5  and  O_6
REMARK    4  A    between atoms: O_6  and  C_7
REMARK    5  A    between atoms: C_10  and  C_11
REMARK    6  A    between atoms: N_13  and  C_14
REMARK    7  A    between atoms: C_14  and  C_15
REMARK    8  A    between atoms: C_15  and  C_16
REMARK    9  A    between atoms: N_18  and  O_19
REMARK   10  A    between atoms: N_22  and  C_23
REMARK   11  A    between atoms: C_23  and  C_24
REMARK                            x       y       z     vdW  Elec       q    Type
REMARK                         _______ _______ _______ _____ _____    ______ ____
ROOT
ATOM      1  C   UNL     1       2.259   6.771  19.625  0.00  0.00    +0.000 C 
ATOM      2  O   UNL     1       2.204   6.180  20.695  0.00  0.00    +0.000 OA
ATOM      3  N   UNL     1       2.749   6.215  18.470  0.00  0.00    +0.000 N 
ATOM      4  H   UNL     1       2.289   6.647  17.677  0.00  0.00    +0.000 HD
ENDROOT
BRANCH   1   8
ATOM      5  C   UNL     1       0.860  10.907  19.223  0.00  0.00    +0.000 A 
ATOM      6  C   UNL     1       0.701  10.203  20.419  0.00  0.00    +0.000 A 
ATOM      7  C   UNL     1       1.142   8.867  20.533  0.00  0.00    +0.000 A 
ATOM      8  C   UNL     1       1.743   8.203  19.452  0.00  0.00    +0.000 A 
ATOM      9  C   UNL     1       1.852   8.920  18.239  0.00  0.00    +0.000 A 
ATOM     10  C   UNL     1       1.398  10.245  18.124  0.00  0.00    +0.000 A 
BRANCH   5  11
ATOM     11  O   UNL     1       0.529  12.221  19.021  0.00  0.00    +0.000 OA
BRANCH  11  12
ATOM     12  C   UNL     1      -0.680  12.657  19.656  0.00  0.00    +0.000 C 
BRANCH  12  16
ATOM     13  C   UNL     1      -3.013  10.827  15.557  0.00  0.00    +0.000 C 
ATOM     14  C   UNL     1      -3.039  11.330  16.969  0.00  0.00    +0.000 A 
ATOM     15  C   UNL     1      -1.872  11.720  17.613  0.00  0.00    +0.000 A 
ATOM     16  C   UNL     1      -1.944  12.196  18.928  0.00  0.00    +0.000 A 
ATOM     17  C   UNL     1      -3.211  12.273  19.559  0.00  0.00    +0.000 A 
ATOM     18  C   UNL     1      -3.418  12.737  20.882  0.00  0.00    +0.000 A 
ATOM     19  C   UNL     1      -4.693  12.790  21.445  0.00  0.00    +0.000 A 
ATOM     20  C   UNL     1      -5.789  12.376  20.700  0.00  0.00    +0.000 A 
ATOM     21  C   UNL     1      -5.600  11.914  19.398  0.00  0.00    +0.000 A 
ATOM     22  C   UNL     1      -4.339  11.853  18.816  0.00  0.00    +0.000 A 
ATOM     23  N   UNL     1      -4.254  11.395  17.557  0.00  0.00    +0.000 NA
ENDBRANCH  12  16
ENDBRANCH  11  12
ENDBRANCH   5  11
ENDBRANCH   1   8
BRANCH   3  24
ATOM     24  C   UNL     1       3.224   4.866  18.047  0.00  0.00    +0.000 C 
ATOM     25  C   UNL     1       4.096   3.953  18.976  0.00  0.00    +0.000 C 
ATOM     26  C   UNL     1       5.605   4.162  19.077  0.00  0.00    +0.000 C 
ATOM     27  N   UNL     1       6.245   4.624  17.835  0.00  0.00    +0.000 NA
ATOM     28  C   UNL     1       5.489   5.757  17.308  0.00  0.00    +0.000 C 
ATOM     29  C   UNL     1       4.107   5.215  16.822  0.00  0.00    +0.000 C 
BRANCH  24  30
ATOM     30  C   UNL     1       1.986   3.958  17.818  0.00  0.00    +0.000 C 
BRANCH  30  31
ATOM     31  C   UNL     1       1.559   2.954  18.844  0.00  0.00    +0.000 C 
ATOM     32  O   UNL     1       1.723   1.735  18.744  0.00  0.00    +0.000 OA
ATOM     33  N   UNL     1       1.004   3.563  19.944  0.00  0.00    +0.000 N 
ATOM     34  H   UNL     1       0.901   4.569  20.060  0.00  0.00    +0.000 HD
BRANCH  33  35
ATOM     35  O   UNL     1       0.649   2.762  21.046  0.00  0.00    +0.000 OA
ATOM     36  H   UNL     1       0.997   1.880  20.786  0.00  0.00    +0.000 HD
ENDBRANCH  33  35
ENDBRANCH  30  31
ENDBRANCH  24  30
BRANCH  27  37
ATOM     37  C   UNL     1       7.676   4.878  18.117  0.00  0.00    +0.000 C 
BRANCH  37  38
ATOM     38  C   UNL     1       8.043   6.015  19.068  0.00  0.00    +0.000 C 
ATOM     39  F   UNL     1       8.190   7.158  18.332  0.00  0.00    +0.000 F 
ENDBRANCH  37  38
ENDBRANCH  27  37
ENDBRANCH   3  24
TORSDOF 10
ENDMDL
MODEL 5
REMARK VINA RESULT:      -9.0      2.553      4.165
REMARK  Name = 
REMARK  11 active torsions:
REMARK  status: ('A' for Active; 'I' for Inactive)
REMARK    1  A    between atoms: C_1  and  C_2
REMARK    2  A    between atoms: C_4  and  C_5
REMARK    3  A    between atoms: C_5  and  O_6
REMARK    4  A    between atoms: O_6  and  C_7
REMARK    5  A    between atoms: C_10  and  C_11
REMARK    6  A    between atoms: N_13  and  C_14
REMARK    7  A    between atoms: C_14  and  C_15
REMARK    8  A    between atoms: C_15  and  C_16
REMARK    9  A    between atoms: N_18  and  O_19
REMARK   10  A    between atoms: N_22  and  C_23
REMARK   11  A    between atoms: C_23  and  C_24
REMARK                            x       y       z     vdW  Elec       q    Type
REMARK                         _______ _______ _______ _____ _____    ______ ____
ROOT
ATOM      1  C   UNL     1       2.889   7.878  17.798  0.00  0.00    +0.000 C 
ATOM      2  O   UNL     1       3.145   8.132  16.629  0.00  0.00    +0.000 OA
ATOM      3  N   UNL     1       3.422   6.816  18.484  0.00  0.00    +0.000 N 
ATOM      4  H   UNL     1       3.470   7.052  19.469  0.00  0.00    +0.000 HD
ENDROOT
BRANCH   1   8
ATOM      5  C   UNL     1       0.313  10.393  20.303  0.00  0.00    +0.000 A 
ATOM      6  C   UNL     1       0.739   9.134  20.737  0.00  0.00    +0.000 A 
ATOM      7  C   UNL     1       1.555   8.327  19.917  0.00  0.00    +0.000 A 
ATOM      8  C   UNL     1       1.958   8.755  18.642  0.00  0.00    +0.000 A 
ATOM      9  C   UNL     1       1.479  10.011  18.206  0.00  0.00    +0.000 A 
ATOM     10  C   UNL     1       0.653  10.806  19.019  0.00  0.00    +0.000 A 
BRANCH   5  11
ATOM     11  O   UNL     1      -0.426  11.283  21.038  0.00  0.00    +0.000 OA
BRANCH  11  12
ATOM     12  C   UNL     1      -0.942  12.404  20.310  0.00  0.00    +0.000 C 
BRANCH  12  16
ATOM     13  C   UNL     1      -5.609  13.016  22.163  0.00  0.00    +0.000 C 
ATOM     14  C   UNL     1      -4.675  12.660  21.045  0.00  0.00    +0.000 A 
ATOM     15  C   UNL     1      -3.298  12.724  21.214  0.00  0.00    +0.000 A 
ATOM     16  C   UNL     1      -2.462  12.370  20.148  0.00  0.00    +0.000 A 
ATOM     17  C   UNL     1      -3.050  11.949  18.928  0.00  0.00    +0.000 A 
ATOM     18  C   UNL     1      -2.318  11.564  17.778  0.00  0.00    +0.000 A 
ATOM     19  C   UNL     1      -2.958  11.156  16.608  0.00  0.00    +0.000 A 
ATOM     20  C   UNL     1      -4.345  11.129  16.560  0.00  0.00    +0.000 A 
ATOM     21  C   UNL     1      -5.079  11.509  17.683  0.00  0.00    +0.000 A 
ATOM     22  C   UNL     1      -4.463  11.917  18.860  0.00  0.00    +0.000 A 
ATOM     23  N   UNL     1      -5.251  12.264  19.889  0.00  0.00    +0.000 NA
ENDBRANCH  12  16
ENDBRANCH  11  12
ENDBRANCH   5  11
ENDBRANCH   1   8
BRANCH   3  24
ATOM     24  C   UNL     1       4.452   5.773  18.212  0.00  0.00    +0.000 C 
ATOM     25  C   UNL     1       4.306   4.731  17.048  0.00  0.00    +0.000 C 
ATOM     26  C   UNL     1       3.460   3.474  17.233  0.00  0.00    +0.000 C 
ATOM     27  N   UNL     1       3.465   2.925  18.598  0.00  0.00    +0.000 NA
ATOM     28  C   UNL     1       3.195   4.007  19.542  0.00  0.00    +0.000 C 
ATOM     29  C   UNL     1       4.432   4.960  19.532  0.00  0.00    +0.000 C 
BRANCH  24  30
ATOM     30  C   UNL     1       5.775   6.479  17.811  0.00  0.00    +0.000 C 
BRANCH  30  31
ATOM     31  C   UNL     1       6.927   5.707  17.246  0.00  0.00    +0.000 C 
ATOM     32  O   UNL     1       7.465   5.942  16.160  0.00  0.00    +0.000 OA
ATOM     33  N   UNL     1       7.352   4.730  18.114  0.00  0.00    +0.000 N 
ATOM     34  H   UNL     1       6.948   4.552  19.031  0.00  0.00    +0.000 HD
BRANCH  33  35
ATOM     35  O   UNL     1       8.498   3.985  17.776  0.00  0.00    +0.000 OA
ATOM     36  H   UNL     1       8.390   3.173  18.319  0.00  0.00    +0.000 HD
ENDBRANCH  33  35
ENDBRANCH  30  31
ENDBRANCH  24  30
BRANCH  27  37
ATOM     37  C   UNL     1       2.527   1.780  18.643  0.00  0.00    +0.000 C 
BRANCH  37  38
ATOM     38  C   UNL     1       1.226   1.931  19.428  0.00  0.00    +0.000 C 
ATOM     39  F   UNL     1       0.215   2.165  18.537  0.00  0.00    +0.000 F 
ENDBRANCH  37  38
ENDBRANCH  27  37
ENDBRANCH   3  24
TORSDOF 10
ENDMDL
MODEL 6
REMARK VINA RESULT:      -9.0      2.144      3.198
REMARK  Name = 
REMARK  11 active torsions:
REMARK  status: ('A' for Active; 'I' for Inactive)
REMARK    1  A    between atoms: C_1  and  C_2
REMARK    2  A    between atoms: C_4  and  C_5
REMARK    3  A    between atoms: C_5  and  O_6
REMARK    4  A    between atoms: O_6  and  C_7
REMARK    5  A    between atoms: C_10  and  C_11
REMARK    6  A    between atoms: N_13  and  C_14
REMARK    7  A    between atoms: C_14  and  C_15
REMARK    8  A    between atoms: C_15  and  C_16
REMARK    9  A    between atoms: N_18  and  O_19
REMARK   10  A    between atoms: N_22  and  C_23
REMARK   11  A    between atoms: C_23  and  C_24
REMARK                            x       y       z     vdW  Elec       q    Type
REMARK                         _______ _______ _______ _____ _____    ______ ____
ROOT
ATOM      1  C   UNL     1       2.110   6.721  19.945  0.00  0.00    +0.000 C 
ATOM      2  O   UNL     1       1.992   6.015  20.937  0.00  0.00    +0.000 OA
ATOM      3  N   UNL     1       2.643   6.286  18.757  0.00  0.00    +0.000 N 
ATOM      4  H   UNL     1       2.231   6.817  17.999  0.00  0.00    +0.000 HD
ENDROOT
BRANCH   1   8
ATOM      5  C   UNL     1       0.659  10.855  19.770  0.00  0.00    +0.000 A 
ATOM      6  C   UNL     1       1.166  10.218  18.634  0.00  0.00    +0.000 A 
ATOM      7  C   UNL     1       1.644   8.892  18.705  0.00  0.00    +0.000 A 
ATOM      8  C   UNL     1       1.634   8.177  19.913  0.00  0.00    +0.000 A 
ATOM      9  C   UNL     1       1.158   8.856  21.057  0.00  0.00    +0.000 A 
ATOM     10  C   UNL     1       0.698  10.182  20.987  0.00  0.00    +0.000 A 
BRANCH   5  11
ATOM     11  O   UNL     1       0.113  12.111  19.803  0.00  0.00    +0.000 OA
BRANCH  11  12
ATOM     12  C   UNL     1      -1.008  12.320  18.935  0.00  0.00    +0.000 C 
BRANCH  12  16
ATOM     13  C   UNL     1      -3.665  13.442  23.091  0.00  0.00    +0.000 C 
ATOM     14  C   UNL     1      -3.585  12.971  21.670  0.00  0.00    +0.000 A 
ATOM     15  C   UNL     1      -2.367  12.896  21.007  0.00  0.00    +0.000 A 
ATOM     16  C   UNL     1      -2.336  12.439  19.684  0.00  0.00    +0.000 A 
ATOM     17  C   UNL     1      -3.553  12.058  19.064  0.00  0.00    +0.000 A 
ATOM     18  C   UNL     1      -3.657  11.577  17.735  0.00  0.00    +0.000 A 
ATOM     19  C   UNL     1      -4.886  11.216  17.184  0.00  0.00    +0.000 A 
ATOM     20  C   UNL     1      -6.039  11.330  17.947  0.00  0.00    +0.000 A 
ATOM     21  C   UNL     1      -5.953  11.805  19.256  0.00  0.00    +0.000 A 
ATOM     22  C   UNL     1      -4.740  12.170  19.827  0.00  0.00    +0.000 A 
ATOM     23  N   UNL     1      -4.754  12.615  21.093  0.00  0.00    +0.000 NA
ENDBRANCH  12  16
ENDBRANCH  11  12
ENDBRANCH   5  11
ENDBRANCH   1   8
BRANCH   3  24
ATOM     24  C   UNL     1       3.108   4.980  18.205  0.00  0.00    +0.000 C 
ATOM     25  C   UNL     1       4.026   4.004  19.018  0.00  0.00    +0.000 C 
ATOM     26  C   UNL     1       5.537   4.220  19.070  0.00  0.00    +0.000 C 
ATOM     27  N   UNL     1       6.118   4.788  17.844  0.00  0.00    +0.000 NA
ATOM     28  C   UNL     1       5.332   5.952  17.444  0.00  0.00    +0.000 C 
ATOM     29  C   UNL     1       3.934   5.437  16.976  0.00  0.00    +0.000 C 
BRANCH  24  30
ATOM     30  C   UNL     1       1.867   4.081  17.957  0.00  0.00    +0.000 C 
BRANCH  30  31
ATOM     31  C   UNL     1       1.469   3.020  18.936  0.00  0.00    +0.000 C 
ATOM     32  O   UNL     1       1.723   1.818  18.810  0.00  0.00    +0.000 OA
ATOM     33  N   UNL     1       0.826   3.556  20.025  0.00  0.00    +0.000 N 
ATOM     34  H   UNL     1       0.647   4.548  20.164  0.00  0.00    +0.000 HD
BRANCH  33  35
ATOM     35  O   UNL     1       0.481   2.700  21.088  0.00  0.00    +0.000 OA
ATOM     36  H   UNL     1       0.943   3.114  21.851  0.00  0.00    +0.000 HD
ENDBRANCH  33  35
ENDBRANCH  30  31
ENDBRANCH  24  30
BRANCH  27  37
ATOM     37  C   UNL     1       7.559   5.034  18.083  0.00  0.00    +0.000 C 
BRANCH  37  38
ATOM     38  C   UNL     1       7.964   5.918  19.260  0.00  0.00    +0.000 C 
ATOM     39  F   UNL     1       8.486   7.080  18.762  0.00  0.00    +0.000 F 
ENDBRANCH  37  38
ENDBRANCH  27  37
ENDBRANCH   3  24
TORSDOF 10
ENDMDL
MODEL 7
REMARK VINA RESULT:      -8.9      1.444      2.431
REMARK  Name = 
REMARK  11 active torsions:
REMARK  status: ('A' for Active; 'I' for Inactive)
REMARK    1  A    between atoms: C_1  and  C_2
REMARK    2  A    between atoms: C_4  and  C_5
REMARK    3  A    between atoms: C_5  and  O_6
REMARK    4  A    between atoms: O_6  and  C_7
REMARK    5  A    between atoms: C_10  and  C_11
REMARK    6  A    between atoms: N_13  and  C_14
REMARK    7  A    between atoms: C_14  and  C_15
REMARK    8  A    between atoms: C_15  and  C_16
REMARK    9  A    between atoms: N_18  and  O_19
REMARK   10  A    between atoms: N_22  and  C_23
REMARK   11  A    between atoms: C_23  and  C_24
REMARK                            x       y       z     vdW  Elec       q    Type
REMARK                         _______ _______ _______ _____ _____    ______ ____
ROOT
ATOM      1  C   UNL     1       3.097   5.877  19.489  0.00  0.00    +0.000 C 
ATOM      2  O   UNL     1       2.826   5.171  20.451  0.00  0.00    +0.000 OA
ATOM      3  N   UNL     1       3.973   5.512  18.497  0.00  0.00    +0.000 N 
ATOM      4  H   UNL     1       3.700   5.970  17.635  0.00  0.00    +0.000 HD
ENDROOT
BRANCH   1   8
ATOM      5  C   UNL     1       1.178   9.752  18.760  0.00  0.00    +0.000 A 
ATOM      6  C   UNL     1       1.993   9.156  17.795  0.00  0.00    +0.000 A 
ATOM      7  C   UNL     1       2.618   7.916  18.045  0.00  0.00    +0.000 A 
ATOM      8  C   UNL     1       2.449   7.248  19.269  0.00  0.00    +0.000 A 
ATOM      9  C   UNL     1       1.656   7.891  20.246  0.00  0.00    +0.000 A 
ATOM     10  C   UNL     1       1.049   9.134  20.000  0.00  0.00    +0.000 A 
BRANCH   5  11
ATOM     11  O   UNL     1       0.475  10.918  18.602  0.00  0.00    +0.000 OA
BRANCH  11  12
ATOM     12  C   UNL     1      -0.911  10.762  18.272  0.00  0.00    +0.000 C 
BRANCH  12  16
ATOM     13  C   UNL     1      -1.867  12.888  22.762  0.00  0.00    +0.000 C 
ATOM     14  C   UNL     1      -2.287  12.497  21.376  0.00  0.00    +0.000 A 
ATOM     15  C   UNL     1      -1.408  11.853  20.515  0.00  0.00    +0.000 A 
ATOM     16  C   UNL     1      -1.846  11.494  19.235  0.00  0.00    +0.000 A 
ATOM     17  C   UNL     1      -3.181  11.793  18.860  0.00  0.00    +0.000 A 
ATOM     18  C   UNL     1      -3.746  11.481  17.598  0.00  0.00    +0.000 A 
ATOM     19  C   UNL     1      -5.068  11.801  17.292  0.00  0.00    +0.000 A 
ATOM     20  C   UNL     1      -5.855  12.442  18.239  0.00  0.00    +0.000 A 
ATOM     21  C   UNL     1      -5.311  12.758  19.484  0.00  0.00    +0.000 A 
ATOM     22  C   UNL     1      -3.997  12.449  19.812  0.00  0.00    +0.000 A 
ATOM     23  N   UNL     1      -3.561  12.791  21.034  0.00  0.00    +0.000 NA
ENDBRANCH  12  16
ENDBRANCH  11  12
ENDBRANCH   5  11
ENDBRANCH   1   8
BRANCH   3  24
ATOM     24  C   UNL     1       4.739   4.283  18.143  0.00  0.00    +0.000 C 
ATOM     25  C   UNL     1       6.307   4.249  18.114  0.00  0.00    +0.000 C 
ATOM     26  C   UNL     1       7.072   4.760  16.896  0.00  0.00    +0.000 C 
ATOM     27  N   UNL     1       6.395   4.540  15.609  0.00  0.00    +0.000 NA
ATOM     28  C   UNL     1       5.013   5.001  15.719  0.00  0.00    +0.000 C 
ATOM     29  C   UNL     1       4.269   4.029  16.688  0.00  0.00    +0.000 C 
BRANCH  24  30
ATOM     30  C   UNL     1       4.440   3.192  19.207  0.00  0.00    +0.000 C 
BRANCH  30  31
ATOM     31  C   UNL     1       3.498   2.064  18.919  0.00  0.00    +0.000 C 
ATOM     32  O   UNL     1       3.846   0.917  18.624  0.00  0.00    +0.000 OA
ATOM     33  N   UNL     1       2.189   2.450  19.074  0.00  0.00    +0.000 N 
ATOM     34  H   UNL     1       1.887   3.380  19.357  0.00  0.00    +0.000 HD
BRANCH  33  35
ATOM     35  O   UNL     1       1.182   1.474  18.943  0.00  0.00    +0.000 OA
ATOM     36  H   UNL     1       0.422   1.998  18.607  0.00  0.00    +0.000 HD
ENDBRANCH  33  35
ENDBRANCH  30  31
ENDBRANCH  24  30
BRANCH  27  37
ATOM     37  C   UNL     1       7.204   5.175  14.543  0.00  0.00    +0.000 C 
BRANCH  37  38
ATOM     38  C   UNL     1       7.183   4.562  13.145  0.00  0.00    +0.000 C 
ATOM     39  F   UNL     1       6.316   3.503  13.157  0.00  0.00    +0.000 F 
ENDBRANCH  37  38
ENDBRANCH  27  37
ENDBRANCH   3  24
TORSDOF 10
ENDMDL
MODEL 8
REMARK VINA RESULT:      -8.9      1.692      1.856
REMARK  Name = 
REMARK  11 active torsions:
REMARK  status: ('A' for Active; 'I' for Inactive)
REMARK    1  A    between atoms: C_1  and  C_2
REMARK    2  A    between atoms: C_4  and  C_5
REMARK    3  A    between atoms: C_5  and  O_6
REMARK    4  A    between atoms: O_6  and  C_7
REMARK    5  A    between atoms: C_10  and  C_11
REMARK    6  A    between atoms: N_13  and  C_14
REMARK    7  A    between atoms: C_14  and  C_15
REMARK    8  A    between atoms: C_15  and  C_16
REMARK    9  A    between atoms: N_18  and  O_19
REMARK   10  A    between atoms: N_22  and  C_23
REMARK   11  A    between atoms: C_23  and  C_24
REMARK                            x       y       z     vdW  Elec       q    Type
REMARK                         _______ _______ _______ _____ _____    ______ ____
ROOT
ATOM      1  C   UNL     1       2.124   6.510  20.270  0.00  0.00    +0.000 C 
ATOM      2  O   UNL     1       1.886   5.643  21.100  0.00  0.00    +0.000 OA
ATOM      3  N   UNL     1       2.979   6.338  19.211  0.00  0.00    +0.000 N 
ATOM      4  H   UNL     1       2.680   6.935  18.449  0.00  0.00    +0.000 HD
ENDROOT
BRANCH   1   8
ATOM      5  C   UNL     1       0.143  10.422  20.276  0.00  0.00    +0.000 A 
ATOM      6  C   UNL     1       0.946  10.019  19.205  0.00  0.00    +0.000 A 
ATOM      7  C   UNL     1       1.591   8.765  19.220  0.00  0.00    +0.000 A 
ATOM      8  C   UNL     1       1.455   7.888  20.309  0.00  0.00    +0.000 A 
ATOM      9  C   UNL     1       0.675   8.335  21.399  0.00  0.00    +0.000 A 
ATOM     10  C   UNL     1       0.047   9.592  21.388  0.00  0.00    +0.000 A 
BRANCH   5  11
ATOM     11  O   UNL     1      -0.577  11.586  20.339  0.00  0.00    +0.000 OA
BRANCH  11  12
ATOM     12  C   UNL     1      -0.797  12.244  19.085  0.00  0.00    +0.000 C 
BRANCH  12  16
ATOM     13  C   UNL     1      -3.044  10.002  15.145  0.00  0.00    +0.000 C 
ATOM     14  C   UNL     1      -3.105  10.690  16.476  0.00  0.00    +0.000 A 
ATOM     15  C   UNL     1      -1.947  11.103  17.123  0.00  0.00    +0.000 A 
ATOM     16  C   UNL     1      -2.051  11.753  18.359  0.00  0.00    +0.000 A 
ATOM     17  C   UNL     1      -3.339  11.977  18.909  0.00  0.00    +0.000 A 
ATOM     18  C   UNL     1      -3.579  12.623  20.146  0.00  0.00    +0.000 A 
ATOM     19  C   UNL     1      -4.873  12.814  20.631  0.00  0.00    +0.000 A 
ATOM     20  C   UNL     1      -5.955  12.360  19.891  0.00  0.00    +0.000 A 
ATOM     21  C   UNL     1      -5.734  11.719  18.672  0.00  0.00    +0.000 A 
ATOM     22  C   UNL     1      -4.455  11.518  18.169  0.00  0.00    +0.000 A 
ATOM     23  N   UNL     1      -4.339  10.892  16.987  0.00  0.00    +0.000 NA
ENDBRANCH  12  16
ENDBRANCH  11  12
ENDBRANCH   5  11
ENDBRANCH   1   8
BRANCH   3  24
ATOM     24  C   UNL     1       3.751   5.202  18.630  0.00  0.00    +0.000 C 
ATOM     25  C   UNL     1       5.152   4.768  19.183  0.00  0.00    +0.000 C 
ATOM     26  C   UNL     1       6.419   5.505  18.753  0.00  0.00    +0.000 C 
ATOM     27  N   UNL     1       6.395   6.013  17.372  0.00  0.00    +0.000 NA
ATOM     28  C   UNL     1       5.145   6.738  17.159  0.00  0.00    +0.000 C 
ATOM     29  C   UNL     1       3.985   5.693  17.178  0.00  0.00    +0.000 C 
BRANCH  24  30
ATOM     30  C   UNL     1       2.936   3.897  18.835  0.00  0.00    +0.000 C 
BRANCH  30  31
ATOM     31  C   UNL     1       3.590   2.642  19.325  0.00  0.00    +0.000 C 
ATOM     32  O   UNL     1       3.763   2.358  20.514  0.00  0.00    +0.000 OA
ATOM     33  N   UNL     1       3.929   1.812  18.284  0.00  0.00    +0.000 N 
ATOM     34  H   UNL     1       3.754   2.011  17.301  0.00  0.00    +0.000 HD
BRANCH  33  35
ATOM     35  O   UNL     1       4.457   0.541  18.583  0.00  0.00    +0.000 OA
ATOM     36  H   UNL     1       5.374   0.755  18.864  0.00  0.00    +0.000 HD
ENDBRANCH  33  35
ENDBRANCH  30  31
ENDBRANCH  24  30
BRANCH  27  37
ATOM     37  C   UNL     1       7.637   6.785  17.140  0.00  0.00    +0.000 C 
BRANCH  37  38
ATOM     38  C   UNL     1       8.084   7.788  18.201  0.00  0.00    +0.000 C 
ATOM     39  F   UNL     1       7.963   9.046  17.677  0.00  0.00    +0.000 F 
ENDBRANCH  37  38
ENDBRANCH  27  37
ENDBRANCH   3  24
TORSDOF 10
ENDMDL
MODEL 9
REMARK VINA RESULT:      -8.8      2.614      4.425
REMARK  Name = 
REMARK  11 active torsions:
REMARK  status: ('A' for Active; 'I' for Inactive)
REMARK    1  A    between atoms: C_1  and  C_2
REMARK    2  A    between atoms: C_4  and  C_5
REMARK    3  A    between atoms: C_5  and  O_6
REMARK    4  A    between atoms: O_6  and  C_7
REMARK    5  A    between atoms: C_10  and  C_11
REMARK    6  A    between atoms: N_13  and  C_14
REMARK    7  A    between atoms: C_14  and  C_15
REMARK    8  A    between atoms: C_15  and  C_16
REMARK    9  A    between atoms: N_18  and  O_19
REMARK   10  A    between atoms: N_22  and  C_23
REMARK   11  A    between atoms: C_23  and  C_24
REMARK                            x       y       z     vdW  Elec       q    Type
REMARK                         _______ _______ _______ _____ _____    ______ ____
ROOT
ATOM      1  C   UNL     1       3.341   7.257  17.869  0.00  0.00    +0.000 C 
ATOM      2  O   UNL     1       4.410   7.644  17.414  0.00  0.00    +0.000 OA
ATOM      3  N   UNL     1       2.931   5.948  17.848  0.00  0.00    +0.000 N 
ATOM      4  H   UNL     1       2.316   5.785  18.636  0.00  0.00    +0.000 HD
ENDROOT
BRANCH   1   8
ATOM      5  C   UNL     1       0.421   9.945  19.735  0.00  0.00    +0.000 A 
ATOM      6  C   UNL     1       0.896  10.178  18.442  0.00  0.00    +0.000 A 
ATOM      7  C   UNL     1       1.847   9.316  17.856  0.00  0.00    +0.000 A 
ATOM      8  C   UNL     1       2.350   8.205  18.553  0.00  0.00    +0.000 A 
ATOM      9  C   UNL     1       1.889   8.014  19.875  0.00  0.00    +0.000 A 
ATOM     10  C   UNL     1       0.954   8.885  20.461  0.00  0.00    +0.000 A 
BRANCH   5  11
ATOM     11  O   UNL     1      -0.544  10.677  20.375  0.00  0.00    +0.000 OA
BRANCH  11  12
ATOM     12  C   UNL     1      -0.883  11.925  19.756  0.00  0.00    +0.000 C 
BRANCH  12  16
ATOM     13  C   UNL     1      -5.637  13.193  20.935  0.00  0.00    +0.000 C 
ATOM     14  C   UNL     1      -4.622  12.640  19.978  0.00  0.00    +0.000 A 
ATOM     15  C   UNL     1      -3.278  12.573  20.319  0.00  0.00    +0.000 A 
ATOM     16  C   UNL     1      -2.366  12.038  19.401  0.00  0.00    +0.000 A 
ATOM     17  C   UNL     1      -2.848  11.574  18.150  0.00  0.00    +0.000 A 
ATOM     18  C   UNL     1      -2.032  11.011  17.138  0.00  0.00    +0.000 A 
ATOM     19  C   UNL     1      -2.570  10.570  15.929  0.00  0.00    +0.000 A 
ATOM     20  C   UNL     1      -3.934  10.686  15.703  0.00  0.00    +0.000 A 
ATOM     21  C   UNL     1      -4.749  11.241  16.689  0.00  0.00    +0.000 A 
ATOM     22  C   UNL     1      -4.237  11.686  17.901  0.00  0.00    +0.000 A 
ATOM     23  N   UNL     1      -5.097  12.206  18.791  0.00  0.00    +0.000 NA
ENDBRANCH  12  16
ENDBRANCH  11  12
ENDBRANCH   5  11
ENDBRANCH   1   8
BRANCH   3  24
ATOM     24  C   UNL     1       3.536   4.642  17.457  0.00  0.00    +0.000 C 
ATOM     25  C   UNL     1       2.668   3.371  17.157  0.00  0.00    +0.000 C 
ATOM     26  C   UNL     1       2.155   2.494  18.296  0.00  0.00    +0.000 C 
ATOM     27  N   UNL     1       3.055   2.406  19.456  0.00  0.00    +0.000 NA
ATOM     28  C   UNL     1       3.463   3.755  19.839  0.00  0.00    +0.000 C 
ATOM     29  C   UNL     1       4.388   4.305  18.708  0.00  0.00    +0.000 C 
BRANCH  24  30
ATOM     30  C   UNL     1       4.271   4.825  16.102  0.00  0.00    +0.000 C 
BRANCH  30  31
ATOM     31  C   UNL     1       5.766   4.791  16.019  0.00  0.00    +0.000 C 
ATOM     32  O   UNL     1       6.439   3.763  15.901  0.00  0.00    +0.000 OA
ATOM     33  N   UNL     1       6.300   6.057  16.037  0.00  0.00    +0.000 N 
ATOM     34  H   UNL     1       5.756   6.916  16.091  0.00  0.00    +0.000 HD
BRANCH  33  35
ATOM     35  O   UNL     1       7.689   6.201  15.858  0.00  0.00    +0.000 OA
ATOM     36  H   UNL     1       7.770   6.257  14.880  0.00  0.00    +0.000 HD
ENDBRANCH  33  35
ENDBRANCH  30  31
ENDBRANCH  24  30
BRANCH  27  37
ATOM     37  C   UNL     1       2.380   1.612  20.509  0.00  0.00    +0.000 C 
BRANCH  37  38
ATOM     38  C   UNL     1       1.947   2.318  21.792  0.00  0.00    +0.000 C 
ATOM     39  F   UNL     1       0.703   2.848  21.589  0.00  0.00    +0.000 F 
ENDBRANCH  37  38
ENDBRANCH  27  37
ENDBRANCH   3  24
TORSDOF 10
ENDMDL
