MODEL 1
REMARK VINA RESULT:      -8.5      0.000      0.000
REMARK  Name = 
REMARK  3 active torsions:
REMARK  status: ('A' for Active; 'I' for Inactive)
REMARK    1  A    between atoms: C_1  and  C_2
REMARK    2  A    between atoms: C_7  and  N_8
REMARK    3  A    between atoms: N_8  and  C_9
REMARK                            x       y       z     vdW  Elec       q    Type
REMARK                         _______ _______ _______ _____ _____    ______ ____
ROOT
ATOM      1  C   UNL     1       2.273   5.657  19.938  0.00  0.00    +0.000 A 
ATOM      2  N   UNL     1       1.371   5.021  20.733  0.00  0.00    +0.000 NA
ATOM      3  C   UNL     1       1.125   3.722  20.566  0.00  0.00    +0.000 A 
ATOM      4  N   UNL     1       1.677   2.920  19.667  0.00  0.00    +0.000 NA
ATOM      5  C   UNL     1       2.529   3.564  18.855  0.00  0.00    +0.000 A 
ATOM      6  S   UNL     1       3.318   2.686  17.641  0.00  0.00    +0.000 S 
ATOM      7  C   UNL     1       4.126   4.078  17.058  0.00  0.00    +0.000 A 
ATOM      8  C   UNL     1       5.013   4.109  15.961  0.00  0.00    +0.000 A 
ATOM      9  C   UNL     1       5.593   5.318  15.593  0.00  0.00    +0.000 A 
ATOM     10  C   UNL     1       5.301   6.472  16.300  0.00  0.00    +0.000 A 
ATOM     11  C   UNL     1       4.423   6.435  17.392  0.00  0.00    +0.000 A 
ATOM     12  C   UNL     1       3.809   5.220  17.804  0.00  0.00    +0.000 A 
ATOM     13  C   UNL     1       2.872   4.911  18.888  0.00  0.00    +0.000 A 
ENDROOT
BRANCH   1  14
ATOM     14  N   UNL     1       2.544   7.013  20.224  0.00  0.00    +0.000 N 
ATOM     15  H   UNL     1       2.794   7.179  21.187  0.00  0.00    +0.000 HD
BRANCH  14  22
ATOM     16  C   UNL     1       0.942   8.705  22.025  0.00  0.00    +0.000 C 
ATOM     17  C   UNL     1       1.039   8.941  20.543  0.00  0.00    +0.000 A 
ATOM     18  C   UNL     1       0.314  10.011  19.986  0.00  0.00    +0.000 A 
ATOM     19  C   UNL     1       0.367  10.282  18.620  0.00  0.00    +0.000 A 
ATOM     20  C   UNL     1       1.135   9.480  17.787  0.00  0.00    +0.000 A 
ATOM     21  C   UNL     1       1.849   8.412  18.326  0.00  0.00    +0.000 A 
ATOM     22  C   UNL     1       1.826   8.125  19.704  0.00  0.00    +0.000 A 
ENDBRANCH  14  22
ENDBRANCH   1  14
TORSDOF 2
ENDMDL
MODEL 2
REMARK VINA RESULT:      -8.5      0.507      1.583
REMARK  Name = 
REMARK  3 active torsions:
REMARK  status: ('A' for Active; 'I' for Inactive)
REMARK    1  A    between atoms: C_1  and  C_2
REMARK    2  A    between atoms: C_7  and  N_8
REMARK    3  A    between atoms: N_8  and  C_9
REMARK                            x       y       z     vdW  Elec       q    Type
REMARK                         _______ _______ _______ _____ _____    ______ ____
ROOT
ATOM      1  C   UNL     1       2.281   5.743  19.856  0.00  0.00    +0.000 A 
ATOM      2  N   UNL     1       1.384   5.129  20.675  0.00  0.00    +0.000 NA
ATOM      3  C   UNL     1       1.133   3.827  20.543  0.00  0.00    +0.000 A 
ATOM      4  N   UNL     1       1.675   3.001  19.660  0.00  0.00    +0.000 NA
ATOM      5  C   UNL     1       2.522   3.622  18.825  0.00  0.00    +0.000 A 
ATOM      6  S   UNL     1       3.298   2.711  17.627  0.00  0.00    +0.000 S 
ATOM      7  C   UNL     1       4.106   4.086  17.001  0.00  0.00    +0.000 A 
ATOM      8  C   UNL     1       4.983   4.087  15.897  0.00  0.00    +0.000 A 
ATOM      9  C   UNL     1       5.562   5.284  15.492  0.00  0.00    +0.000 A 
ATOM     10  C   UNL     1       5.279   6.457  16.173  0.00  0.00    +0.000 A 
ATOM     11  C   UNL     1       4.411   6.450  17.272  0.00  0.00    +0.000 A 
ATOM     12  C   UNL     1       3.797   5.247  17.721  0.00  0.00    +0.000 A 
ATOM     13  C   UNL     1       2.869   4.969  18.820  0.00  0.00    +0.000 A 
ENDROOT
BRANCH   1  14
ATOM     14  N   UNL     1       2.557   7.105  20.105  0.00  0.00    +0.000 N 
ATOM     15  H   UNL     1       3.307   7.250  20.763  0.00  0.00    +0.000 HD
BRANCH  14  22
ATOM     16  C   UNL     1       1.932   8.837  17.807  0.00  0.00    +0.000 C 
ATOM     17  C   UNL     1       1.279   8.987  19.153  0.00  0.00    +0.000 A 
ATOM     18  C   UNL     1       0.336  10.017  19.329  0.00  0.00    +0.000 A 
ATOM     19  C   UNL     1      -0.306  10.203  20.553  0.00  0.00    +0.000 A 
ATOM     20  C   UNL     1      -0.007   9.371  21.622  0.00  0.00    +0.000 A 
ATOM     21  C   UNL     1       0.933   8.354  21.462  0.00  0.00    +0.000 A 
ATOM     22  C   UNL     1       1.584   8.133  20.235  0.00  0.00    +0.000 A 
ENDBRANCH  14  22
ENDBRANCH   1  14
TORSDOF 2
ENDMDL
MODEL 3
REMARK VINA RESULT:      -7.8      2.840      6.827
REMARK  Name = 
REMARK  3 active torsions:
REMARK  status: ('A' for Active; 'I' for Inactive)
REMARK    1  A    between atoms: C_1  and  C_2
REMARK    2  A    between atoms: C_7  and  N_8
REMARK    3  A    between atoms: N_8  and  C_9
REMARK                            x       y       z     vdW  Elec       q    Type
REMARK                         _______ _______ _______ _____ _____    ______ ____
ROOT
ATOM      1  C   UNL     1       2.178   7.621  19.560  0.00  0.00    +0.000 A 
ATOM      2  N   UNL     1       2.664   7.463  18.300  0.00  0.00    +0.000 NA
ATOM      3  C   UNL     1       2.486   8.417  17.385  0.00  0.00    +0.000 A 
ATOM      4  N   UNL     1       1.855   9.569  17.554  0.00  0.00    +0.000 NA
ATOM      5  C   UNL     1       1.336   9.697  18.785  0.00  0.00    +0.000 A 
ATOM      6  S   UNL     1       0.488  11.112  19.168  0.00  0.00    +0.000 S 
ATOM      7  C   UNL     1       0.136  10.560  20.751  0.00  0.00    +0.000 A 
ATOM      8  C   UNL     1      -0.611  11.267  21.716  0.00  0.00    +0.000 A 
ATOM      9  C   UNL     1      -0.826  10.690  22.963  0.00  0.00    +0.000 A 
ATOM     10  C   UNL     1      -0.307   9.438  23.247  0.00  0.00    +0.000 A 
ATOM     11  C   UNL     1       0.439   8.742  22.287  0.00  0.00    +0.000 A 
ATOM     12  C   UNL     1       0.685   9.295  20.999  0.00  0.00    +0.000 A 
ATOM     13  C   UNL     1       1.417   8.789  19.835  0.00  0.00    +0.000 A 
ENDROOT
BRANCH   1  14
ATOM     14  N   UNL     1       2.474   6.608  20.499  0.00  0.00    +0.000 N 
ATOM     15  H   UNL     1       3.302   6.793  21.043  0.00  0.00    +0.000 HD
BRANCH  14  22
ATOM     16  C   UNL     1       4.761   5.038  19.512  0.00  0.00    +0.000 C 
ATOM     17  C   UNL     1       3.410   4.440  19.787  0.00  0.00    +0.000 A 
ATOM     18  C   UNL     1       3.223   3.066  19.544  0.00  0.00    +0.000 A 
ATOM     19  C   UNL     1       1.993   2.454  19.784  0.00  0.00    +0.000 A 
ATOM     20  C   UNL     1       0.929   3.207  20.258  0.00  0.00    +0.000 A 
ATOM     21  C   UNL     1       1.100   4.571  20.493  0.00  0.00    +0.000 A 
ATOM     22  C   UNL     1       2.333   5.211  20.275  0.00  0.00    +0.000 A 
ENDBRANCH  14  22
ENDBRANCH   1  14
TORSDOF 2
ENDMDL
MODEL 4
REMARK VINA RESULT:      -7.4      2.239      5.270
REMARK  Name = 
REMARK  3 active torsions:
REMARK  status: ('A' for Active; 'I' for Inactive)
REMARK    1  A    between atoms: C_1  and  C_2
REMARK    2  A    between atoms: C_7  and  N_8
REMARK    3  A    between atoms: N_8  and  C_9
REMARK                            x       y       z     vdW  Elec       q    Type
REMARK                         _______ _______ _______ _____ _____    ______ ____
ROOT
ATOM      1  C   UNL     1       3.916   3.548  17.875  0.00  0.00    +0.000 A 
ATOM      2  N   UNL     1       4.086   2.203  17.757  0.00  0.00    +0.000 NA
ATOM      3  C   UNL     1       3.353   1.365  18.490  0.00  0.00    +0.000 A 
ATOM      4  N   UNL     1       2.425   1.692  19.378  0.00  0.00    +0.000 NA
ATOM      5  C   UNL     1       2.297   3.020  19.524  0.00  0.00    +0.000 A 
ATOM      6  S   UNL     1       1.157   3.610  20.628  0.00  0.00    +0.000 S 
ATOM      7  C   UNL     1       1.577   5.238  20.304  0.00  0.00    +0.000 A 
ATOM      8  C   UNL     1       1.003   6.370  20.920  0.00  0.00    +0.000 A 
ATOM      9  C   UNL     1       1.451   7.637  20.563  0.00  0.00    +0.000 A 
ATOM     10  C   UNL     1       2.448   7.778  19.611  0.00  0.00    +0.000 A 
ATOM     11  C   UNL     1       3.011   6.651  18.999  0.00  0.00    +0.000 A 
ATOM     12  C   UNL     1       2.583   5.336  19.333  0.00  0.00    +0.000 A 
ATOM     13  C   UNL     1       2.998   4.016  18.853  0.00  0.00    +0.000 A 
ENDROOT
BRANCH   1  14
ATOM     14  N   UNL     1       4.667   4.373  17.009  0.00  0.00    +0.000 N 
ATOM     15  H   UNL     1       4.898   3.932  16.132  0.00  0.00    +0.000 HD
BRANCH  14  22
ATOM     16  C   UNL     1       5.004   6.966  15.656  0.00  0.00    +0.000 C 
ATOM     17  C   UNL     1       5.903   6.492  16.764  0.00  0.00    +0.000 A 
ATOM     18  C   UNL     1       6.970   7.321  17.162  0.00  0.00    +0.000 A 
ATOM     19  C   UNL     1       7.835   6.938  18.186  0.00  0.00    +0.000 A 
ATOM     20  C   UNL     1       7.655   5.716  18.819  0.00  0.00    +0.000 A 
ATOM     21  C   UNL     1       6.608   4.884  18.427  0.00  0.00    +0.000 A 
ATOM     22  C   UNL     1       5.711   5.252  17.408  0.00  0.00    +0.000 A 
ENDBRANCH  14  22
ENDBRANCH   1  14
TORSDOF 2
ENDMDL
MODEL 5
REMARK VINA RESULT:      -7.3      2.803      6.829
REMARK  Name = 
REMARK  3 active torsions:
REMARK  status: ('A' for Active; 'I' for Inactive)
REMARK    1  A    between atoms: C_1  and  C_2
REMARK    2  A    between atoms: C_7  and  N_8
REMARK    3  A    between atoms: N_8  and  C_9
REMARK                            x       y       z     vdW  Elec       q    Type
REMARK                         _______ _______ _______ _____ _____    ______ ____
ROOT
ATOM      1  C   UNL     1       2.127   7.697  19.460  0.00  0.00    +0.000 A 
ATOM      2  N   UNL     1       2.614   7.605  18.193  0.00  0.00    +0.000 NA
ATOM      3  C   UNL     1       2.467   8.619  17.340  0.00  0.00    +0.000 A 
ATOM      4  N   UNL     1       1.867   9.776  17.581  0.00  0.00    +0.000 NA
ATOM      5  C   UNL     1       1.347   9.840  18.816  0.00  0.00    +0.000 A 
ATOM      6  S   UNL     1       0.537  11.251  19.286  0.00  0.00    +0.000 S 
ATOM      7  C   UNL     1       0.163  10.611  20.829  0.00  0.00    +0.000 A 
ATOM      8  C   UNL     1      -0.569  11.276  21.835  0.00  0.00    +0.000 A 
ATOM      9  C   UNL     1      -0.805  10.627  23.042  0.00  0.00    +0.000 A 
ATOM     10  C   UNL     1      -0.323   9.345  23.248  0.00  0.00    +0.000 A 
ATOM     11  C   UNL     1       0.408   8.691  22.247  0.00  0.00    +0.000 A 
ATOM     12  C   UNL     1       0.675   9.317  20.998  0.00  0.00    +0.000 A 
ATOM     13  C   UNL     1       1.397   8.865  19.806  0.00  0.00    +0.000 A 
ENDROOT
BRANCH   1  14
ATOM     14  N   UNL     1       2.390   6.618  20.333  0.00  0.00    +0.000 N 
ATOM     15  H   UNL     1       2.704   6.906  21.246  0.00  0.00    +0.000 HD
BRANCH  14  22
ATOM     16  C   UNL     1       0.861   4.105  20.460  0.00  0.00    +0.000 C 
ATOM     17  C   UNL     1       2.301   4.172  20.033  0.00  0.00    +0.000 A 
ATOM     18  C   UNL     1       2.956   2.973  19.694  0.00  0.00    +0.000 A 
ATOM     19  C   UNL     1       4.290   2.972  19.287  0.00  0.00    +0.000 A 
ATOM     20  C   UNL     1       4.992   4.166  19.223  0.00  0.00    +0.000 A 
ATOM     21  C   UNL     1       4.356   5.359  19.565  0.00  0.00    +0.000 A 
ATOM     22  C   UNL     1       3.008   5.391  19.964  0.00  0.00    +0.000 A 
ENDBRANCH  14  22
ENDBRANCH   1  14
TORSDOF 2
ENDMDL
MODEL 6
REMARK VINA RESULT:      -7.2      2.384      5.283
REMARK  Name = 
REMARK  3 active torsions:
REMARK  status: ('A' for Active; 'I' for Inactive)
REMARK    1  A    between atoms: C_1  and  C_2
REMARK    2  A    between atoms: C_7  and  N_8
REMARK    3  A    between atoms: N_8  and  C_9
REMARK                            x       y       z     vdW  Elec       q    Type
REMARK                         _______ _______ _______ _____ _____    ______ ____
ROOT
ATOM      1  C   UNL     1       4.723   3.538  19.198  0.00  0.00    +0.000 A 
ATOM      2  N   UNL     1       4.812   2.398  19.936  0.00  0.00    +0.000 NA
ATOM      3  C   UNL     1       3.899   2.128  20.869  0.00  0.00    +0.000 A 
ATOM      4  N   UNL     1       2.852   2.873  21.192  0.00  0.00    +0.000 NA
ATOM      5  C   UNL     1       2.798   4.018  20.494  0.00  0.00    +0.000 A 
ATOM      6  S   UNL     1       1.523   5.093  20.790  0.00  0.00    +0.000 S 
ATOM      7  C   UNL     1       2.116   6.224  19.649  0.00  0.00    +0.000 A 
ATOM      8  C   UNL     1       1.525   7.470  19.350  0.00  0.00    +0.000 A 
ATOM      9  C   UNL     1       2.123   8.294  18.403  0.00  0.00    +0.000 A 
ATOM     10  C   UNL     1       3.283   7.889  17.764  0.00  0.00    +0.000 A 
ATOM     11  C   UNL     1       3.863   6.649  18.062  0.00  0.00    +0.000 A 
ATOM     12  C   UNL     1       3.285   5.774  19.022  0.00  0.00    +0.000 A 
ATOM     13  C   UNL     1       3.681   4.451  19.510  0.00  0.00    +0.000 A 
ENDROOT
BRANCH   1  14
ATOM     14  N   UNL     1       5.678   3.719  18.173  0.00  0.00    +0.000 N 
ATOM     15  H   UNL     1       6.260   2.911  18.016  0.00  0.00    +0.000 HD
BRANCH  14  22
ATOM     16  C   UNL     1       5.762   4.889  15.472  0.00  0.00    +0.000 C 
ATOM     17  C   UNL     1       6.487   5.481  16.649  0.00  0.00    +0.000 A 
ATOM     18  C   UNL     1       7.259   6.641  16.446  0.00  0.00    +0.000 A 
ATOM     19  C   UNL     1       7.951   7.238  17.499  0.00  0.00    +0.000 A 
ATOM     20  C   UNL     1       7.893   6.678  18.768  0.00  0.00    +0.000 A 
ATOM     21  C   UNL     1       7.139   5.524  18.978  0.00  0.00    +0.000 A 
ATOM     22  C   UNL     1       6.418   4.910  17.937  0.00  0.00    +0.000 A 
ENDBRANCH  14  22
ENDBRANCH   1  14
TORSDOF 2
ENDMDL
MODEL 7
REMARK VINA RESULT:      -7.1      2.416      5.883
REMARK  Name = 
REMARK  3 active torsions:
REMARK  status: ('A' for Active; 'I' for Inactive)
REMARK    1  A    between atoms: C_1  and  C_2
REMARK    2  A    between atoms: C_7  and  N_8
REMARK    3  A    between atoms: N_8  and  C_9
REMARK                            x       y       z     vdW  Elec       q    Type
REMARK                         _______ _______ _______ _____ _____    ______ ____
ROOT
ATOM      1  C   UNL     1       3.375   7.261  17.583  0.00  0.00    +0.000 A 
ATOM      2  N   UNL     1       3.001   8.541  17.317  0.00  0.00    +0.000 NA
ATOM      3  C   UNL     1       2.189   9.192  18.150  0.00  0.00    +0.000 A 
ATOM      4  N   UNL     1       1.664   8.723  19.272  0.00  0.00    +0.000 NA
ATOM      5  C   UNL     1       1.998   7.444  19.503  0.00  0.00    +0.000 A 
ATOM      6  S   UNL     1       1.403   6.686  20.895  0.00  0.00    +0.000 S 
ATOM      7  C   UNL     1       2.163   5.202  20.501  0.00  0.00    +0.000 A 
ATOM      8  C   UNL     1       2.087   4.017  21.261  0.00  0.00    +0.000 A 
ATOM      9  C   UNL     1       2.752   2.880  20.814  0.00  0.00    +0.000 A 
ATOM     10  C   UNL     1       3.479   2.920  19.636  0.00  0.00    +0.000 A 
ATOM     11  C   UNL     1       3.556   4.102  18.887  0.00  0.00    +0.000 A 
ATOM     12  C   UNL     1       2.893   5.288  19.308  0.00  0.00    +0.000 A 
ATOM     13  C   UNL     1       2.811   6.629  18.723  0.00  0.00    +0.000 A 
ENDROOT
BRANCH   1  14
ATOM     14  N   UNL     1       4.301   6.662  16.700  0.00  0.00    +0.000 N 
ATOM     15  H   UNL     1       3.868   6.142  15.953  0.00  0.00    +0.000 HD
BRANCH  14  22
ATOM     16  C   UNL     1       5.331   4.362  15.177  0.00  0.00    +0.000 C 
ATOM     17  C   UNL     1       6.031   4.934  16.378  0.00  0.00    +0.000 A 
ATOM     18  C   UNL     1       7.227   4.328  16.808  0.00  0.00    +0.000 A 
ATOM     19  C   UNL     1       7.924   4.816  17.913  0.00  0.00    +0.000 A 
ATOM     20  C   UNL     1       7.429   5.906  18.613  0.00  0.00    +0.000 A 
ATOM     21  C   UNL     1       6.240   6.508  18.203  0.00  0.00    +0.000 A 
ATOM     22  C   UNL     1       5.525   6.047  17.082  0.00  0.00    +0.000 A 
ENDBRANCH  14  22
ENDBRANCH   1  14
TORSDOF 2
ENDMDL
MODEL 8
REMARK VINA RESULT:      -6.9      2.124      5.661
REMARK  Name = 
REMARK  3 active torsions:
REMARK  status: ('A' for Active; 'I' for Inactive)
REMARK    1  A    between atoms: C_1  and  C_2
REMARK    2  A    between atoms: C_7  and  N_8
REMARK    3  A    between atoms: N_8  and  C_9
REMARK                            x       y       z     vdW  Elec       q    Type
REMARK                         _______ _______ _______ _____ _____    ______ ____
ROOT
ATOM      1  C   UNL     1       3.415   6.955  17.781  0.00  0.00    +0.000 A 
ATOM      2  N   UNL     1       3.034   8.242  18.005  0.00  0.00    +0.000 NA
ATOM      3  C   UNL     1       2.168   8.527  18.978  0.00  0.00    +0.000 A 
ATOM      4  N   UNL     1       1.593   7.667  19.805  0.00  0.00    +0.000 NA
ATOM      5  C   UNL     1       1.936   6.395  19.546  0.00  0.00    +0.000 A 
ATOM      6  S   UNL     1       1.282   5.164  20.508  0.00  0.00    +0.000 S 
ATOM      7  C   UNL     1       2.086   3.942  19.618  0.00  0.00    +0.000 A 
ATOM      8  C   UNL     1       1.990   2.556  19.862  0.00  0.00    +0.000 A 
ATOM      9  C   UNL     1       2.696   1.674  19.051  0.00  0.00    +0.000 A 
ATOM     10  C   UNL     1       3.484   2.159  18.020  0.00  0.00    +0.000 A 
ATOM     11  C   UNL     1       3.580   3.537  17.785  0.00  0.00    +0.000 A 
ATOM     12  C   UNL     1       2.876   4.475  18.591  0.00  0.00    +0.000 A 
ATOM     13  C   UNL     1       2.803   5.937  18.560  0.00  0.00    +0.000 A 
ENDROOT
BRANCH   1  14
ATOM     14  N   UNL     1       4.396   6.736  16.789  0.00  0.00    +0.000 N 
ATOM     15  H   UNL     1       4.011   6.560  15.874  0.00  0.00    +0.000 HD
BRANCH  14  22
ATOM     16  C   UNL     1       5.320   4.898  14.682  0.00  0.00    +0.000 C 
ATOM     17  C   UNL     1       6.053   5.099  15.979  0.00  0.00    +0.000 A 
ATOM     18  C   UNL     1       7.229   4.358  16.206  0.00  0.00    +0.000 A 
ATOM     19  C   UNL     1       7.954   4.504  17.388  0.00  0.00    +0.000 A 
ATOM     20  C   UNL     1       7.509   5.381  18.366  0.00  0.00    +0.000 A 
ATOM     21  C   UNL     1       6.341   6.113  18.156  0.00  0.00    +0.000 A 
ATOM     22  C   UNL     1       5.598   5.997  16.967  0.00  0.00    +0.000 A 
ENDBRANCH  14  22
ENDBRANCH   1  14
TORSDOF 2
ENDMDL
MODEL 9
REMARK VINA RESULT:      -6.9      1.182      2.030
REMARK  Name = 
REMARK  3 active torsions:
REMARK  status: ('A' for Active; 'I' for Inactive)
REMARK    1  A    between atoms: C_1  and  C_2
REMARK    2  A    between atoms: C_7  and  N_8
REMARK    3  A    between atoms: N_8  and  C_9
REMARK                            x       y       z     vdW  Elec       q    Type
REMARK                         _______ _______ _______ _____ _____    ______ ____
ROOT
ATOM      1  C   UNL     1       2.325   6.313  19.770  0.00  0.00    +0.000 A 
ATOM      2  N   UNL     1       1.403   5.716  20.572  0.00  0.00    +0.000 NA
ATOM      3  C   UNL     1       1.528   4.430  20.900  0.00  0.00    +0.000 A 
ATOM      4  N   UNL     1       2.493   3.605  20.520  0.00  0.00    +0.000 NA
ATOM      5  C   UNL     1       3.372   4.188  19.690  0.00  0.00    +0.000 A 
ATOM      6  S   UNL     1       4.668   3.270  19.101  0.00  0.00    +0.000 S 
ATOM      7  C   UNL     1       5.264   4.576  18.167  0.00  0.00    +0.000 A 
ATOM      8  C   UNL     1       6.402   4.534  17.335  0.00  0.00    +0.000 A 
ATOM      9  C   UNL     1       6.765   5.672  16.625  0.00  0.00    +0.000 A 
ATOM     10  C   UNL     1       6.015   6.831  16.740  0.00  0.00    +0.000 A 
ATOM     11  C   UNL     1       4.888   6.869  17.571  0.00  0.00    +0.000 A 
ATOM     12  C   UNL     1       4.481   5.728  18.317  0.00  0.00    +0.000 A 
ATOM     13  C   UNL     1       3.365   5.504  19.240  0.00  0.00    +0.000 A 
ENDROOT
BRANCH   1  14
ATOM     14  N   UNL     1       2.173   7.697  19.530  0.00  0.00    +0.000 N 
ATOM     15  H   UNL     1       3.030   8.155  19.262  0.00  0.00    +0.000 HD
BRANCH  14  22
ATOM     16  C   UNL     1       0.578   9.764  18.170  0.00  0.00    +0.000 C 
ATOM     17  C   UNL     1       0.599   9.590  19.663  0.00  0.00    +0.000 A 
ATOM     18  C   UNL     1      -0.168  10.469  20.451  0.00  0.00    +0.000 A 
ATOM     19  C   UNL     1      -0.192  10.355  21.841  0.00  0.00    +0.000 A 
ATOM     20  C   UNL     1       0.558   9.369  22.464  0.00  0.00    +0.000 A 
ATOM     21  C   UNL     1       1.328   8.498  21.695  0.00  0.00    +0.000 A 
ATOM     22  C   UNL     1       1.359   8.581  20.291  0.00  0.00    +0.000 A 
ENDBRANCH  14  22
ENDBRANCH   1  14
TORSDOF 2
ENDMDL
