MODEL 1
REMARK VINA RESULT:      -7.9      0.000      0.000
REMARK  Name = 
REMARK  8 active torsions:
REMARK  status: ('A' for Active; 'I' for Inactive)
REMARK    1  A    between atoms: C_1  and  O_2
REMARK    2  A    between atoms: O_2  and  C_3
REMARK    3  A    between atoms: C_6  and  C_7
REMARK    4  A    between atoms: C_7  and  C_8
REMARK    5  A    between atoms: C_11  and  O_12
REMARK    6  A    between atoms: O_12  and  C_13
REMARK    7  A    between atoms: N_19  and  C_20
REMARK    8  A    between atoms: C_20  and  N_21
REMARK                            x       y       z     vdW  Elec       q    Type
REMARK                         _______ _______ _______ _____ _____    ______ ____
ROOT
ATOM      1  C   UNL     1       0.499  11.297  19.172  0.00  0.00    +0.000 C 
ATOM      2  N   UNL     1       1.149  12.059  18.119  0.00  0.00    +0.000 N 
ATOM      3  C   UNL     1       1.717  13.223  18.548  0.00  0.00    +0.000 C 
ATOM      4  O   UNL     1       2.200  14.056  17.791  0.00  0.00    +0.000 OA
ATOM      5  N   UNL     1       1.597  13.321  19.892  0.00  0.00    +0.000 N 
ATOM      6  C   UNL     1       0.810  12.298  20.349  0.00  0.00    +0.000 C 
ATOM      7  O   UNL     1       0.420  12.207  21.510  0.00  0.00    +0.000 OA
ATOM      8  H   UNL     1       1.084  11.869  17.130  0.00  0.00    +0.000 HD
ENDROOT
BRANCH   1  12
ATOM      9  C   UNL     1       2.192   7.302  19.734  0.00  0.00    +0.000 A 
ATOM     10  C   UNL     1       2.341   7.963  18.517  0.00  0.00    +0.000 A 
ATOM     11  C   UNL     1       1.843   9.260  18.346  0.00  0.00    +0.000 A 
ATOM     12  C   UNL     1       1.162   9.922  19.387  0.00  0.00    +0.000 A 
ATOM     13  C   UNL     1       0.964   9.208  20.583  0.00  0.00    +0.000 A 
ATOM     14  C   UNL     1       1.481   7.918  20.759  0.00  0.00    +0.000 A 
BRANCH   9  16
ATOM     15  C   UNL     1       1.994   5.127  20.609  0.00  0.00    +0.000 C 
ATOM     16  O   UNL     1       2.726   6.043  19.801  0.00  0.00    +0.000 OA
ENDBRANCH   9  16
ENDBRANCH   1  12
BRANCH   1  17
ATOM     17  C   UNL     1      -0.994  11.071  18.848  0.00  0.00    +0.000 A 
ATOM     18  C   UNL     1      -1.418  10.129  17.899  0.00  0.00    +0.000 A 
ATOM     19  C   UNL     1      -2.735  10.131  17.422  0.00  0.00    +0.000 A 
ATOM     20  C   UNL     1      -3.669  11.058  17.880  0.00  0.00    +0.000 A 
ATOM     21  C   UNL     1      -3.286  11.972  18.854  0.00  0.00    +0.000 A 
ATOM     22  C   UNL     1      -1.968  11.975  19.335  0.00  0.00    +0.000 A 
BRANCH  20  23
ATOM     23  O   UNL     1      -4.886  11.010  17.260  0.00  0.00    +0.000 OA
ATOM     24  C   UNL     1      -5.667  12.198  17.292  0.00  0.00    +0.000 C 
ENDBRANCH  20  23
ENDBRANCH   1  17
BRANCH   5  25
ATOM     25  C   UNL     1       2.011  14.466  20.672  0.00  0.00    +0.000 C 
BRANCH  25  26
ATOM     26  N   UNL     1       3.397  14.495  21.138  0.00  0.00    +0.000 N 
ATOM     27  N   UNL     1       3.751  13.685  22.179  0.00  0.00    +0.000 NA
ATOM     28  N   UNL     1       4.934  13.624  22.583  0.00  0.00    +0.000 NA
ATOM     29  C   UNL     1       5.961  14.194  21.822  0.00  0.00    +0.000 A 
ATOM     30  C   UNL     1       7.296  13.924  22.158  0.00  0.00    +0.000 A 
ATOM     31  C   UNL     1       8.347  14.395  21.364  0.00  0.00    +0.000 A 
ATOM     32  C   UNL     1       8.077  15.156  20.229  0.00  0.00    +0.000 A 
ATOM     33  C   UNL     1       6.756  15.475  19.911  0.00  0.00    +0.000 A 
ATOM     34  C   UNL     1       5.715  14.994  20.718  0.00  0.00    +0.000 A 
ATOM     35  C   UNL     1       4.307  15.245  20.412  0.00  0.00    +0.000 A 
ATOM     36  O   UNL     1       4.005  16.047  19.532  0.00  0.00    +0.000 OA
ENDBRANCH  25  26
ENDBRANCH   5  25
TORSDOF 6
ENDMDL
MODEL 2
REMARK VINA RESULT:      -7.9      2.804      6.236
REMARK  Name = 
REMARK  8 active torsions:
REMARK  status: ('A' for Active; 'I' for Inactive)
REMARK    1  A    between atoms: C_1  and  O_2
REMARK    2  A    between atoms: O_2  and  C_3
REMARK    3  A    between atoms: C_6  and  C_7
REMARK    4  A    between atoms: C_7  and  C_8
REMARK    5  A    between atoms: C_11  and  O_12
REMARK    6  A    between atoms: O_12  and  C_13
REMARK    7  A    between atoms: N_19  and  C_20
REMARK    8  A    between atoms: C_20  and  N_21
REMARK                            x       y       z     vdW  Elec       q    Type
REMARK                         _______ _______ _______ _____ _____    ______ ____
ROOT
ATOM      1  C   UNL     1       0.122  10.847  19.678  0.00  0.00    +0.000 C 
ATOM      2  N   UNL     1      -0.402  11.158  20.998  0.00  0.00    +0.000 N 
ATOM      3  C   UNL     1       0.140  12.278  21.558  0.00  0.00    +0.000 C 
ATOM      4  O   UNL     1      -0.081  12.629  22.710  0.00  0.00    +0.000 OA
ATOM      5  N   UNL     1       0.981  12.868  20.677  0.00  0.00    +0.000 N 
ATOM      6  C   UNL     1       1.124  12.059  19.581  0.00  0.00    +0.000 C 
ATOM      7  O   UNL     1       1.928  12.274  18.678  0.00  0.00    +0.000 OA
ATOM      8  H   UNL     1      -0.992  10.557  21.553  0.00  0.00    +0.000 HD
ENDROOT
BRANCH   1  12
ATOM      9  C   UNL     1      -3.079  10.856  16.694  0.00  0.00    +0.000 A 
ATOM     10  C   UNL     1      -3.127  11.729  17.778  0.00  0.00    +0.000 A 
ATOM     11  C   UNL     1      -2.083  11.764  18.711  0.00  0.00    +0.000 A 
ATOM     12  C   UNL     1      -0.971  10.908  18.592  0.00  0.00    +0.000 A 
ATOM     13  C   UNL     1      -0.978   9.988  17.527  0.00  0.00    +0.000 A 
ATOM     14  C   UNL     1      -2.013   9.968  16.584  0.00  0.00    +0.000 A 
BRANCH   9  16
ATOM     15  C   UNL     1      -3.914  10.307  14.564  0.00  0.00    +0.000 C 
ATOM     16  O   UNL     1      -4.143  10.909  15.835  0.00  0.00    +0.000 OA
ENDBRANCH   9  16
ENDBRANCH   1  12
BRANCH   1  17
ATOM     17  C   UNL     1       0.753   9.438  19.653  0.00  0.00    +0.000 A 
ATOM     18  C   UNL     1       0.782   8.612  20.786  0.00  0.00    +0.000 A 
ATOM     19  C   UNL     1       1.592   7.469  20.824  0.00  0.00    +0.000 A 
ATOM     20  C   UNL     1       2.384   7.108  19.736  0.00  0.00    +0.000 A 
ATOM     21  C   UNL     1       2.337   7.885  18.584  0.00  0.00    +0.000 A 
ATOM     22  C   UNL     1       1.529   9.030  18.542  0.00  0.00    +0.000 A 
BRANCH  20  23
ATOM     23  O   UNL     1       3.196   6.030  19.943  0.00  0.00    +0.000 OA
ATOM     24  C   UNL     1       2.574   4.841  20.415  0.00  0.00    +0.000 C 
ENDBRANCH  20  23
ENDBRANCH   1  17
BRANCH   5  25
ATOM     25  C   UNL     1       1.793  14.029  20.968  0.00  0.00    +0.000 C 
BRANCH  25  26
ATOM     26  N   UNL     1       1.632  15.195  20.100  0.00  0.00    +0.000 N 
ATOM     27  N   UNL     1       2.625  15.486  19.209  0.00  0.00    +0.000 NA
ATOM     28  N   UNL     1       2.517  16.437  18.402  0.00  0.00    +0.000 NA
ATOM     29  C   UNL     1       1.279  17.065  18.227  0.00  0.00    +0.000 A 
ATOM     30  C   UNL     1       1.111  17.966  17.164  0.00  0.00    +0.000 A 
ATOM     31  C   UNL     1      -0.137  18.540  16.898  0.00  0.00    +0.000 A 
ATOM     32  C   UNL     1      -1.233  18.230  17.702  0.00  0.00    +0.000 A 
ATOM     33  C   UNL     1      -1.067  17.376  18.793  0.00  0.00    +0.000 A 
ATOM     34  C   UNL     1       0.191  16.810  19.045  0.00  0.00    +0.000 A 
ATOM     35  C   UNL     1       0.419  15.865  20.137  0.00  0.00    +0.000 A 
ATOM     36  O   UNL     1      -0.452  15.683  20.983  0.00  0.00    +0.000 OA
ENDBRANCH  25  26
ENDBRANCH   5  25
TORSDOF 6
ENDMDL
MODEL 3
REMARK VINA RESULT:      -7.8      2.368      4.161
REMARK  Name = 
REMARK  8 active torsions:
REMARK  status: ('A' for Active; 'I' for Inactive)
REMARK    1  A    between atoms: C_1  and  O_2
REMARK    2  A    between atoms: O_2  and  C_3
REMARK    3  A    between atoms: C_6  and  C_7
REMARK    4  A    between atoms: C_7  and  C_8
REMARK    5  A    between atoms: C_11  and  O_12
REMARK    6  A    between atoms: O_12  and  C_13
REMARK    7  A    between atoms: N_19  and  C_20
REMARK    8  A    between atoms: C_20  and  N_21
REMARK                            x       y       z     vdW  Elec       q    Type
REMARK                         _______ _______ _______ _____ _____    ______ ____
ROOT
ATOM      1  C   UNL     1       0.720  10.810  19.042  0.00  0.00    +0.000 C 
ATOM      2  N   UNL     1       1.478  11.566  18.059  0.00  0.00    +0.000 N 
ATOM      3  C   UNL     1       2.121  12.654  18.575  0.00  0.00    +0.000 C 
ATOM      4  O   UNL     1       2.705  13.481  17.886  0.00  0.00    +0.000 OA
ATOM      5  N   UNL     1       1.949  12.691  19.917  0.00  0.00    +0.000 N 
ATOM      6  C   UNL     1       1.061  11.717  20.284  0.00  0.00    +0.000 C 
ATOM      7  O   UNL     1       0.612  11.599  21.422  0.00  0.00    +0.000 OA
ATOM      8  H   UNL     1       1.442  11.435  17.060  0.00  0.00    +0.000 HD
ENDROOT
BRANCH   1  12
ATOM      9  C   UNL     1       2.431   6.816  19.561  0.00  0.00    +0.000 A 
ATOM     10  C   UNL     1       1.717   7.414  20.596  0.00  0.00    +0.000 A 
ATOM     11  C   UNL     1       1.127   8.671  20.420  0.00  0.00    +0.000 A 
ATOM     12  C   UNL     1       1.256   9.373  19.206  0.00  0.00    +0.000 A 
ATOM     13  C   UNL     1       2.040   8.779  18.199  0.00  0.00    +0.000 A 
ATOM     14  C   UNL     1       2.612   7.512  18.370  0.00  0.00    +0.000 A 
BRANCH   9  16
ATOM     15  C   UNL     1       2.226   4.818  20.786  0.00  0.00    +0.000 C 
ATOM     16  O   UNL     1       2.957   5.581  19.831  0.00  0.00    +0.000 OA
ENDBRANCH   9  16
ENDBRANCH   1  12
BRANCH   1  17
ATOM     17  C   UNL     1      -0.770  10.729  18.646  0.00  0.00    +0.000 A 
ATOM     18  C   UNL     1      -1.225   9.892  17.616  0.00  0.00    +0.000 A 
ATOM     19  C   UNL     1      -2.517  10.035  17.090  0.00  0.00    +0.000 A 
ATOM     20  C   UNL     1      -3.393  11.001  17.578  0.00  0.00    +0.000 A 
ATOM     21  C   UNL     1      -2.982  11.812  18.630  0.00  0.00    +0.000 A 
ATOM     22  C   UNL     1      -1.691  11.673  19.159  0.00  0.00    +0.000 A 
BRANCH  20  23
ATOM     23  O   UNL     1      -4.582  11.096  16.911  0.00  0.00    +0.000 OA
ATOM     24  C   UNL     1      -5.577  11.930  17.491  0.00  0.00    +0.000 C 
ENDBRANCH  20  23
ENDBRANCH   1  17
BRANCH   5  25
ATOM     25  C   UNL     1       2.423  13.755  20.776  0.00  0.00    +0.000 C 
BRANCH  25  26
ATOM     26  N   UNL     1       1.652  14.997  20.793  0.00  0.00    +0.000 N 
ATOM     27  N   UNL     1       1.833  15.890  19.775  0.00  0.00    +0.000 NA
ATOM     28  N   UNL     1       1.160  16.943  19.705  0.00  0.00    +0.000 NA
ATOM     29  C   UNL     1       0.040  17.110  20.528  0.00  0.00    +0.000 A 
ATOM     30  C   UNL     1      -0.836  18.179  20.285  0.00  0.00    +0.000 A 
ATOM     31  C   UNL     1      -2.017  18.322  21.023  0.00  0.00    +0.000 A 
ATOM     32  C   UNL     1      -2.330  17.405  22.023  0.00  0.00    +0.000 A 
ATOM     33  C   UNL     1      -1.442  16.367  22.309  0.00  0.00    +0.000 A 
ATOM     34  C   UNL     1      -0.263  16.238  21.560  0.00  0.00    +0.000 A 
ATOM     35  C   UNL     1       0.682  15.143  21.771  0.00  0.00    +0.000 A 
ATOM     36  O   UNL     1       0.557  14.403  22.744  0.00  0.00    +0.000 OA
ENDBRANCH  25  26
ENDBRANCH   5  25
TORSDOF 6
ENDMDL
MODEL 4
REMARK VINA RESULT:      -7.8      3.590      7.191
REMARK  Name = 
REMARK  8 active torsions:
REMARK  status: ('A' for Active; 'I' for Inactive)
REMARK    1  A    between atoms: C_1  and  O_2
REMARK    2  A    between atoms: O_2  and  C_3
REMARK    3  A    between atoms: C_6  and  C_7
REMARK    4  A    between atoms: C_7  and  C_8
REMARK    5  A    between atoms: C_11  and  O_12
REMARK    6  A    between atoms: O_12  and  C_13
REMARK    7  A    between atoms: N_19  and  C_20
REMARK    8  A    between atoms: C_20  and  N_21
REMARK                            x       y       z     vdW  Elec       q    Type
REMARK                         _______ _______ _______ _____ _____    ______ ____
ROOT
ATOM      1  C   UNL     1      -0.170  10.816  19.836  0.00  0.00    +0.000 C 
ATOM      2  N   UNL     1      -0.663  10.574  21.182  0.00  0.00    +0.000 N 
ATOM      3  C   UNL     1      -0.530  11.642  22.020  0.00  0.00    +0.000 C 
ATOM      4  O   UNL     1      -0.771  11.592  23.219  0.00  0.00    +0.000 OA
ATOM      5  N   UNL     1      -0.041  12.702  21.334  0.00  0.00    +0.000 N 
ATOM      6  C   UNL     1       0.302  12.301  20.071  0.00  0.00    +0.000 C 
ATOM      7  O   UNL     1       0.893  13.017  19.267  0.00  0.00    +0.000 OA
ATOM      8  H   UNL     1      -0.941   9.678  21.554  0.00  0.00    +0.000 HD
ENDROOT
BRANCH   1  12
ATOM      9  C   UNL     1      -3.260  10.708  16.740  0.00  0.00    +0.000 A 
ATOM     10  C   UNL     1      -2.176   9.835  16.681  0.00  0.00    +0.000 A 
ATOM     11  C   UNL     1      -1.209   9.832  17.693  0.00  0.00    +0.000 A 
ATOM     12  C   UNL     1      -1.292  10.721  18.783  0.00  0.00    +0.000 A 
ATOM     13  C   UNL     1      -2.359  11.639  18.784  0.00  0.00    +0.000 A 
ATOM     14  C   UNL     1      -3.336  11.627  17.782  0.00  0.00    +0.000 A 
BRANCH   9  16
ATOM     15  C   UNL     1      -3.592  10.216  14.463  0.00  0.00    +0.000 C 
ATOM     16  O   UNL     1      -4.155  10.621  15.707  0.00  0.00    +0.000 OA
ENDBRANCH   9  16
ENDBRANCH   1  12
BRANCH   1  17
ATOM     17  C   UNL     1       0.934   9.803  19.462  0.00  0.00    +0.000 A 
ATOM     18  C   UNL     1       1.549   9.801  18.201  0.00  0.00    +0.000 A 
ATOM     19  C   UNL     1       2.337   8.718  17.787  0.00  0.00    +0.000 A 
ATOM     20  C   UNL     1       2.545   7.617  18.614  0.00  0.00    +0.000 A 
ATOM     21  C   UNL     1       1.983   7.616  19.886  0.00  0.00    +0.000 A 
ATOM     22  C   UNL     1       1.194   8.697  20.305  0.00  0.00    +0.000 A 
BRANCH  20  23
ATOM     23  O   UNL     1       3.250   6.592  18.048  0.00  0.00    +0.000 OA
ATOM     24  C   UNL     1       4.433   6.943  17.341  0.00  0.00    +0.000 C 
ENDBRANCH  20  23
ENDBRANCH   1  17
BRANCH   5  25
ATOM     25  C   UNL     1       0.304  13.975  21.927  0.00  0.00    +0.000 C 
BRANCH  25  26
ATOM     26  N   UNL     1      -0.774  14.944  22.113  0.00  0.00    +0.000 N 
ATOM     27  N   UNL     1      -1.355  15.493  21.005  0.00  0.00    +0.000 NA
ATOM     28  N   UNL     1      -2.321  16.284  21.100  0.00  0.00    +0.000 NA
ATOM     29  C   UNL     1      -2.984  16.430  22.324  0.00  0.00    +0.000 A 
ATOM     30  C   UNL     1      -4.197  17.134  22.367  0.00  0.00    +0.000 A 
ATOM     31  C   UNL     1      -4.938  17.218  23.551  0.00  0.00    +0.000 A 
ATOM     32  C   UNL     1      -4.467  16.609  24.713  0.00  0.00    +0.000 A 
ATOM     33  C   UNL     1      -3.237  15.950  24.696  0.00  0.00    +0.000 A 
ATOM     34  C   UNL     1      -2.508  15.876  23.500  0.00  0.00    +0.000 A 
ATOM     35  C   UNL     1      -1.240  15.154  23.401  0.00  0.00    +0.000 A 
ATOM     36  O   UNL     1      -0.685  14.745  24.418  0.00  0.00    +0.000 OA
ENDBRANCH  25  26
ENDBRANCH   5  25
TORSDOF 6
ENDMDL
MODEL 5
REMARK VINA RESULT:      -7.8      1.219      4.684
REMARK  Name = 
REMARK  8 active torsions:
REMARK  status: ('A' for Active; 'I' for Inactive)
REMARK    1  A    between atoms: C_1  and  O_2
REMARK    2  A    between atoms: O_2  and  C_3
REMARK    3  A    between atoms: C_6  and  C_7
REMARK    4  A    between atoms: C_7  and  C_8
REMARK    5  A    between atoms: C_11  and  O_12
REMARK    6  A    between atoms: O_12  and  C_13
REMARK    7  A    between atoms: N_19  and  C_20
REMARK    8  A    between atoms: C_20  and  N_21
REMARK                            x       y       z     vdW  Elec       q    Type
REMARK                         _______ _______ _______ _____ _____    ______ ____
ROOT
ATOM      1  C   UNL     1       0.002  11.219  19.700  0.00  0.00    +0.000 C 
ATOM      2  N   UNL     1      -0.468  11.515  21.043  0.00  0.00    +0.000 N 
ATOM      3  C   UNL     1      -0.137  12.764  21.481  0.00  0.00    +0.000 C 
ATOM      4  O   UNL     1      -0.335  13.150  22.626  0.00  0.00    +0.000 OA
ATOM      5  N   UNL     1       0.482  13.446  20.490  0.00  0.00    +0.000 N 
ATOM      6  C   UNL     1       0.708  12.602  19.436  0.00  0.00    +0.000 C 
ATOM      7  O   UNL     1       1.371  12.910  18.449  0.00  0.00    +0.000 OA
ATOM      8  H   UNL     1      -0.868  10.849  21.687  0.00  0.00    +0.000 HD
ENDROOT
BRANCH   1  12
ATOM      9  C   UNL     1      -3.234  10.662  16.807  0.00  0.00    +0.000 A 
ATOM     10  C   UNL     1      -2.062   9.918  16.701  0.00  0.00    +0.000 A 
ATOM     11  C   UNL     1      -1.042  10.057  17.650  0.00  0.00    +0.000 A 
ATOM     12  C   UNL     1      -1.163  10.964  18.722  0.00  0.00    +0.000 A 
ATOM     13  C   UNL     1      -2.327  11.753  18.769  0.00  0.00    +0.000 A 
ATOM     14  C   UNL     1      -3.355  11.597  17.830  0.00  0.00    +0.000 A 
BRANCH   9  16
ATOM     15  C   UNL     1      -3.640  10.147  14.548  0.00  0.00    +0.000 C 
ATOM     16  O   UNL     1      -4.173  10.442  15.835  0.00  0.00    +0.000 OA
ENDBRANCH   9  16
ENDBRANCH   1  12
BRANCH   1  17
ATOM     17  C   UNL     1       0.918   9.976  19.698  0.00  0.00    +0.000 A 
ATOM     18  C   UNL     1       1.596   9.550  18.546  0.00  0.00    +0.000 A 
ATOM     19  C   UNL     1       2.192   8.282  18.489  0.00  0.00    +0.000 A 
ATOM     20  C   UNL     1       2.143   7.411  19.575  0.00  0.00    +0.000 A 
ATOM     21  C   UNL     1       1.518   7.829  20.744  0.00  0.00    +0.000 A 
ATOM     22  C   UNL     1       0.919   9.095  20.806  0.00  0.00    +0.000 A 
BRANCH  20  23
ATOM     23  O   UNL     1       2.678   6.174  19.350  0.00  0.00    +0.000 OA
ATOM     24  C   UNL     1       2.369   5.560  18.104  0.00  0.00    +0.000 C 
ENDBRANCH  20  23
ENDBRANCH   1  17
BRANCH   5  25
ATOM     25  C   UNL     1       1.046  14.771  20.633  0.00  0.00    +0.000 C 
BRANCH  25  26
ATOM     26  N   UNL     1       2.454  14.864  21.015  0.00  0.00    +0.000 N 
ATOM     27  N   UNL     1       2.823  14.427  22.255  0.00  0.00    +0.000 NA
ATOM     28  N   UNL     1       4.022  14.428  22.616  0.00  0.00    +0.000 NA
ATOM     29  C   UNL     1       5.033  14.644  21.672  0.00  0.00    +0.000 A 
ATOM     30  C   UNL     1       6.369  14.416  22.035  0.00  0.00    +0.000 A 
ATOM     31  C   UNL     1       7.398  14.527  21.093  0.00  0.00    +0.000 A 
ATOM     32  C   UNL     1       7.105  14.881  19.778  0.00  0.00    +0.000 A 
ATOM     33  C   UNL     1       5.786  15.160  19.417  0.00  0.00    +0.000 A 
ATOM     34  C   UNL     1       4.767  15.045  20.373  0.00  0.00    +0.000 A 
ATOM     35  C   UNL     1       3.360  15.269  20.048  0.00  0.00    +0.000 A 
ATOM     36  O   UNL     1       3.051  15.749  18.961  0.00  0.00    +0.000 OA
ENDBRANCH  25  26
ENDBRANCH   5  25
TORSDOF 6
ENDMDL
MODEL 6
REMARK VINA RESULT:      -7.8      2.985      6.454
REMARK  Name = 
REMARK  8 active torsions:
REMARK  status: ('A' for Active; 'I' for Inactive)
REMARK    1  A    between atoms: C_1  and  O_2
REMARK    2  A    between atoms: O_2  and  C_3
REMARK    3  A    between atoms: C_6  and  C_7
REMARK    4  A    between atoms: C_7  and  C_8
REMARK    5  A    between atoms: C_11  and  O_12
REMARK    6  A    between atoms: O_12  and  C_13
REMARK    7  A    between atoms: N_19  and  C_20
REMARK    8  A    between atoms: C_20  and  N_21
REMARK                            x       y       z     vdW  Elec       q    Type
REMARK                         _______ _______ _______ _____ _____    ______ ____
ROOT
ATOM      1  C   UNL     1       0.011  10.644  19.624  0.00  0.00    +0.000 C 
ATOM      2  N   UNL     1      -0.438  10.859  20.990  0.00  0.00    +0.000 N 
ATOM      3  C   UNL     1       0.049  12.000  21.558  0.00  0.00    +0.000 C 
ATOM      4  O   UNL     1      -0.114  12.288  22.737  0.00  0.00    +0.000 OA
ATOM      5  N   UNL     1       0.771  12.692  20.646  0.00  0.00    +0.000 N 
ATOM      6  C   UNL     1       0.900  11.940  19.510  0.00  0.00    +0.000 C 
ATOM      7  O   UNL     1       1.614  12.257  18.562  0.00  0.00    +0.000 OA
ATOM      8  H   UNL     1      -0.933  10.189  21.559  0.00  0.00    +0.000 HD
ENDROOT
BRANCH   1  12
ATOM      9  C   UNL     1      -3.213  10.819  16.671  0.00  0.00    +0.000 A 
ATOM     10  C   UNL     1      -2.194   9.878  16.543  0.00  0.00    +0.000 A 
ATOM     11  C   UNL     1      -1.185   9.785  17.510  0.00  0.00    +0.000 A 
ATOM     12  C   UNL     1      -1.160  10.650  18.621  0.00  0.00    +0.000 A 
ATOM     13  C   UNL     1      -2.161  11.637  18.692  0.00  0.00    +0.000 A 
ATOM     14  C   UNL     1      -3.181  11.715  17.735  0.00  0.00    +0.000 A 
BRANCH   9  16
ATOM     15  C   UNL     1      -3.750  10.183  14.470  0.00  0.00    +0.000 C 
ATOM     16  O   UNL     1      -4.156  10.818  15.679  0.00  0.00    +0.000 OA
ENDBRANCH   9  16
ENDBRANCH   1  12
BRANCH   1  17
ATOM     17  C   UNL     1       0.754   9.296  19.494  0.00  0.00    +0.000 A 
ATOM     18  C   UNL     1       0.895   8.413  20.575  0.00  0.00    +0.000 A 
ATOM     19  C   UNL     1       1.796   7.342  20.516  0.00  0.00    +0.000 A 
ATOM     20  C   UNL     1       2.571   7.110  19.382  0.00  0.00    +0.000 A 
ATOM     21  C   UNL     1       2.415   7.944  18.280  0.00  0.00    +0.000 A 
ATOM     22  C   UNL     1       1.515   9.017  18.334  0.00  0.00    +0.000 A 
BRANCH  20  23
ATOM     23  O   UNL     1       3.477   6.093  19.496  0.00  0.00    +0.000 OA
ATOM     24  C   UNL     1       3.884   5.460  18.289  0.00  0.00    +0.000 C 
ENDBRANCH  20  23
ENDBRANCH   1  17
BRANCH   5  25
ATOM     25  C   UNL     1       1.503  13.907  20.930  0.00  0.00    +0.000 C 
BRANCH  25  26
ATOM     26  N   UNL     1       1.111  15.112  20.200  0.00  0.00    +0.000 N 
ATOM     27  N   UNL     1       1.853  15.487  19.116  0.00  0.00    +0.000 NA
ATOM     28  N   UNL     1       1.532  16.476  18.418  0.00  0.00    +0.000 NA
ATOM     29  C   UNL     1       0.275  17.068  18.584  0.00  0.00    +0.000 A 
ATOM     30  C   UNL     1      -0.164  18.018  17.651  0.00  0.00    +0.000 A 
ATOM     31  C   UNL     1      -1.452  18.560  17.728  0.00  0.00    +0.000 A 
ATOM     32  C   UNL     1      -2.314  18.167  18.751  0.00  0.00    +0.000 A 
ATOM     33  C   UNL     1      -1.871  17.262  19.715  0.00  0.00    +0.000 A 
ATOM     34  C   UNL     1      -0.577  16.729  19.622  0.00  0.00    +0.000 A 
ATOM     35  C   UNL     1      -0.070  15.735  20.568  0.00  0.00    +0.000 A 
ATOM     36  O   UNL     1      -0.707  15.476  21.585  0.00  0.00    +0.000 OA
ENDBRANCH  25  26
ENDBRANCH   5  25
TORSDOF 6
ENDMDL
MODEL 7
REMARK VINA RESULT:      -7.7      3.571      7.629
REMARK  Name = 
REMARK  8 active torsions:
REMARK  status: ('A' for Active; 'I' for Inactive)
REMARK    1  A    between atoms: C_1  and  O_2
REMARK    2  A    between atoms: O_2  and  C_3
REMARK    3  A    between atoms: C_6  and  C_7
REMARK    4  A    between atoms: C_7  and  C_8
REMARK    5  A    between atoms: C_11  and  O_12
REMARK    6  A    between atoms: O_12  and  C_13
REMARK    7  A    between atoms: N_19  and  C_20
REMARK    8  A    between atoms: C_20  and  N_21
REMARK                            x       y       z     vdW  Elec       q    Type
REMARK                         _______ _______ _______ _____ _____    ______ ____
ROOT
ATOM      1  C   UNL     1      -0.388  10.705  19.530  0.00  0.00    +0.000 C 
ATOM      2  N   UNL     1      -0.769  10.094  20.793  0.00  0.00    +0.000 N 
ATOM      3  C   UNL     1       0.094   9.130  21.223  0.00  0.00    +0.000 C 
ATOM      4  O   UNL     1      -0.122   8.418  22.196  0.00  0.00    +0.000 OA
ATOM      5  N   UNL     1       1.151   9.055  20.382  0.00  0.00    +0.000 N 
ATOM      6  C   UNL     1       0.923   9.862  19.300  0.00  0.00    +0.000 C 
ATOM      7  O   UNL     1       1.651   9.895  18.311  0.00  0.00    +0.000 OA
ATOM      8  H   UNL     1      -1.651  10.223  21.266  0.00  0.00    +0.000 HD
ENDROOT
BRANCH   1  12
ATOM      9  C   UNL     1       0.644  14.927  20.035  0.00  0.00    +0.000 A 
ATOM     10  C   UNL     1       0.806  14.308  18.798  0.00  0.00    +0.000 A 
ATOM     11  C   UNL     1       0.433  12.970  18.618  0.00  0.00    +0.000 A 
ATOM     12  C   UNL     1      -0.093  12.211  19.681  0.00  0.00    +0.000 A 
ATOM     13  C   UNL     1      -0.182  12.839  20.937  0.00  0.00    +0.000 A 
ATOM     14  C   UNL     1       0.172  14.182  21.111  0.00  0.00    +0.000 A 
BRANCH   9  16
ATOM     15  C   UNL     1       1.794  16.695  18.990  0.00  0.00    +0.000 C 
ATOM     16  O   UNL     1       1.027  16.240  20.101  0.00  0.00    +0.000 OA
ENDBRANCH   9  16
ENDBRANCH   1  12
BRANCH   1  17
ATOM     17  C   UNL     1      -1.502  10.532  18.475  0.00  0.00    +0.000 A 
ATOM     18  C   UNL     1      -1.315   9.774  17.310  0.00  0.00    +0.000 A 
ATOM     19  C   UNL     1      -2.224   9.854  16.245  0.00  0.00    +0.000 A 
ATOM     20  C   UNL     1      -3.346  10.677  16.313  0.00  0.00    +0.000 A 
ATOM     21  C   UNL     1      -3.578  11.403  17.477  0.00  0.00    +0.000 A 
ATOM     22  C   UNL     1      -2.671  11.326  18.544  0.00  0.00    +0.000 A 
BRANCH  20  23
ATOM     23  O   UNL     1      -4.093  10.735  15.171  0.00  0.00    +0.000 OA
ATOM     24  C   UNL     1      -3.570  10.064  14.030  0.00  0.00    +0.000 C 
ENDBRANCH  20  23
ENDBRANCH   1  17
BRANCH   5  25
ATOM     25  C   UNL     1       2.218   8.083  20.487  0.00  0.00    +0.000 C 
BRANCH  25  26
ATOM     26  N   UNL     1       2.161   6.925  19.597  0.00  0.00    +0.000 N 
ATOM     27  N   UNL     1       2.763   7.013  18.374  0.00  0.00    +0.000 NA
ATOM     28  N   UNL     1       2.797   6.035  17.593  0.00  0.00    +0.000 NA
ATOM     29  C   UNL     1       2.438   4.763  18.053  0.00  0.00    +0.000 A 
ATOM     30  C   UNL     1       2.698   3.644  17.248  0.00  0.00    +0.000 A 
ATOM     31  C   UNL     1       2.442   2.349  17.713  0.00  0.00    +0.000 A 
ATOM     32  C   UNL     1       1.911   2.158  18.987  0.00  0.00    +0.000 A 
ATOM     33  C   UNL     1       1.601   3.264  19.778  0.00  0.00    +0.000 A 
ATOM     34  C   UNL     1       1.863   4.555  19.296  0.00  0.00    +0.000 A 
ATOM     35  C   UNL     1       1.613   5.754  20.095  0.00  0.00    +0.000 A 
ATOM     36  O   UNL     1       0.989   5.670  21.149  0.00  0.00    +0.000 OA
ENDBRANCH  25  26
ENDBRANCH   5  25
TORSDOF 6
ENDMDL
MODEL 8
REMARK VINA RESULT:      -7.6      2.708      8.110
REMARK  Name = 
REMARK  8 active torsions:
REMARK  status: ('A' for Active; 'I' for Inactive)
REMARK    1  A    between atoms: C_1  and  O_2
REMARK    2  A    between atoms: O_2  and  C_3
REMARK    3  A    between atoms: C_6  and  C_7
REMARK    4  A    between atoms: C_7  and  C_8
REMARK    5  A    between atoms: C_11  and  O_12
REMARK    6  A    between atoms: O_12  and  C_13
REMARK    7  A    between atoms: N_19  and  C_20
REMARK    8  A    between atoms: C_20  and  N_21
REMARK                            x       y       z     vdW  Elec       q    Type
REMARK                         _______ _______ _______ _____ _____    ______ ____
ROOT
ATOM      1  C   UNL     1       0.277  10.887  18.973  0.00  0.00    +0.000 C 
ATOM      2  N   UNL     1       1.108  10.428  17.872  0.00  0.00    +0.000 N 
ATOM      3  C   UNL     1       1.837   9.311  18.157  0.00  0.00    +0.000 C 
ATOM      4  O   UNL     1       2.686   8.850  17.405  0.00  0.00    +0.000 OA
ATOM      5  N   UNL     1       1.520   8.863  19.394  0.00  0.00    +0.000 N 
ATOM      6  C   UNL     1       0.692   9.768  20.002  0.00  0.00    +0.000 C 
ATOM      7  O   UNL     1       0.347   9.691  21.178  0.00  0.00    +0.000 OA
ATOM      8  H   UNL     1       1.283  10.934  17.017  0.00  0.00    +0.000 HD
ENDROOT
BRANCH   1  12
ATOM      9  C   UNL     1      -3.955  10.900  17.863  0.00  0.00    +0.000 A 
ATOM     10  C   UNL     1      -3.060  10.060  17.206  0.00  0.00    +0.000 A 
ATOM     11  C   UNL     1      -1.714  10.016  17.588  0.00  0.00    +0.000 A 
ATOM     12  C   UNL     1      -1.224  10.832  18.627  0.00  0.00    +0.000 A 
ATOM     13  C   UNL     1      -2.134  11.721  19.230  0.00  0.00    +0.000 A 
ATOM     14  C   UNL     1      -3.484  11.748  18.861  0.00  0.00    +0.000 A 
BRANCH   9  16
ATOM     15  C   UNL     1      -6.231  10.802  18.454  0.00  0.00    +0.000 C 
ATOM     16  O   UNL     1      -5.251  10.858  17.422  0.00  0.00    +0.000 OA
ENDBRANCH   9  16
ENDBRANCH   1  12
BRANCH   1  17
ATOM     17  C   UNL     1       0.632  12.337  19.365  0.00  0.00    +0.000 A 
ATOM     18  C   UNL     1       0.813  13.347  18.408  0.00  0.00    +0.000 A 
ATOM     19  C   UNL     1       1.399  14.572  18.755  0.00  0.00    +0.000 A 
ATOM     20  C   UNL     1       1.809  14.833  20.061  0.00  0.00    +0.000 A 
ATOM     21  C   UNL     1       1.597  13.865  21.038  0.00  0.00    +0.000 A 
ATOM     22  C   UNL     1       1.012  12.638  20.695  0.00  0.00    +0.000 A 
BRANCH  20  23
ATOM     23  O   UNL     1       2.452  16.025  20.240  0.00  0.00    +0.000 OA
ATOM     24  C   UNL     1       3.839  16.056  19.928  0.00  0.00    +0.000 C 
ENDBRANCH  20  23
ENDBRANCH   1  17
BRANCH   5  25
ATOM     25  C   UNL     1       2.164   7.748  20.054  0.00  0.00    +0.000 C 
BRANCH  25  26
ATOM     26  N   UNL     1       2.360   6.528  19.272  0.00  0.00    +0.000 N 
ATOM     27  N   UNL     1       3.242   6.557  18.230  0.00  0.00    +0.000 NA
ATOM     28  N   UNL     1       3.494   5.529  17.561  0.00  0.00    +0.000 NA
ATOM     29  C   UNL     1       3.069   4.278  18.021  0.00  0.00    +0.000 A 
ATOM     30  C   UNL     1       3.550   3.118  17.395  0.00  0.00    +0.000 A 
ATOM     31  C   UNL     1       3.225   1.848  17.887  0.00  0.00    +0.000 A 
ATOM     32  C   UNL     1       2.403   1.723  19.005  0.00  0.00    +0.000 A 
ATOM     33  C   UNL     1       1.877   2.867  19.606  0.00  0.00    +0.000 A 
ATOM     34  C   UNL     1       2.213   4.131  19.099  0.00  0.00    +0.000 A 
ATOM     35  C   UNL     1       1.740   5.370  19.714  0.00  0.00    +0.000 A 
ATOM     36  O   UNL     1       0.879   5.332  20.589  0.00  0.00    +0.000 OA
ENDBRANCH  25  26
ENDBRANCH   5  25
TORSDOF 6
ENDMDL
MODEL 9
REMARK VINA RESULT:      -7.6      3.438      6.835
REMARK  Name = 
REMARK  8 active torsions:
REMARK  status: ('A' for Active; 'I' for Inactive)
REMARK    1  A    between atoms: C_1  and  O_2
REMARK    2  A    between atoms: O_2  and  C_3
REMARK    3  A    between atoms: C_6  and  C_7
REMARK    4  A    between atoms: C_7  and  C_8
REMARK    5  A    between atoms: C_11  and  O_12
REMARK    6  A    between atoms: O_12  and  C_13
REMARK    7  A    between atoms: N_19  and  C_20
REMARK    8  A    between atoms: C_20  and  N_21
REMARK                            x       y       z     vdW  Elec       q    Type
REMARK                         _______ _______ _______ _____ _____    ______ ____
ROOT
ATOM      1  C   UNL     1      -0.113  10.935  19.797  0.00  0.00    +0.000 C 
ATOM      2  N   UNL     1      -0.598  10.813  21.162  0.00  0.00    +0.000 N 
ATOM      3  C   UNL     1      -0.417  11.936  21.915  0.00  0.00    +0.000 C 
ATOM      4  O   UNL     1      -0.646  11.985  23.117  0.00  0.00    +0.000 OA
ATOM      5  N   UNL     1       0.102  12.922  21.147  0.00  0.00    +0.000 N 
ATOM      6  C   UNL     1       0.415  12.415  19.915  0.00  0.00    +0.000 C 
ATOM      7  O   UNL     1       1.022  13.047  19.054  0.00  0.00    +0.000 OA
ATOM      8  H   UNL     1      -0.905   9.959  21.603  0.00  0.00    +0.000 HD
ENDROOT
BRANCH   1  12
ATOM      9  C   UNL     1      -3.258  10.730  16.762  0.00  0.00    +0.000 A 
ATOM     10  C   UNL     1      -2.121   9.934  16.649  0.00  0.00    +0.000 A 
ATOM     11  C   UNL     1      -1.133   9.960  17.641  0.00  0.00    +0.000 A 
ATOM     12  C   UNL     1      -1.249  10.803  18.764  0.00  0.00    +0.000 A 
ATOM     13  C   UNL     1      -2.374  11.647  18.820  0.00  0.00    +0.000 A 
ATOM     14  C   UNL     1      -3.371  11.605  17.838  0.00  0.00    +0.000 A 
BRANCH   9  16
ATOM     15  C   UNL     1      -3.636  10.126  14.520  0.00  0.00    +0.000 C 
ATOM     16  O   UNL     1      -4.168  10.620  15.745  0.00  0.00    +0.000 OA
ENDBRANCH   9  16
ENDBRANCH   1  12
BRANCH   1  17
ATOM     17  C   UNL     1       0.949   9.857  19.491  0.00  0.00    +0.000 A 
ATOM     18  C   UNL     1       1.604   9.784  18.252  0.00  0.00    +0.000 A 
ATOM     19  C   UNL     1       2.348   8.650  17.897  0.00  0.00    +0.000 A 
ATOM     20  C   UNL     1       2.473   7.567  18.764  0.00  0.00    +0.000 A 
ATOM     21  C   UNL     1       1.872   7.635  20.016  0.00  0.00    +0.000 A 
ATOM     22  C   UNL     1       1.126   8.767  20.376  0.00  0.00    +0.000 A 
BRANCH  20  23
ATOM     23  O   UNL     1       3.143   6.490  18.254  0.00  0.00    +0.000 OA
ATOM     24  C   UNL     1       4.186   6.766  17.327  0.00  0.00    +0.000 C 
ENDBRANCH  20  23
ENDBRANCH   1  17
BRANCH   5  25
ATOM     25  C   UNL     1       0.500  14.223  21.639  0.00  0.00    +0.000 C 
BRANCH  25  26
ATOM     26  N   UNL     1      -0.153  15.392  21.052  0.00  0.00    +0.000 N 
ATOM     27  N   UNL     1       0.535  16.128  20.129  0.00  0.00    +0.000 NA
ATOM     28  N   UNL     1       0.007  17.104  19.550  0.00  0.00    +0.000 NA
ATOM     29  C   UNL     1      -1.373  17.311  19.651  0.00  0.00    +0.000 A 
ATOM     30  C   UNL     1      -1.987  18.261  18.821  0.00  0.00    +0.000 A 
ATOM     31  C   UNL     1      -3.377  18.427  18.824  0.00  0.00    +0.000 A 
ATOM     32  C   UNL     1      -4.170  17.654  19.669  0.00  0.00    +0.000 A 
ATOM     33  C   UNL     1      -3.568  16.743  20.537  0.00  0.00    +0.000 A 
ATOM     34  C   UNL     1      -2.174  16.589  20.521  0.00  0.00    +0.000 A 
ATOM     35  C   UNL     1      -1.485  15.613  21.364  0.00  0.00    +0.000 A 
ATOM     36  O   UNL     1      -2.099  15.026  22.251  0.00  0.00    +0.000 OA
ENDBRANCH  25  26
ENDBRANCH   5  25
TORSDOF 6
ENDMDL
