MODEL 1
REMARK VINA RESULT:      -7.5      0.000      0.000
REMARK  Name = 
REMARK  6 active torsions:
REMARK  status: ('A' for Active; 'I' for Inactive)
REMARK    1  A    between atoms: C_1  and  N_2
REMARK    2  A    between atoms: C_6  and  C_7
REMARK    3  A    between atoms: C_7  and  O_8
REMARK    4  A    between atoms: O_8  and  C_9
REMARK    5  A    between atoms: C_14  and  C_15
REMARK    6  A    between atoms: C_16  and  C_17
REMARK                            x       y       z     vdW  Elec       q    Type
REMARK                         _______ _______ _______ _____ _____    ______ ____
ROOT
ATOM      1  C   UNL     1       3.071   4.278  17.279  0.00  0.00    +0.000 A 
ATOM      2  C   UNL     1       4.409   4.041  17.013  0.00  0.00    +0.000 A 
ATOM      3  N   UNL     1       5.352   5.008  17.017  0.00  0.00    +0.000 NA
ATOM      4  C   UNL     1       4.944   6.273  17.306  0.00  0.00    +0.000 A 
ATOM      5 CL   UNL     1       6.261   7.379  17.260  0.00  0.00    +0.000 Cl
ATOM      6  C   UNL     1       3.628   6.641  17.624  0.00  0.00    +0.000 A 
ATOM      7  C   UNL     1       2.698   5.590  17.579  0.00  0.00    +0.000 A 
ENDROOT
BRANCH   6   8
ATOM      8  C   UNL     1       3.142   8.011  17.934  0.00  0.00    +0.000 C 
ATOM      9  C   UNL     1       1.837   8.397  17.956  0.00  0.00    +0.000 C 
BRANCH   9  10
ATOM     10  C   UNL     1       1.357   9.744  18.289  0.00  0.00    +0.000 A 
ATOM     11  C   UNL     1       2.164  10.882  18.256  0.00  0.00    +0.000 A 
ATOM     12  C   UNL     1       1.592  12.109  18.546  0.00  0.00    +0.000 A 
ATOM     13  N   UNL     1       0.289  12.280  18.860  0.00  0.00    +0.000 NA
ATOM     14  C   UNL     1      -0.478  11.174  18.880  0.00  0.00    +0.000 A 
ATOM     15  C   UNL     1       0.001   9.904  18.601  0.00  0.00    +0.000 A 
ENDBRANCH   9  10
ENDBRANCH   6   8
BRANCH   1  16
ATOM     16  O   UNL     1       2.215   3.212  17.238  0.00  0.00    +0.000 OA
BRANCH  16  17
ATOM     17  C   UNL     1       2.731   2.024  17.857  0.00  0.00    +0.000 C 
BRANCH  17  23
ATOM     18  C   UNL     1       4.540   2.045  20.400  0.00  0.00    +0.000 C 
ATOM     19  N   UNL     1       3.244   2.685  20.214  0.00  0.00    +0.000 NA
ATOM     20  C   UNL     1       2.521   2.821  21.480  0.00  0.00    +0.000 C 
ATOM     21  C   UNL     1       1.115   3.174  21.033  0.00  0.00    +0.000 C 
ATOM     22  C   UNL     1       0.969   2.566  19.638  0.00  0.00    +0.000 C 
ATOM     23  C   UNL     1       2.331   1.933  19.334  0.00  0.00    +0.000 C 
ENDBRANCH  17  23
ENDBRANCH  16  17
ENDBRANCH   1  16
TORSDOF 5
ENDMDL
MODEL 2
REMARK VINA RESULT:      -7.4      0.452      1.045
REMARK  Name = 
REMARK  6 active torsions:
REMARK  status: ('A' for Active; 'I' for Inactive)
REMARK    1  A    between atoms: C_1  and  N_2
REMARK    2  A    between atoms: C_6  and  C_7
REMARK    3  A    between atoms: C_7  and  O_8
REMARK    4  A    between atoms: O_8  and  C_9
REMARK    5  A    between atoms: C_14  and  C_15
REMARK    6  A    between atoms: C_16  and  C_17
REMARK                            x       y       z     vdW  Elec       q    Type
REMARK                         _______ _______ _______ _____ _____    ______ ____
ROOT
ATOM      1  C   UNL     1       2.904   4.116  17.325  0.00  0.00    +0.000 A 
ATOM      2  C   UNL     1       4.204   4.106  16.849  0.00  0.00    +0.000 A 
ATOM      3  N   UNL     1       5.011   5.189  16.864  0.00  0.00    +0.000 NA
ATOM      4  C   UNL     1       4.501   6.337  17.385  0.00  0.00    +0.000 A 
ATOM      5 CL   UNL     1       5.650   7.616  17.321  0.00  0.00    +0.000 Cl
ATOM      6  C   UNL     1       3.214   6.472  17.929  0.00  0.00    +0.000 A 
ATOM      7  C   UNL     1       2.424   5.314  17.860  0.00  0.00    +0.000 A 
ENDROOT
BRANCH   6   8
ATOM      8  C   UNL     1       2.618   7.709  18.497  0.00  0.00    +0.000 C 
ATOM      9  C   UNL     1       2.168   8.770  17.774  0.00  0.00    +0.000 C 
BRANCH   9  10
ATOM     10  C   UNL     1       1.555   9.980  18.336  0.00  0.00    +0.000 A 
ATOM     11  C   UNL     1       0.438   9.963  19.173  0.00  0.00    +0.000 A 
ATOM     12  C   UNL     1      -0.028  11.164  19.682  0.00  0.00    +0.000 A 
ATOM     13  N   UNL     1       0.535  12.364  19.420  0.00  0.00    +0.000 NA
ATOM     14  C   UNL     1       1.616  12.363  18.617  0.00  0.00    +0.000 A 
ATOM     15  C   UNL     1       2.158  11.214  18.064  0.00  0.00    +0.000 A 
ENDBRANCH   9  10
ENDBRANCH   6   8
BRANCH   1  16
ATOM     16  O   UNL     1       2.188   2.952  17.247  0.00  0.00    +0.000 OA
BRANCH  16  17
ATOM     17  C   UNL     1       2.791   1.848  17.939  0.00  0.00    +0.000 C 
BRANCH  17  23
ATOM     18  C   UNL     1       4.560   2.016  20.504  0.00  0.00    +0.000 C 
ATOM     19  N   UNL     1       3.250   2.612  20.275  0.00  0.00    +0.000 NA
ATOM     20  C   UNL     1       2.505   2.775  21.525  0.00  0.00    +0.000 C 
ATOM     21  C   UNL     1       1.096   3.072  21.044  0.00  0.00    +0.000 C 
ATOM     22  C   UNL     1       0.989   2.407  19.672  0.00  0.00    +0.000 C 
ATOM     23  C   UNL     1       2.372   1.802  19.412  0.00  0.00    +0.000 C 
ENDBRANCH  17  23
ENDBRANCH  16  17
ENDBRANCH   1  16
TORSDOF 5
ENDMDL
MODEL 3
REMARK VINA RESULT:      -7.2      1.557      1.714
REMARK  Name = 
REMARK  6 active torsions:
REMARK  status: ('A' for Active; 'I' for Inactive)
REMARK    1  A    between atoms: C_1  and  N_2
REMARK    2  A    between atoms: C_6  and  C_7
REMARK    3  A    between atoms: C_7  and  O_8
REMARK    4  A    between atoms: O_8  and  C_9
REMARK    5  A    between atoms: C_14  and  C_15
REMARK    6  A    between atoms: C_16  and  C_17
REMARK                            x       y       z     vdW  Elec       q    Type
REMARK                         _______ _______ _______ _____ _____    ______ ____
ROOT
ATOM      1  C   UNL     1       2.960   4.036  17.243  0.00  0.00    +0.000 A 
ATOM      2  C   UNL     1       4.246   4.092  16.732  0.00  0.00    +0.000 A 
ATOM      3  N   UNL     1       5.025   5.194  16.793  0.00  0.00    +0.000 NA
ATOM      4  C   UNL     1       4.501   6.292  17.398  0.00  0.00    +0.000 A 
ATOM      5 CL   UNL     1       5.614   7.604  17.383  0.00  0.00    +0.000 Cl
ATOM      6  C   UNL     1       3.227   6.358  17.984  0.00  0.00    +0.000 A 
ATOM      7  C   UNL     1       2.465   5.185  17.863  0.00  0.00    +0.000 A 
ENDROOT
BRANCH   6   8
ATOM      8  C   UNL     1       2.615   7.541  18.643  0.00  0.00    +0.000 C 
ATOM      9  C   UNL     1       1.941   7.522  19.826  0.00  0.00    +0.000 C 
BRANCH   9  10
ATOM     10  C   UNL     1       1.361   8.696  20.490  0.00  0.00    +0.000 A 
ATOM     11  C   UNL     1       1.091   8.755  21.858  0.00  0.00    +0.000 A 
ATOM     12  C   UNL     1       0.585   9.932  22.383  0.00  0.00    +0.000 A 
ATOM     13  N   UNL     1       0.335  11.040  21.652  0.00  0.00    +0.000 NA
ATOM     14  C   UNL     1       0.607  10.970  20.335  0.00  0.00    +0.000 A 
ATOM     15  C   UNL     1       1.119   9.839  19.718  0.00  0.00    +0.000 A 
ENDBRANCH   9  10
ENDBRANCH   6   8
BRANCH   1  16
ATOM     16  O   UNL     1       2.273   2.860  17.111  0.00  0.00    +0.000 OA
BRANCH  16  17
ATOM     17  C   UNL     1       2.817   1.777  17.880  0.00  0.00    +0.000 C 
BRANCH  17  23
ATOM     18  C   UNL     1       4.511   2.040  20.487  0.00  0.00    +0.000 C 
ATOM     19  N   UNL     1       3.227   2.659  20.184  0.00  0.00    +0.000 NA
ATOM     20  C   UNL     1       2.449   2.913  21.398  0.00  0.00    +0.000 C 
ATOM     21  C   UNL     1       1.066   3.221  20.857  0.00  0.00    +0.000 C 
ATOM     22  C   UNL     1       0.980   2.483  19.522  0.00  0.00    +0.000 C 
ATOM     23  C   UNL     1       2.352   1.826  19.340  0.00  0.00    +0.000 C 
ENDBRANCH  17  23
ENDBRANCH  16  17
ENDBRANCH   1  16
TORSDOF 5
ENDMDL
MODEL 4
REMARK VINA RESULT:      -7.1      2.936      4.850
REMARK  Name = 
REMARK  6 active torsions:
REMARK  status: ('A' for Active; 'I' for Inactive)
REMARK    1  A    between atoms: C_1  and  N_2
REMARK    2  A    between atoms: C_6  and  C_7
REMARK    3  A    between atoms: C_7  and  O_8
REMARK    4  A    between atoms: O_8  and  C_9
REMARK    5  A    between atoms: C_14  and  C_15
REMARK    6  A    between atoms: C_16  and  C_17
REMARK                            x       y       z     vdW  Elec       q    Type
REMARK                         _______ _______ _______ _____ _____    ______ ____
ROOT
ATOM      1  C   UNL     1       5.076   4.417  19.362  0.00  0.00    +0.000 A 
ATOM      2  C   UNL     1       4.445   3.198  19.544  0.00  0.00    +0.000 A 
ATOM      3  N   UNL     1       3.126   3.074  19.808  0.00  0.00    +0.000 NA
ATOM      4  C   UNL     1       2.398   4.219  19.888  0.00  0.00    +0.000 A 
ATOM      5 CL   UNL     1       0.746   3.886  20.237  0.00  0.00    +0.000 Cl
ATOM      6  C   UNL     1       2.907   5.513  19.693  0.00  0.00    +0.000 A 
ATOM      7  C   UNL     1       4.288   5.567  19.445  0.00  0.00    +0.000 A 
ENDROOT
BRANCH   6   8
ATOM      8  C   UNL     1       2.147   6.786  19.783  0.00  0.00    +0.000 C 
ATOM      9  C   UNL     1       1.666   7.337  20.930  0.00  0.00    +0.000 C 
BRANCH   9  10
ATOM     10  C   UNL     1       0.939   8.610  21.020  0.00  0.00    +0.000 A 
ATOM     11  C   UNL     1       0.302   9.056  22.179  0.00  0.00    +0.000 A 
ATOM     12  C   UNL     1      -0.315  10.295  22.162  0.00  0.00    +0.000 A 
ATOM     13  N   UNL     1      -0.340  11.111  21.085  0.00  0.00    +0.000 NA
ATOM     14  C   UNL     1       0.285  10.670  19.978  0.00  0.00    +0.000 A 
ATOM     15  C   UNL     1       0.933   9.448  19.899  0.00  0.00    +0.000 A 
ENDBRANCH   9  10
ENDBRANCH   6   8
BRANCH   1  16
ATOM     16  O   UNL     1       6.420   4.407  19.107  0.00  0.00    +0.000 OA
BRANCH  16  17
ATOM     17  C   UNL     1       6.814   5.254  18.017  0.00  0.00    +0.000 C 
BRANCH  17  23
ATOM     18  C   UNL     1       4.829   6.923  16.280  0.00  0.00    +0.000 C 
ATOM     19  N   UNL     1       5.886   6.028  15.827  0.00  0.00    +0.000 NA
ATOM     20  C   UNL     1       5.580   5.448  14.518  0.00  0.00    +0.000 C 
ATOM     21  C   UNL     1       6.595   4.327  14.396  0.00  0.00    +0.000 C 
ATOM     22  C   UNL     1       6.920   3.918  15.832  0.00  0.00    +0.000 C 
ATOM     23  C   UNL     1       6.105   4.871  16.713  0.00  0.00    +0.000 C 
ENDBRANCH  17  23
ENDBRANCH  16  17
ENDBRANCH   1  16
TORSDOF 5
ENDMDL
MODEL 5
REMARK VINA RESULT:      -7.1      2.660      4.626
REMARK  Name = 
REMARK  6 active torsions:
REMARK  status: ('A' for Active; 'I' for Inactive)
REMARK    1  A    between atoms: C_1  and  N_2
REMARK    2  A    between atoms: C_6  and  C_7
REMARK    3  A    between atoms: C_7  and  O_8
REMARK    4  A    between atoms: O_8  and  C_9
REMARK    5  A    between atoms: C_14  and  C_15
REMARK    6  A    between atoms: C_16  and  C_17
REMARK                            x       y       z     vdW  Elec       q    Type
REMARK                         _______ _______ _______ _____ _____    ______ ____
ROOT
ATOM      1  C   UNL     1       5.067   4.241  19.318  0.00  0.00    +0.000 A 
ATOM      2  C   UNL     1       4.417   3.023  19.432  0.00  0.00    +0.000 A 
ATOM      3  N   UNL     1       3.107   2.904  19.736  0.00  0.00    +0.000 NA
ATOM      4  C   UNL     1       2.407   4.053  19.931  0.00  0.00    +0.000 A 
ATOM      5 CL   UNL     1       0.762   3.724  20.317  0.00  0.00    +0.000 Cl
ATOM      6  C   UNL     1       2.935   5.348  19.814  0.00  0.00    +0.000 A 
ATOM      7  C   UNL     1       4.307   5.396  19.518  0.00  0.00    +0.000 A 
ENDROOT
BRANCH   6   8
ATOM      8  C   UNL     1       2.207   6.625  20.029  0.00  0.00    +0.000 C 
ATOM      9  C   UNL     1       2.184   7.674  19.162  0.00  0.00    +0.000 C 
BRANCH   9  10
ATOM     10  C   UNL     1       1.442   8.924  19.364  0.00  0.00    +0.000 A 
ATOM     11  C   UNL     1       1.279   9.894  18.374  0.00  0.00    +0.000 A 
ATOM     12  C   UNL     1       0.520  11.016  18.663  0.00  0.00    +0.000 A 
ATOM     13  N   UNL     1      -0.083  11.234  19.852  0.00  0.00    +0.000 NA
ATOM     14  C   UNL     1       0.077  10.286  20.794  0.00  0.00    +0.000 A 
ATOM     15  C   UNL     1       0.814   9.129  20.599  0.00  0.00    +0.000 A 
ENDBRANCH   9  10
ENDBRANCH   6   8
BRANCH   1  16
ATOM     16  O   UNL     1       6.400   4.226  19.010  0.00  0.00    +0.000 OA
BRANCH  16  17
ATOM     17  C   UNL     1       6.769   5.140  17.967  0.00  0.00    +0.000 C 
BRANCH  17  23
ATOM     18  C   UNL     1       4.825   6.905  16.280  0.00  0.00    +0.000 C 
ATOM     19  N   UNL     1       5.867   6.006  15.801  0.00  0.00    +0.000 NA
ATOM     20  C   UNL     1       5.555   5.478  14.472  0.00  0.00    +0.000 C 
ATOM     21  C   UNL     1       6.550   4.342  14.316  0.00  0.00    +0.000 C 
ATOM     22  C   UNL     1       6.860   3.878  15.738  0.00  0.00    +0.000 C 
ATOM     23  C   UNL     1       6.059   4.815  16.648  0.00  0.00    +0.000 C 
ENDBRANCH  17  23
ENDBRANCH  16  17
ENDBRANCH   1  16
TORSDOF 5
ENDMDL
MODEL 6
REMARK VINA RESULT:      -7.0      2.980      4.894
REMARK  Name = 
REMARK  6 active torsions:
REMARK  status: ('A' for Active; 'I' for Inactive)
REMARK    1  A    between atoms: C_1  and  N_2
REMARK    2  A    between atoms: C_6  and  C_7
REMARK    3  A    between atoms: C_7  and  O_8
REMARK    4  A    between atoms: O_8  and  C_9
REMARK    5  A    between atoms: C_14  and  C_15
REMARK    6  A    between atoms: C_16  and  C_17
REMARK                            x       y       z     vdW  Elec       q    Type
REMARK                         _______ _______ _______ _____ _____    ______ ____
ROOT
ATOM      1  C   UNL     1       4.718   4.032  19.390  0.00  0.00    +0.000 A 
ATOM      2  C   UNL     1       4.120   2.785  19.317  0.00  0.00    +0.000 A 
ATOM      3  N   UNL     1       2.820   2.565  19.610  0.00  0.00    +0.000 NA
ATOM      4  C   UNL     1       2.077   3.638  19.988  0.00  0.00    +0.000 A 
ATOM      5 CL   UNL     1       0.453   3.185  20.331  0.00  0.00    +0.000 Cl
ATOM      6  C   UNL     1       2.552   4.956  20.071  0.00  0.00    +0.000 A 
ATOM      7  C   UNL     1       3.916   5.108  19.775  0.00  0.00    +0.000 A 
ENDROOT
BRANCH   6   8
ATOM      8  C   UNL     1       1.776   6.153  20.489  0.00  0.00    +0.000 C 
ATOM      9  C   UNL     1       2.025   7.431  20.093  0.00  0.00    +0.000 C 
BRANCH   9  10
ATOM     10  C   UNL     1       1.240   8.608  20.486  0.00  0.00    +0.000 A 
ATOM     11  C   UNL     1       0.847   9.607  19.594  0.00  0.00    +0.000 A 
ATOM     12  C   UNL     1       0.070  10.651  20.068  0.00  0.00    +0.000 A 
ATOM     13  N   UNL     1      -0.341  10.765  21.350  0.00  0.00    +0.000 NA
ATOM     14  C   UNL     1       0.040   9.789  22.196  0.00  0.00    +0.000 A 
ATOM     15  C   UNL     1       0.813   8.704  21.816  0.00  0.00    +0.000 A 
ENDBRANCH   9  10
ENDBRANCH   6   8
BRANCH   1  16
ATOM     16  O   UNL     1       6.047   4.120  19.073  0.00  0.00    +0.000 OA
BRANCH  16  17
ATOM     17  C   UNL     1       6.306   4.208  17.664  0.00  0.00    +0.000 C 
BRANCH  17  23
ATOM     18  C   UNL     1       5.269   6.628  15.988  0.00  0.00    +0.000 C 
ATOM     19  N   UNL     1       6.094   6.654  17.188  0.00  0.00    +0.000 NA
ATOM     20  C   UNL     1       6.950   7.841  17.229  0.00  0.00    +0.000 C 
ATOM     21  C   UNL     1       7.937   7.511  18.334  0.00  0.00    +0.000 C 
ATOM     22  C   UNL     1       8.016   5.985  18.363  0.00  0.00    +0.000 C 
ATOM     23  C   UNL     1       7.021   5.514  17.297  0.00  0.00    +0.000 C 
ENDBRANCH  17  23
ENDBRANCH  16  17
ENDBRANCH   1  16
TORSDOF 5
ENDMDL
MODEL 7
REMARK VINA RESULT:      -7.0      2.773      4.591
REMARK  Name = 
REMARK  6 active torsions:
REMARK  status: ('A' for Active; 'I' for Inactive)
REMARK    1  A    between atoms: C_1  and  N_2
REMARK    2  A    between atoms: C_6  and  C_7
REMARK    3  A    between atoms: C_7  and  O_8
REMARK    4  A    between atoms: O_8  and  C_9
REMARK    5  A    between atoms: C_14  and  C_15
REMARK    6  A    between atoms: C_16  and  C_17
REMARK                            x       y       z     vdW  Elec       q    Type
REMARK                         _______ _______ _______ _____ _____    ______ ____
ROOT
ATOM      1  C   UNL     1       3.587   4.055  17.819  0.00  0.00    +0.000 A 
ATOM      2  C   UNL     1       3.687   2.833  18.463  0.00  0.00    +0.000 A 
ATOM      3  N   UNL     1       3.213   2.607  19.707  0.00  0.00    +0.000 NA
ATOM      4  C   UNL     1       2.604   3.645  20.339  0.00  0.00    +0.000 A 
ATOM      5 CL   UNL     1       2.068   3.192  21.911  0.00  0.00    +0.000 Cl
ATOM      6  C   UNL     1       2.409   4.921  19.788  0.00  0.00    +0.000 A 
ATOM      7  C   UNL     1       2.946   5.091  18.502  0.00  0.00    +0.000 A 
ENDROOT
BRANCH   6   8
ATOM      8  C   UNL     1       1.759   6.082  20.449  0.00  0.00    +0.000 C 
ATOM      9  C   UNL     1       1.952   7.387  20.115  0.00  0.00    +0.000 C 
BRANCH   9  10
ATOM     10  C   UNL     1       1.288   8.532  20.752  0.00  0.00    +0.000 A 
ATOM     11  C   UNL     1       1.032   8.613  22.121  0.00  0.00    +0.000 A 
ATOM     12  C   UNL     1       0.441   9.762  22.618  0.00  0.00    +0.000 A 
ATOM     13  N   UNL     1       0.094  10.823  21.857  0.00  0.00    +0.000 NA
ATOM     14  C   UNL     1       0.354  10.733  20.540  0.00  0.00    +0.000 A 
ATOM     15  C   UNL     1       0.945   9.627  19.950  0.00  0.00    +0.000 A 
ENDBRANCH   9  10
ENDBRANCH   6   8
BRANCH   1  16
ATOM     16  O   UNL     1       4.114   4.156  16.560  0.00  0.00    +0.000 OA
BRANCH  16  17
ATOM     17  C   UNL     1       5.465   3.683  16.453  0.00  0.00    +0.000 C 
BRANCH  17  23
ATOM     18  C   UNL     1       5.225   6.673  15.591  0.00  0.00    +0.000 C 
ATOM     19  N   UNL     1       5.834   6.132  16.799  0.00  0.00    +0.000 NA
ATOM     20  C   UNL     1       6.896   7.004  17.305  0.00  0.00    +0.000 C 
ATOM     21  C   UNL     1       7.605   6.124  18.318  0.00  0.00    +0.000 C 
ATOM     22  C   UNL     1       7.366   4.690  17.846  0.00  0.00    +0.000 C 
ATOM     23  C   UNL     1       6.480   4.822  16.602  0.00  0.00    +0.000 C 
ENDBRANCH  17  23
ENDBRANCH  16  17
ENDBRANCH   1  16
TORSDOF 5
ENDMDL
MODEL 8
REMARK VINA RESULT:      -7.0      1.586      2.153
REMARK  Name = 
REMARK  6 active torsions:
REMARK  status: ('A' for Active; 'I' for Inactive)
REMARK    1  A    between atoms: C_1  and  N_2
REMARK    2  A    between atoms: C_6  and  C_7
REMARK    3  A    between atoms: C_7  and  O_8
REMARK    4  A    between atoms: O_8  and  C_9
REMARK    5  A    between atoms: C_14  and  C_15
REMARK    6  A    between atoms: C_16  and  C_17
REMARK                            x       y       z     vdW  Elec       q    Type
REMARK                         _______ _______ _______ _____ _____    ______ ____
ROOT
ATOM      1  C   UNL     1       5.242   4.439  18.762  0.00  0.00    +0.000 A 
ATOM      2  C   UNL     1       5.956   4.323  17.581  0.00  0.00    +0.000 A 
ATOM      3  N   UNL     1       5.788   5.147  16.525  0.00  0.00    +0.000 NA
ATOM      4  C   UNL     1       4.868   6.140  16.651  0.00  0.00    +0.000 A 
ATOM      5 CL   UNL     1       4.772   7.088  15.219  0.00  0.00    +0.000 Cl
ATOM      6  C   UNL     1       4.102   6.386  17.801  0.00  0.00    +0.000 A 
ATOM      7  C   UNL     1       4.313   5.478  18.851  0.00  0.00    +0.000 A 
ENDROOT
BRANCH   6   8
ATOM      8  C   UNL     1       3.082   7.452  17.974  0.00  0.00    +0.000 C 
ATOM      9  C   UNL     1       2.394   7.705  19.122  0.00  0.00    +0.000 C 
BRANCH   9  10
ATOM     10  C   UNL     1       1.406   8.776  19.299  0.00  0.00    +0.000 A 
ATOM     11  C   UNL     1       0.793   9.068  20.518  0.00  0.00    +0.000 A 
ATOM     12  C   UNL     1      -0.092  10.131  20.578  0.00  0.00    +0.000 A 
ATOM     13  N   UNL     1      -0.403  10.916  19.522  0.00  0.00    +0.000 NA
ATOM     14  C   UNL     1       0.202  10.626  18.355  0.00  0.00    +0.000 A 
ATOM     15  C   UNL     1       1.104   9.587  18.197  0.00  0.00    +0.000 A 
ENDBRANCH   9  10
ENDBRANCH   6   8
BRANCH   1  16
ATOM     16  O   UNL     1       5.503   3.536  19.756  0.00  0.00    +0.000 OA
BRANCH  16  17
ATOM     17  C   UNL     1       4.511   2.506  19.884  0.00  0.00    +0.000 C 
BRANCH  17  23
ATOM     18  C   UNL     1       2.206   2.503  17.781  0.00  0.00    +0.000 C 
ATOM     19  N   UNL     1       2.107   2.314  19.222  0.00  0.00    +0.000 NA
ATOM     20  C   UNL     1       0.807   2.747  19.737  0.00  0.00    +0.000 C 
ATOM     21  C   UNL     1       1.032   2.791  21.237  0.00  0.00    +0.000 C 
ATOM     22  C   UNL     1       2.528   3.049  21.414  0.00  0.00    +0.000 C 
ATOM     23  C   UNL     1       3.097   3.088  19.992  0.00  0.00    +0.000 C 
ENDBRANCH  17  23
ENDBRANCH  16  17
ENDBRANCH   1  16
TORSDOF 5
ENDMDL
MODEL 9
REMARK VINA RESULT:      -6.9      3.011      4.950
REMARK  Name = 
REMARK  6 active torsions:
REMARK  status: ('A' for Active; 'I' for Inactive)
REMARK    1  A    between atoms: C_1  and  N_2
REMARK    2  A    between atoms: C_6  and  C_7
REMARK    3  A    between atoms: C_7  and  O_8
REMARK    4  A    between atoms: O_8  and  C_9
REMARK    5  A    between atoms: C_14  and  C_15
REMARK    6  A    between atoms: C_16  and  C_17
REMARK                            x       y       z     vdW  Elec       q    Type
REMARK                         _______ _______ _______ _____ _____    ______ ____
ROOT
ATOM      1  C   UNL     1       4.882   4.231  19.391  0.00  0.00    +0.000 A 
ATOM      2  C   UNL     1       4.202   3.044  19.612  0.00  0.00    +0.000 A 
ATOM      3  N   UNL     1       2.887   2.985  19.913  0.00  0.00    +0.000 NA
ATOM      4  C   UNL     1       2.214   4.163  19.993  0.00  0.00    +0.000 A 
ATOM      5 CL   UNL     1       0.559   3.911  20.392  0.00  0.00    +0.000 Cl
ATOM      6  C   UNL     1       2.775   5.429  19.761  0.00  0.00    +0.000 A 
ATOM      7  C   UNL     1       4.149   5.417  19.475  0.00  0.00    +0.000 A 
ENDROOT
BRANCH   6   8
ATOM      8  C   UNL     1       2.076   6.737  19.849  0.00  0.00    +0.000 C 
ATOM      9  C   UNL     1       1.587   7.294  20.990  0.00  0.00    +0.000 C 
BRANCH   9  10
ATOM     10  C   UNL     1       0.921   8.599  21.079  0.00  0.00    +0.000 A 
ATOM     11  C   UNL     1       0.337   9.091  22.248  0.00  0.00    +0.000 A 
ATOM     12  C   UNL     1      -0.224  10.357  22.226  0.00  0.00    +0.000 A 
ATOM     13  N   UNL     1      -0.242  11.157  21.138  0.00  0.00    +0.000 NA
ATOM     14  C   UNL     1       0.331  10.672  20.021  0.00  0.00    +0.000 A 
ATOM     15  C   UNL     1       0.921   9.420  19.945  0.00  0.00    +0.000 A 
ENDBRANCH   9  10
ENDBRANCH   6   8
BRANCH   1  16
ATOM     16  O   UNL     1       6.217   4.155  19.100  0.00  0.00    +0.000 OA
BRANCH  16  17
ATOM     17  C   UNL     1       6.516   4.264  17.700  0.00  0.00    +0.000 C 
BRANCH  17  23
ATOM     18  C   UNL     1       5.628   6.633  15.873  0.00  0.00    +0.000 C 
ATOM     19  N   UNL     1       6.330   6.696  17.148  0.00  0.00    +0.000 NA
ATOM     20  C   UNL     1       7.166   7.894  17.246  0.00  0.00    +0.000 C 
ATOM     21  C   UNL     1       8.042   7.599  18.451  0.00  0.00    +0.000 C 
ATOM     22  C   UNL     1       8.131   6.075  18.523  0.00  0.00    +0.000 C 
ATOM     23  C   UNL     1       7.251   5.569  17.375  0.00  0.00    +0.000 C 
ENDBRANCH  17  23
ENDBRANCH  16  17
ENDBRANCH   1  16
TORSDOF 5
ENDMDL
