MODEL 1
REMARK VINA RESULT:      -7.9      0.000      0.000
REMARK  Name = 
REMARK  4 active torsions:
REMARK  status: ('A' for Active; 'I' for Inactive)
REMARK    1  A    between atoms: C_1  and  O_2
REMARK    2  A    between atoms: O_2  and  C_3
REMARK    3  A    between atoms: C_9  and  C_10
REMARK    4  A    between atoms: N_12  and  C_13
REMARK                            x       y       z     vdW  Elec       q    Type
REMARK                         _______ _______ _______ _____ _____    ______ ____
ROOT
ATOM      1  C   UNL     1       1.771   8.038  20.241  0.00  0.00    +0.000 C 
ATOM      2  C   UNL     1       2.183   7.924  18.766  0.00  0.00    +0.000 C 
ATOM      3  C   UNL     1       3.099   6.729  18.940  0.00  0.00    +0.000 C 
ATOM      4  C   UNL     1       3.971   6.231  17.828  0.00  0.00    +0.000 C 
ATOM      5  O   UNL     1       4.379   6.935  16.898  0.00  0.00    +0.000 OA
ATOM      6  N   UNL     1       4.469   4.972  18.069  0.00  0.00    +0.000 N 
ATOM      7  C   UNL     1       3.642   4.023  18.702  0.00  0.00    +0.000 A 
ATOM      8  C   UNL     1       3.986   2.684  18.492  0.00  0.00    +0.000 A 
ATOM      9  C   UNL     1       3.002   1.717  18.606  0.00  0.00    +0.000 A 
ATOM     10  C   UNL     1       1.721   2.100  19.001  0.00  0.00    +0.000 A 
ATOM     11  C   UNL     1       1.445   3.427  19.404  0.00  0.00    +0.000 A 
ATOM     12  C   UNL     1       2.409   4.431  19.288  0.00  0.00    +0.000 A 
ATOM     13  N   UNL     1       2.165   5.767  19.521  0.00  0.00    +0.000 N 
ATOM     14  C   UNL     1       1.472   6.507  20.621  0.00  0.00    +0.000 C 
ATOM     15  H   UNL     1       5.191   4.643  17.441  0.00  0.00    +0.000 HD
ENDROOT
BRANCH   1  18
ATOM     16  C   UNL     1       0.821   9.776  21.695  0.00  0.00    +0.000 C 
ATOM     17  O   UNL     1       1.476   9.367  22.651  0.00  0.00    +0.000 OA
ATOM     18  N   UNL     1       0.786   9.077  20.498  0.00  0.00    +0.000 N 
ATOM     19  H   UNL     1       0.419   9.597  19.706  0.00  0.00    +0.000 HD
BRANCH  16  26
ATOM     20  C   UNL     1       0.384  12.277  21.145  0.00  0.00    +0.000 A 
ATOM     21  C   UNL     1      -0.478  13.385  21.271  0.00  0.00    +0.000 A 
ATOM     22  C   UNL     1      -1.605  13.330  22.092  0.00  0.00    +0.000 A 
ATOM     23  C   UNL     1      -1.878  12.170  22.806  0.00  0.00    +0.000 A 
ATOM     24 CL   UNL     1      -3.255  12.117  23.837  0.00  0.00    +0.000 Cl
ATOM     25  C   UNL     1      -1.060  11.054  22.669  0.00  0.00    +0.000 A 
ATOM     26  C   UNL     1       0.061  11.076  21.811  0.00  0.00    +0.000 A 
BRANCH  20  28
ATOM     27  C   UNL     1       1.351  12.679  19.012  0.00  0.00    +0.000 C 
ATOM     28  O   UNL     1       1.527  12.323  20.384  0.00  0.00    +0.000 OA
ENDBRANCH  20  28
ENDBRANCH  16  26
ENDBRANCH   1  18
TORSDOF 3
ENDMDL
MODEL 2
REMARK VINA RESULT:      -7.6      3.474      8.877
REMARK  Name = 
REMARK  4 active torsions:
REMARK  status: ('A' for Active; 'I' for Inactive)
REMARK    1  A    between atoms: C_1  and  O_2
REMARK    2  A    between atoms: O_2  and  C_3
REMARK    3  A    between atoms: C_9  and  C_10
REMARK    4  A    between atoms: N_12  and  C_13
REMARK                            x       y       z     vdW  Elec       q    Type
REMARK                         _______ _______ _______ _____ _____    ______ ____
ROOT
ATOM      1  C   UNL     1       1.672   8.509  19.866  0.00  0.00    +0.000 C 
ATOM      2  C   UNL     1       0.877   8.339  21.169  0.00  0.00    +0.000 C 
ATOM      3  C   UNL     1       0.584   9.811  21.380  0.00  0.00    +0.000 C 
ATOM      4  C   UNL     1      -0.047  10.320  22.640  0.00  0.00    +0.000 C 
ATOM      5  O   UNL     1       0.033   9.751  23.734  0.00  0.00    +0.000 OA
ATOM      6  N   UNL     1      -0.521  11.604  22.512  0.00  0.00    +0.000 N 
ATOM      7  C   UNL     1      -1.126  11.989  21.299  0.00  0.00    +0.000 A 
ATOM      8  C   UNL     1      -1.995  13.082  21.374  0.00  0.00    +0.000 A 
ATOM      9  C   UNL     1      -2.996  13.205  20.425  0.00  0.00    +0.000 A 
ATOM     10  C   UNL     1      -3.055  12.281  19.382  0.00  0.00    +0.000 A 
ATOM     11  C   UNL     1      -2.046  11.304  19.210  0.00  0.00    +0.000 A 
ATOM     12  C   UNL     1      -1.031  11.142  20.157  0.00  0.00    +0.000 A 
ATOM     13  N   UNL     1      -0.106  10.121  20.130  0.00  0.00    +0.000 N 
ATOM     14  C   UNL     1       0.755   9.545  19.051  0.00  0.00    +0.000 C 
ATOM     15  H   UNL     1      -0.811  12.067  23.364  0.00  0.00    +0.000 HD
ENDROOT
BRANCH   1  18
ATOM     16  C   UNL     1       2.810   7.264  18.079  0.00  0.00    +0.000 C 
ATOM     17  O   UNL     1       2.865   8.273  17.379  0.00  0.00    +0.000 OA
ATOM     18  N   UNL     1       2.094   7.253  19.266  0.00  0.00    +0.000 N 
ATOM     19  H   UNL     1       2.293   6.469  19.882  0.00  0.00    +0.000 HD
BRANCH  16  26
ATOM     20  C   UNL     1       3.078   4.698  17.771  0.00  0.00    +0.000 A 
ATOM     21  C   UNL     1       3.846   3.643  17.242  0.00  0.00    +0.000 A 
ATOM     22  C   UNL     1       5.096   3.879  16.669  0.00  0.00    +0.000 A 
ATOM     23  C   UNL     1       5.599   5.174  16.628  0.00  0.00    +0.000 A 
ATOM     24 CL   UNL     1       7.152   5.456  15.944  0.00  0.00    +0.000 Cl
ATOM     25  C   UNL     1       4.842   6.234  17.113  0.00  0.00    +0.000 A 
ATOM     26  C   UNL     1       3.557   6.021  17.658  0.00  0.00    +0.000 A 
BRANCH  20  28
ATOM     27  C   UNL     1       1.363   3.150  18.328  0.00  0.00    +0.000 C 
ATOM     28  O   UNL     1       1.868   4.486  18.386  0.00  0.00    +0.000 OA
ENDBRANCH  20  28
ENDBRANCH  16  26
ENDBRANCH   1  18
TORSDOF 3
ENDMDL
MODEL 3
REMARK VINA RESULT:      -7.6      1.152      1.323
REMARK  Name = 
REMARK  4 active torsions:
REMARK  status: ('A' for Active; 'I' for Inactive)
REMARK    1  A    between atoms: C_1  and  O_2
REMARK    2  A    between atoms: O_2  and  C_3
REMARK    3  A    between atoms: C_9  and  C_10
REMARK    4  A    between atoms: N_12  and  C_13
REMARK                            x       y       z     vdW  Elec       q    Type
REMARK                         _______ _______ _______ _____ _____    ______ ____
ROOT
ATOM      1  C   UNL     1       1.149   8.864  20.870  0.00  0.00    +0.000 C 
ATOM      2  C   UNL     1       1.434   8.619  19.381  0.00  0.00    +0.000 C 
ATOM      3  C   UNL     1       2.430   7.495  19.583  0.00  0.00    +0.000 C 
ATOM      4  C   UNL     1       3.226   6.928  18.448  0.00  0.00    +0.000 C 
ATOM      5  O   UNL     1       3.508   7.553  17.419  0.00  0.00    +0.000 OA
ATOM      6  N   UNL     1       3.817   5.727  18.763  0.00  0.00    +0.000 N 
ATOM      7  C   UNL     1       3.106   4.808  19.561  0.00  0.00    +0.000 A 
ATOM      8  C   UNL     1       3.508   3.473  19.453  0.00  0.00    +0.000 A 
ATOM      9  C   UNL     1       2.596   2.476  19.753  0.00  0.00    +0.000 A 
ATOM     10  C   UNL     1       1.335   2.835  20.228  0.00  0.00    +0.000 A 
ATOM     11  C   UNL     1       1.019   4.181  20.523  0.00  0.00    +0.000 A 
ATOM     12  C   UNL     1       1.909   5.214  20.219  0.00  0.00    +0.000 A 
ATOM     13  N   UNL     1       1.609   6.553  20.342  0.00  0.00    +0.000 N 
ATOM     14  C   UNL     1       0.975   7.367  21.424  0.00  0.00    +0.000 C 
ATOM     15  H   UNL     1       4.497   5.370  18.105  0.00  0.00    +0.000 HD
ENDROOT
BRANCH   1  18
ATOM     16  C   UNL     1      -0.055  10.364  22.400  0.00  0.00    +0.000 C 
ATOM     17  O   UNL     1       0.414   9.782  23.376  0.00  0.00    +0.000 OA
ATOM     18  N   UNL     1       0.132   9.875  21.116  0.00  0.00    +0.000 N 
ATOM     19  H   UNL     1      -0.084  10.530  20.369  0.00  0.00    +0.000 HD
BRANCH  16  26
ATOM     20  C   UNL     1      -0.444  12.915  22.106  0.00  0.00    +0.000 A 
ATOM     21  C   UNL     1      -1.315  14.008  22.277  0.00  0.00    +0.000 A 
ATOM     22  C   UNL     1      -2.515  13.869  22.976  0.00  0.00    +0.000 A 
ATOM     23  C   UNL     1      -2.853  12.636  23.522  0.00  0.00    +0.000 A 
ATOM     24 CL   UNL     1      -4.320  12.476  24.404  0.00  0.00    +0.000 Cl
ATOM     25  C   UNL     1      -2.023  11.537  23.333  0.00  0.00    +0.000 A 
ATOM     26  C   UNL     1      -0.826  11.648  22.594  0.00  0.00    +0.000 A 
BRANCH  20  28
ATOM     27  C   UNL     1       0.721  13.558  20.136  0.00  0.00    +0.000 C 
ATOM     28  O   UNL     1       0.766  13.039  21.466  0.00  0.00    +0.000 OA
ENDBRANCH  20  28
ENDBRANCH  16  26
ENDBRANCH   1  18
TORSDOF 3
ENDMDL
MODEL 4
REMARK VINA RESULT:      -7.5      2.316      3.508
REMARK  Name = 
REMARK  4 active torsions:
REMARK  status: ('A' for Active; 'I' for Inactive)
REMARK    1  A    between atoms: C_1  and  O_2
REMARK    2  A    between atoms: O_2  and  C_3
REMARK    3  A    between atoms: C_9  and  C_10
REMARK    4  A    between atoms: N_12  and  C_13
REMARK                            x       y       z     vdW  Elec       q    Type
REMARK                         _______ _______ _______ _____ _____    ______ ____
ROOT
ATOM      1  C   UNL     1       1.819   8.096  18.882  0.00  0.00    +0.000 C 
ATOM      2  C   UNL     1       2.233   6.908  19.764  0.00  0.00    +0.000 C 
ATOM      3  C   UNL     1       2.565   5.962  18.626  0.00  0.00    +0.000 C 
ATOM      4  C   UNL     1       2.881   4.518  18.864  0.00  0.00    +0.000 C 
ATOM      5  O   UNL     1       2.478   3.871  19.838  0.00  0.00    +0.000 OA
ATOM      6  N   UNL     1       3.463   3.916  17.774  0.00  0.00    +0.000 N 
ATOM      7  C   UNL     1       4.389   4.650  17.006  0.00  0.00    +0.000 A 
ATOM      8  C   UNL     1       5.285   3.891  16.247  0.00  0.00    +0.000 A 
ATOM      9  C   UNL     1       6.504   4.447  15.900  0.00  0.00    +0.000 A 
ATOM     10  C   UNL     1       6.767   5.771  16.250  0.00  0.00    +0.000 A 
ATOM     11  C   UNL     1       5.770   6.585  16.838  0.00  0.00    +0.000 A 
ATOM     12  C   UNL     1       4.534   6.052  17.215  0.00  0.00    +0.000 A 
ATOM     13  N   UNL     1       3.578   6.747  17.923  0.00  0.00    +0.000 N 
ATOM     14  C   UNL     1       2.989   8.114  17.782  0.00  0.00    +0.000 C 
ATOM     15  H   UNL     1       3.553   2.909  17.806  0.00  0.00    +0.000 HD
ENDROOT
BRANCH   1  18
ATOM     16  C   UNL     1       0.439  10.103  19.201  0.00  0.00    +0.000 C 
ATOM     17  O   UNL     1      -0.025   9.992  18.068  0.00  0.00    +0.000 OA
ATOM     18  N   UNL     1       1.480   9.295  19.632  0.00  0.00    +0.000 N 
ATOM     19  H   UNL     1       1.638   9.294  20.636  0.00  0.00    +0.000 HD
BRANCH  16  26
ATOM     20  C   UNL     1      -0.557  10.855  21.480  0.00  0.00    +0.000 A 
ATOM     21  C   UNL     1      -0.995  11.923  22.286  0.00  0.00    +0.000 A 
ATOM     22  C   UNL     1      -1.093  13.218  21.775  0.00  0.00    +0.000 A 
ATOM     23  C   UNL     1      -0.764  13.458  20.446  0.00  0.00    +0.000 A 
ATOM     24 CL   UNL     1      -0.912  15.050  19.813  0.00  0.00    +0.000 Cl
ATOM     25  C   UNL     1      -0.296  12.423  19.643  0.00  0.00    +0.000 A 
ATOM     26  C   UNL     1      -0.150  11.115  20.154  0.00  0.00    +0.000 A 
BRANCH  20  28
ATOM     27  C   UNL     1       0.160   9.378  23.199  0.00  0.00    +0.000 C 
ATOM     28  O   UNL     1      -0.500   9.563  21.945  0.00  0.00    +0.000 OA
ENDBRANCH  20  28
ENDBRANCH  16  26
ENDBRANCH   1  18
TORSDOF 3
ENDMDL
MODEL 5
REMARK VINA RESULT:      -7.4      2.288      3.441
REMARK  Name = 
REMARK  4 active torsions:
REMARK  status: ('A' for Active; 'I' for Inactive)
REMARK    1  A    between atoms: C_1  and  O_2
REMARK    2  A    between atoms: O_2  and  C_3
REMARK    3  A    between atoms: C_9  and  C_10
REMARK    4  A    between atoms: N_12  and  C_13
REMARK                            x       y       z     vdW  Elec       q    Type
REMARK                         _______ _______ _______ _____ _____    ______ ____
ROOT
ATOM      1  C   UNL     1       1.871   7.785  18.801  0.00  0.00    +0.000 C 
ATOM      2  C   UNL     1       2.221   6.496  19.559  0.00  0.00    +0.000 C 
ATOM      3  C   UNL     1       2.701   5.716  18.351  0.00  0.00    +0.000 C 
ATOM      4  C   UNL     1       3.030   4.257  18.430  0.00  0.00    +0.000 C 
ATOM      5  O   UNL     1       2.543   3.481  19.260  0.00  0.00    +0.000 OA
ATOM      6  N   UNL     1       3.742   3.815  17.341  0.00  0.00    +0.000 N 
ATOM      7  C   UNL     1       4.724   4.658  16.782  0.00  0.00    +0.000 A 
ATOM      8  C   UNL     1       5.717   4.019  16.033  0.00  0.00    +0.000 A 
ATOM      9  C   UNL     1       6.950   4.634  15.899  0.00  0.00    +0.000 A 
ATOM     10  C   UNL     1       7.136   5.903  16.447  0.00  0.00    +0.000 A 
ATOM     11  C   UNL     1       6.059   6.616  17.023  0.00  0.00    +0.000 A 
ATOM     12  C   UNL     1       4.806   6.021  17.189  0.00  0.00    +0.000 A 
ATOM     13  N   UNL     1       3.760   6.602  17.872  0.00  0.00    +0.000 N 
ATOM     14  C   UNL     1       3.151   7.967  17.848  0.00  0.00    +0.000 C 
ATOM     15  H   UNL     1       3.857   2.814  17.250  0.00  0.00    +0.000 HD
ENDROOT
BRANCH   1  18
ATOM     16  C   UNL     1       0.487   9.778  19.186  0.00  0.00    +0.000 C 
ATOM     17  O   UNL     1       0.235   9.864  17.985  0.00  0.00    +0.000 OA
ATOM     18  N   UNL     1       1.419   8.869  19.660  0.00  0.00    +0.000 N 
ATOM     19  H   UNL     1       1.392   8.707  20.663  0.00  0.00    +0.000 HD
BRANCH  16  26
ATOM     20  C   UNL     1       0.137  10.898  21.504  0.00  0.00    +0.000 A 
ATOM     21  C   UNL     1      -0.594  11.824  22.274  0.00  0.00    +0.000 A 
ATOM     22  C   UNL     1      -1.727  12.453  21.758  0.00  0.00    +0.000 A 
ATOM     23  C   UNL     1      -2.150  12.157  20.467  0.00  0.00    +0.000 A 
ATOM     24 CL   UNL     1      -3.562  12.916  19.846  0.00  0.00    +0.000 Cl
ATOM     25  C   UNL     1      -1.422  11.272  19.679  0.00  0.00    +0.000 A 
ATOM     26  C   UNL     1      -0.250  10.657  20.168  0.00  0.00    +0.000 A 
BRANCH  20  28
ATOM     27  C   UNL     1       0.957   9.300  23.060  0.00  0.00    +0.000 C 
ATOM     28  O   UNL     1       1.225  10.227  22.006  0.00  0.00    +0.000 OA
ENDBRANCH  20  28
ENDBRANCH  16  26
ENDBRANCH   1  18
TORSDOF 3
ENDMDL
MODEL 6
REMARK VINA RESULT:      -7.4      3.453      8.928
REMARK  Name = 
REMARK  4 active torsions:
REMARK  status: ('A' for Active; 'I' for Inactive)
REMARK    1  A    between atoms: C_1  and  O_2
REMARK    2  A    between atoms: O_2  and  C_3
REMARK    3  A    between atoms: C_9  and  C_10
REMARK    4  A    between atoms: N_12  and  C_13
REMARK                            x       y       z     vdW  Elec       q    Type
REMARK                         _______ _______ _______ _____ _____    ______ ____
ROOT
ATOM      1  C   UNL     1       1.113   9.527  18.709  0.00  0.00    +0.000 C 
ATOM      2  C   UNL     1      -0.048  10.001  17.823  0.00  0.00    +0.000 C 
ATOM      3  C   UNL     1      -0.473  11.157  18.708  0.00  0.00    +0.000 C 
ATOM      4  C   UNL     1      -1.725  11.936  18.445  0.00  0.00    +0.000 C 
ATOM      5  O   UNL     1      -2.709  11.486  17.847  0.00  0.00    +0.000 OA
ATOM      6  N   UNL     1      -1.767  13.120  19.142  0.00  0.00    +0.000 N 
ATOM      7  C   UNL     1      -0.578  13.862  19.296  0.00  0.00    +0.000 A 
ATOM      8  C   UNL     1      -0.743  15.225  19.561  0.00  0.00    +0.000 A 
ATOM      9  C   UNL     1       0.273  16.098  19.217  0.00  0.00    +0.000 A 
ATOM     10  C   UNL     1       1.458  15.584  18.692  0.00  0.00    +0.000 A 
ATOM     11  C   UNL     1       1.683  14.189  18.621  0.00  0.00    +0.000 A 
ATOM     12  C   UNL     1       0.674  13.279  18.945  0.00  0.00    +0.000 A 
ATOM     13  N   UNL     1       0.773  11.917  18.759  0.00  0.00    +0.000 N 
ATOM     14  C   UNL     1       1.834  10.913  19.079  0.00  0.00    +0.000 C 
ATOM     15  H   UNL     1      -2.649  13.617  19.139  0.00  0.00    +0.000 HD
ENDROOT
BRANCH   1  18
ATOM     16  C   UNL     1       2.254   7.365  18.960  0.00  0.00    +0.000 C 
ATOM     17  O   UNL     1       2.220   7.464  20.186  0.00  0.00    +0.000 OA
ATOM     18  N   UNL     1       1.868   8.419  18.146  0.00  0.00    +0.000 N 
ATOM     19  H   UNL     1       1.708   8.175  17.172  0.00  0.00    +0.000 HD
BRANCH  16  26
ATOM     20  C   UNL     1       3.839   5.901  17.515  0.00  0.00    +0.000 A 
ATOM     21  C   UNL     1       4.185   4.608  17.075  0.00  0.00    +0.000 A 
ATOM     22  C   UNL     1       3.382   3.507  17.376  0.00  0.00    +0.000 A 
ATOM     23  C   UNL     1       2.216   3.687  18.111  0.00  0.00    +0.000 A 
ATOM     24 CL   UNL     1       1.217   2.331  18.456  0.00  0.00    +0.000 Cl
ATOM     25  C   UNL     1       1.876   4.950  18.584  0.00  0.00    +0.000 A 
ATOM     26  C   UNL     1       2.697   6.069  18.327  0.00  0.00    +0.000 A 
BRANCH  20  28
ATOM     27  C   UNL     1       5.980   6.781  16.975  0.00  0.00    +0.000 C 
ATOM     28  O   UNL     1       4.585   7.007  17.189  0.00  0.00    +0.000 OA
ENDBRANCH  20  28
ENDBRANCH  16  26
ENDBRANCH   1  18
TORSDOF 3
ENDMDL
MODEL 7
REMARK VINA RESULT:      -7.4      1.942      2.685
REMARK  Name = 
REMARK  4 active torsions:
REMARK  status: ('A' for Active; 'I' for Inactive)
REMARK    1  A    between atoms: C_1  and  O_2
REMARK    2  A    between atoms: O_2  and  C_3
REMARK    3  A    between atoms: C_9  and  C_10
REMARK    4  A    between atoms: N_12  and  C_13
REMARK                            x       y       z     vdW  Elec       q    Type
REMARK                         _______ _______ _______ _____ _____    ______ ____
ROOT
ATOM      1  C   UNL     1       1.432   8.591  19.432  0.00  0.00    +0.000 C 
ATOM      2  C   UNL     1       2.043   7.551  20.384  0.00  0.00    +0.000 C 
ATOM      3  C   UNL     1       2.130   6.427  19.370  0.00  0.00    +0.000 C 
ATOM      4  C   UNL     1       2.508   5.032  19.765  0.00  0.00    +0.000 C 
ATOM      5  O   UNL     1       2.336   4.561  20.895  0.00  0.00    +0.000 OA
ATOM      6  N   UNL     1       2.845   4.250  18.686  0.00  0.00    +0.000 N 
ATOM      7  C   UNL     1       3.571   4.828  17.626  0.00  0.00    +0.000 A 
ATOM      8  C   UNL     1       4.288   3.935  16.824  0.00  0.00    +0.000 A 
ATOM      9  C   UNL     1       5.395   4.399  16.135  0.00  0.00    +0.000 A 
ATOM     10  C   UNL     1       5.712   5.756  16.200  0.00  0.00    +0.000 A 
ATOM     11  C   UNL     1       4.858   6.677  16.851  0.00  0.00    +0.000 A 
ATOM     12  C   UNL     1       3.742   6.242  17.569  0.00  0.00    +0.000 A 
ATOM     13  N   UNL     1       2.954   7.064  18.346  0.00  0.00    +0.000 N 
ATOM     14  C   UNL     1       2.332   8.404  18.116  0.00  0.00    +0.000 C 
ATOM     15  H   UNL     1       2.952   3.259  18.861  0.00  0.00    +0.000 HD
ENDROOT
BRANCH   1  18
ATOM     16  C   UNL     1      -0.018  10.461  20.094  0.00  0.00    +0.000 C 
ATOM     17  O   UNL     1      -0.943  10.013  19.419  0.00  0.00    +0.000 OA
ATOM     18  N   UNL     1       1.250   9.903  20.033  0.00  0.00    +0.000 N 
ATOM     19  H   UNL     1       1.879  10.179  20.782  0.00  0.00    +0.000 HD
BRANCH  16  26
ATOM     20  C   UNL     1       0.501  12.803  21.090  0.00  0.00    +0.000 A 
ATOM     21  C   UNL     1       0.088  13.846  21.942  0.00  0.00    +0.000 A 
ATOM     22  C   UNL     1      -1.028  13.701  22.768  0.00  0.00    +0.000 A 
ATOM     23  C   UNL     1      -1.738  12.507  22.760  0.00  0.00    +0.000 A 
ATOM     24 CL   UNL     1      -3.096  12.325  23.799  0.00  0.00    +0.000 Cl
ATOM     25  C   UNL     1      -1.367  11.478  21.900  0.00  0.00    +0.000 A 
ATOM     26  C   UNL     1      -0.267  11.621  21.027  0.00  0.00    +0.000 A 
BRANCH  20  28
ATOM     27  C   UNL     1       2.676  13.723  20.818  0.00  0.00    +0.000 C 
ATOM     28  O   UNL     1       1.624  12.902  20.305  0.00  0.00    +0.000 OA
ENDBRANCH  20  28
ENDBRANCH  16  26
ENDBRANCH   1  18
TORSDOF 3
ENDMDL
MODEL 8
REMARK VINA RESULT:      -7.3      2.351      3.432
REMARK  Name = 
REMARK  4 active torsions:
REMARK  status: ('A' for Active; 'I' for Inactive)
REMARK    1  A    between atoms: C_1  and  O_2
REMARK    2  A    between atoms: O_2  and  C_3
REMARK    3  A    between atoms: C_9  and  C_10
REMARK    4  A    between atoms: N_12  and  C_13
REMARK                            x       y       z     vdW  Elec       q    Type
REMARK                         _______ _______ _______ _____ _____    ______ ____
ROOT
ATOM      1  C   UNL     1       1.507   8.832  19.106  0.00  0.00    +0.000 C 
ATOM      2  C   UNL     1       2.023   7.830  20.150  0.00  0.00    +0.000 C 
ATOM      3  C   UNL     1       2.062   6.630  19.224  0.00  0.00    +0.000 C 
ATOM      4  C   UNL     1       2.336   5.247  19.732  0.00  0.00    +0.000 C 
ATOM      5  O   UNL     1       2.103   4.874  20.887  0.00  0.00    +0.000 OA
ATOM      6  N   UNL     1       2.649   4.366  18.724  0.00  0.00    +0.000 N 
ATOM      7  C   UNL     1       3.441   4.816  17.648  0.00  0.00    +0.000 A 
ATOM      8  C   UNL     1       4.118   3.822  16.937  0.00  0.00    +0.000 A 
ATOM      9  C   UNL     1       5.271   4.161  16.250  0.00  0.00    +0.000 A 
ATOM     10  C   UNL     1       5.675   5.496  16.226  0.00  0.00    +0.000 A 
ATOM     11  C   UNL     1       4.867   6.516  16.781  0.00  0.00    +0.000 A 
ATOM     12  C   UNL     1       3.706   6.208  17.493  0.00  0.00    +0.000 A 
ATOM     13  N   UNL     1       2.954   7.134  18.183  0.00  0.00    +0.000 N 
ATOM     14  C   UNL     1       2.428   8.490  17.836  0.00  0.00    +0.000 C 
ATOM     15  H   UNL     1       2.686   3.386  18.974  0.00  0.00    +0.000 HD
ENDROOT
BRANCH   1  18
ATOM     16  C   UNL     1       0.291  10.961  19.268  0.00  0.00    +0.000 C 
ATOM     17  O   UNL     1      -0.458  10.630  18.351  0.00  0.00    +0.000 OA
ATOM     18  N   UNL     1       1.396  10.195  19.604  0.00  0.00    +0.000 N 
ATOM     19  H   UNL     1       1.815  10.412  20.504  0.00  0.00    +0.000 HD
BRANCH  16  26
ATOM     20  C   UNL     1      -0.077  12.288  21.471  0.00  0.00    +0.000 A 
ATOM     21  C   UNL     1      -0.266  13.543  22.080  0.00  0.00    +0.000 A 
ATOM     22  C   UNL     1      -0.452  14.694  21.313  0.00  0.00    +0.000 A 
ATOM     23  C   UNL     1      -0.460  14.601  19.926  0.00  0.00    +0.000 A 
ATOM     24 CL   UNL     1      -0.715  16.019  18.987  0.00  0.00    +0.000 Cl
ATOM     25  C   UNL     1      -0.240  13.377  19.306  0.00  0.00    +0.000 A 
ATOM     26  C   UNL     1      -0.009  12.209  20.064  0.00  0.00    +0.000 A 
BRANCH  20  28
ATOM     27  C   UNL     1      -1.050  10.791  23.041  0.00  0.00    +0.000 C 
ATOM     28  O   UNL     1       0.056  11.133  22.203  0.00  0.00    +0.000 OA
ENDBRANCH  20  28
ENDBRANCH  16  26
ENDBRANCH   1  18
TORSDOF 3
ENDMDL
MODEL 9
REMARK VINA RESULT:      -7.3      3.211      8.644
REMARK  Name = 
REMARK  4 active torsions:
REMARK  status: ('A' for Active; 'I' for Inactive)
REMARK    1  A    between atoms: C_1  and  O_2
REMARK    2  A    between atoms: O_2  and  C_3
REMARK    3  A    between atoms: C_9  and  C_10
REMARK    4  A    between atoms: N_12  and  C_13
REMARK                            x       y       z     vdW  Elec       q    Type
REMARK                         _______ _______ _______ _____ _____    ______ ____
ROOT
ATOM      1  C   UNL     1       1.693   8.522  19.932  0.00  0.00    +0.000 C 
ATOM      2  C   UNL     1       0.888   8.360  21.230  0.00  0.00    +0.000 C 
ATOM      3  C   UNL     1       0.591   9.833  21.428  0.00  0.00    +0.000 C 
ATOM      4  C   UNL     1      -0.050  10.351  22.679  0.00  0.00    +0.000 C 
ATOM      5  O   UNL     1       0.022   9.790  23.778  0.00  0.00    +0.000 OA
ATOM      6  N   UNL     1      -0.526  11.633  22.538  0.00  0.00    +0.000 N 
ATOM      7  C   UNL     1      -1.122  12.007  21.317  0.00  0.00    +0.000 A 
ATOM      8  C   UNL     1      -1.994  13.099  21.378  0.00  0.00    +0.000 A 
ATOM      9  C   UNL     1      -2.987  13.213  20.420  0.00  0.00    +0.000 A 
ATOM     10  C   UNL     1      -3.036  12.281  19.384  0.00  0.00    +0.000 A 
ATOM     11  C   UNL     1      -2.024  11.306  19.227  0.00  0.00    +0.000 A 
ATOM     12  C   UNL     1      -1.016  11.152  20.182  0.00  0.00    +0.000 A 
ATOM     13  N   UNL     1      -0.090  10.133  20.170  0.00  0.00    +0.000 N 
ATOM     14  C   UNL     1       0.781   9.551  19.103  0.00  0.00    +0.000 C 
ATOM     15  H   UNL     1      -0.823  12.101  23.385  0.00  0.00    +0.000 HD
ENDROOT
BRANCH   1  18
ATOM     16  C   UNL     1       2.842   7.266  18.160  0.00  0.00    +0.000 C 
ATOM     17  O   UNL     1       2.894   8.269  17.451  0.00  0.00    +0.000 OA
ATOM     18  N   UNL     1       2.122   7.262  19.345  0.00  0.00    +0.000 N 
ATOM     19  H   UNL     1       2.322   6.485  19.969  0.00  0.00    +0.000 HD
BRANCH  16  26
ATOM     20  C   UNL     1       4.952   5.974  17.367  0.00  0.00    +0.000 A 
ATOM     21  C   UNL     1       5.549   4.725  17.110  0.00  0.00    +0.000 A 
ATOM     22  C   UNL     1       4.804   3.546  17.168  0.00  0.00    +0.000 A 
ATOM     23  C   UNL     1       3.449   3.604  17.474  0.00  0.00    +0.000 A 
ATOM     24 CL   UNL     1       2.531   2.150  17.518  0.00  0.00    +0.000 Cl
ATOM     25  C   UNL     1       2.850   4.824  17.765  0.00  0.00    +0.000 A 
ATOM     26  C   UNL     1       3.595   6.022  17.752  0.00  0.00    +0.000 A 
BRANCH  20  28
ATOM     27  C   UNL     1       7.068   7.055  17.420  0.00  0.00    +0.000 C 
ATOM     28  O   UNL     1       5.651   7.153  17.267  0.00  0.00    +0.000 OA
ENDBRANCH  20  28
ENDBRANCH  16  26
ENDBRANCH   1  18
TORSDOF 3
ENDMDL
