MODEL 1
REMARK VINA RESULT:      -7.5      0.000      0.000
REMARK  Name = 
REMARK  4 active torsions:
REMARK  status: ('A' for Active; 'I' for Inactive)
REMARK    1  A    between atoms: N_1  and  C_2
REMARK    2  A    between atoms: C_4  and  C_5
REMARK    3  A    between atoms: C_13  and  C_14
REMARK    4  A    between atoms: C_14  and  C_16
REMARK                            x       y       z     vdW  Elec       q    Type
REMARK                         _______ _______ _______ _____ _____    ______ ____
ROOT
ATOM      1  C   UNL     1       2.130   8.794  18.084  0.00  0.00    +0.000 A 
ATOM      2  C   UNL     1       3.252   8.233  17.521  0.00  0.00    +0.000 A 
ATOM      3  C   UNL     1       3.592   6.941  18.066  0.00  0.00    +0.000 A 
ATOM      4  C   UNL     1       2.667   6.566  19.046  0.00  0.00    +0.000 A 
ATOM      5  S   UNL     1       1.538   7.837  19.348  0.00  0.00    +0.000 S 
ENDROOT
BRANCH   3   6
ATOM      6  C   UNL     1       4.776   6.164  17.650  0.00  0.00    +0.000 A 
ATOM      7  C   UNL     1       5.892   6.116  18.505  0.00  0.00    +0.000 A 
ATOM      8  C   UNL     1       7.011   5.343  18.185  0.00  0.00    +0.000 A 
ATOM      9 CL   UNL     1       8.352   5.300  19.263  0.00  0.00    +0.000 Cl
ATOM     10  C   UNL     1       7.044   4.597  17.014  0.00  0.00    +0.000 A 
ATOM     11  C   UNL     1       5.960   4.666  16.145  0.00  0.00    +0.000 A 
ATOM     12 CL   UNL     1       5.982   3.738  14.693  0.00  0.00    +0.000 Cl
ATOM     13  C   UNL     1       4.850   5.465  16.440  0.00  0.00    +0.000 A 
ENDBRANCH   3   6
BRANCH   1  14
ATOM     14  N   UNL     1       1.537   9.948  17.744  0.00  0.00    +0.000 N 
ATOM     15  H   UNL     1       1.030  10.064  16.875  0.00  0.00    +0.000 HD
ATOM     16  H   UNL     1       1.796  10.813  18.210  0.00  0.00    +0.000 HD
ENDBRANCH   1  14
BRANCH   4  17
ATOM     17  C   UNL     1       2.593   5.363  19.885  0.00  0.00    +0.000 C 
ATOM     18  O   UNL     1       2.293   5.420  21.079  0.00  0.00    +0.000 OA
BRANCH  17  19
ATOM     19  C   UNL     1       2.965   4.013  19.332  0.00  0.00    +0.000 A 
ATOM     20  C   UNL     1       3.974   3.253  19.958  0.00  0.00    +0.000 A 
ATOM     21  C   UNL     1       4.334   1.992  19.478  0.00  0.00    +0.000 A 
ATOM     22  C   UNL     1       3.646   1.437  18.405  0.00  0.00    +0.000 A 
ATOM     23  C   UNL     1       2.625   2.162  17.790  0.00  0.00    +0.000 A 
ATOM     24  C   UNL     1       2.294   3.452  18.233  0.00  0.00    +0.000 A 
ATOM     25 CL   UNL     1       1.089   4.281  17.310  0.00  0.00    +0.000 Cl
ENDBRANCH  17  19
ENDBRANCH   4  17
TORSDOF 4
ENDMDL
MODEL 2
REMARK VINA RESULT:      -7.4      0.139      1.877
REMARK  Name = 
REMARK  4 active torsions:
REMARK  status: ('A' for Active; 'I' for Inactive)
REMARK    1  A    between atoms: N_1  and  C_2
REMARK    2  A    between atoms: C_4  and  C_5
REMARK    3  A    between atoms: C_13  and  C_14
REMARK    4  A    between atoms: C_14  and  C_16
REMARK                            x       y       z     vdW  Elec       q    Type
REMARK                         _______ _______ _______ _____ _____    ______ ____
ROOT
ATOM      1  C   UNL     1       2.174   8.823  18.059  0.00  0.00    +0.000 A 
ATOM      2  C   UNL     1       3.296   8.230  17.532  0.00  0.00    +0.000 A 
ATOM      3  C   UNL     1       3.586   6.931  18.092  0.00  0.00    +0.000 A 
ATOM      4  C   UNL     1       2.623   6.586  19.046  0.00  0.00    +0.000 A 
ATOM      5  S   UNL     1       1.519   7.888  19.309  0.00  0.00    +0.000 S 
ENDROOT
BRANCH   3   6
ATOM      6  C   UNL     1       4.760   6.121  17.715  0.00  0.00    +0.000 A 
ATOM      7  C   UNL     1       4.775   5.488  16.459  0.00  0.00    +0.000 A 
ATOM      8  C   UNL     1       5.889   4.763  16.031  0.00  0.00    +0.000 A 
ATOM      9 CL   UNL     1       5.873   4.013  14.482  0.00  0.00    +0.000 Cl
ATOM     10  C   UNL     1       7.015   4.655  16.837  0.00  0.00    +0.000 A 
ATOM     11  C   UNL     1       6.997   5.246  18.096  0.00  0.00    +0.000 A 
ATOM     12 CL   UNL     1       8.390   5.130  19.104  0.00  0.00    +0.000 Cl
ATOM     13  C   UNL     1       5.872   5.945  18.548  0.00  0.00    +0.000 A 
ENDBRANCH   3   6
BRANCH   1  14
ATOM     14  N   UNL     1       1.622   9.990  17.697  0.00  0.00    +0.000 N 
ATOM     15  H   UNL     1       2.143  10.711  17.210  0.00  0.00    +0.000 HD
ATOM     16  H   UNL     1       0.755  10.302  18.125  0.00  0.00    +0.000 HD
ENDBRANCH   1  14
BRANCH   4  17
ATOM     17  C   UNL     1       2.491   5.389  19.887  0.00  0.00    +0.000 C 
ATOM     18  O   UNL     1       2.126   5.457  21.062  0.00  0.00    +0.000 OA
BRANCH  17  19
ATOM     19  C   UNL     1       2.881   4.033  19.364  0.00  0.00    +0.000 A 
ATOM     20  C   UNL     1       3.863   3.278  20.037  0.00  0.00    +0.000 A 
ATOM     21  C   UNL     1       4.238   2.009  19.585  0.00  0.00    +0.000 A 
ATOM     22  C   UNL     1       3.590   1.444  18.493  0.00  0.00    +0.000 A 
ATOM     23  C   UNL     1       2.597   2.165  17.830  0.00  0.00    +0.000 A 
ATOM     24  C   UNL     1       2.252   3.461  18.245  0.00  0.00    +0.000 A 
ATOM     25 CL   UNL     1       1.086   4.282  17.267  0.00  0.00    +0.000 Cl
ENDBRANCH  17  19
ENDBRANCH   4  17
TORSDOF 4
ENDMDL
MODEL 3
REMARK VINA RESULT:      -7.1      1.503      2.629
REMARK  Name = 
REMARK  4 active torsions:
REMARK  status: ('A' for Active; 'I' for Inactive)
REMARK    1  A    between atoms: N_1  and  C_2
REMARK    2  A    between atoms: C_4  and  C_5
REMARK    3  A    between atoms: C_13  and  C_14
REMARK    4  A    between atoms: C_14  and  C_16
REMARK                            x       y       z     vdW  Elec       q    Type
REMARK                         _______ _______ _______ _____ _____    ______ ____
ROOT
ATOM      1  C   UNL     1       2.307   8.773  17.794  0.00  0.00    +0.000 A 
ATOM      2  C   UNL     1       3.553   8.258  17.524  0.00  0.00    +0.000 A 
ATOM      3  C   UNL     1       3.607   6.816  17.559  0.00  0.00    +0.000 A 
ATOM      4  C   UNL     1       2.346   6.288  17.854  0.00  0.00    +0.000 A 
ATOM      5  S   UNL     1       1.216   7.546  18.205  0.00  0.00    +0.000 S 
ENDROOT
BRANCH   3   6
ATOM      6  C   UNL     1       4.843   6.038  17.344  0.00  0.00    +0.000 A 
ATOM      7  C   UNL     1       5.049   5.421  16.096  0.00  0.00    +0.000 A 
ATOM      8  C   UNL     1       6.231   4.728  15.823  0.00  0.00    +0.000 A 
ATOM      9 CL   UNL     1       6.451   3.998  14.280  0.00  0.00    +0.000 Cl
ATOM     10  C   UNL     1       7.234   4.636  16.778  0.00  0.00    +0.000 A 
ATOM     11  C   UNL     1       7.024   5.211  18.027  0.00  0.00    +0.000 A 
ATOM     12 CL   UNL     1       8.265   5.114  19.221  0.00  0.00    +0.000 Cl
ATOM     13  C   UNL     1       5.830   5.877  18.323  0.00  0.00    +0.000 A 
ENDBRANCH   3   6
BRANCH   1  14
ATOM     14  N   UNL     1       1.935  10.060  17.773  0.00  0.00    +0.000 N 
ATOM     15  H   UNL     1       1.091  10.391  18.225  0.00  0.00    +0.000 HD
ATOM     16  H   UNL     1       2.334  10.698  17.088  0.00  0.00    +0.000 HD
ENDBRANCH   1  14
BRANCH   4  17
ATOM     17  C   UNL     1       1.901   4.897  18.010  0.00  0.00    +0.000 C 
ATOM     18  O   UNL     1       1.153   4.358  17.192  0.00  0.00    +0.000 OA
BRANCH  17  19
ATOM     19  C   UNL     1       2.279   4.099  19.229  0.00  0.00    +0.000 A 
ATOM     20  C   UNL     1       1.694   4.404  20.475  0.00  0.00    +0.000 A 
ATOM     21  C   UNL     1       2.013   3.674  21.623  0.00  0.00    +0.000 A 
ATOM     22  C   UNL     1       2.870   2.583  21.534  0.00  0.00    +0.000 A 
ATOM     23  C   UNL     1       3.436   2.248  20.305  0.00  0.00    +0.000 A 
ATOM     24  C   UNL     1       3.163   3.009  19.157  0.00  0.00    +0.000 A 
ATOM     25 CL   UNL     1       4.019   2.552  17.726  0.00  0.00    +0.000 Cl
ENDBRANCH  17  19
ENDBRANCH   4  17
TORSDOF 4
ENDMDL
MODEL 4
REMARK VINA RESULT:      -7.1      1.489      1.854
REMARK  Name = 
REMARK  4 active torsions:
REMARK  status: ('A' for Active; 'I' for Inactive)
REMARK    1  A    between atoms: N_1  and  C_2
REMARK    2  A    between atoms: C_4  and  C_5
REMARK    3  A    between atoms: C_13  and  C_14
REMARK    4  A    between atoms: C_14  and  C_16
REMARK                            x       y       z     vdW  Elec       q    Type
REMARK                         _______ _______ _______ _____ _____    ______ ____
ROOT
ATOM      1  C   UNL     1       2.273   8.853  17.843  0.00  0.00    +0.000 A 
ATOM      2  C   UNL     1       3.510   8.359  17.505  0.00  0.00    +0.000 A 
ATOM      3  C   UNL     1       3.580   6.917  17.501  0.00  0.00    +0.000 A 
ATOM      4  C   UNL     1       2.339   6.368  17.839  0.00  0.00    +0.000 A 
ATOM      5  S   UNL     1       1.214   7.604  18.272  0.00  0.00    +0.000 S 
ENDROOT
BRANCH   3   6
ATOM      6  C   UNL     1       4.812   6.158  17.210  0.00  0.00    +0.000 A 
ATOM      7  C   UNL     1       5.811   6.079  18.198  0.00  0.00    +0.000 A 
ATOM      8  C   UNL     1       6.966   5.320  17.993  0.00  0.00    +0.000 A 
ATOM      9 CL   UNL     1       8.159   5.238  19.231  0.00  0.00    +0.000 Cl
ATOM     10  C   UNL     1       7.152   4.620  16.809  0.00  0.00    +0.000 A 
ATOM     11  C   UNL     1       6.188   4.722  15.812  0.00  0.00    +0.000 A 
ATOM     12 CL   UNL     1       6.400   3.850  14.340  0.00  0.00    +0.000 Cl
ATOM     13  C   UNL     1       5.044   5.506  15.993  0.00  0.00    +0.000 A 
ENDBRANCH   3   6
BRANCH   1  14
ATOM     14  N   UNL     1       1.888  10.136  17.871  0.00  0.00    +0.000 N 
ATOM     15  H   UNL     1       1.786  10.694  17.031  0.00  0.00    +0.000 HD
ATOM     16  H   UNL     1       1.941  10.669  18.736  0.00  0.00    +0.000 HD
ENDBRANCH   1  14
BRANCH   4  17
ATOM     17  C   UNL     1       1.915   4.969  17.981  0.00  0.00    +0.000 C 
ATOM     18  O   UNL     1       1.192   4.421  17.147  0.00  0.00    +0.000 OA
BRANCH  17  19
ATOM     19  C   UNL     1       2.284   4.171  19.203  0.00  0.00    +0.000 A 
ATOM     20  C   UNL     1       1.691   4.478  20.445  0.00  0.00    +0.000 A 
ATOM     21  C   UNL     1       2.002   3.748  21.595  0.00  0.00    +0.000 A 
ATOM     22  C   UNL     1       2.858   2.656  21.513  0.00  0.00    +0.000 A 
ATOM     23  C   UNL     1       3.432   2.320  20.287  0.00  0.00    +0.000 A 
ATOM     24  C   UNL     1       3.167   3.080  19.137  0.00  0.00    +0.000 A 
ATOM     25 CL   UNL     1       4.032   2.621  17.712  0.00  0.00    +0.000 Cl
ENDBRANCH  17  19
ENDBRANCH   4  17
TORSDOF 4
ENDMDL
MODEL 5
REMARK VINA RESULT:      -7.0      3.190      5.007
REMARK  Name = 
REMARK  4 active torsions:
REMARK  status: ('A' for Active; 'I' for Inactive)
REMARK    1  A    between atoms: N_1  and  C_2
REMARK    2  A    between atoms: C_4  and  C_5
REMARK    3  A    between atoms: C_13  and  C_14
REMARK    4  A    between atoms: C_14  and  C_16
REMARK                            x       y       z     vdW  Elec       q    Type
REMARK                         _______ _______ _______ _____ _____    ______ ____
ROOT
ATOM      1  C   UNL     1       6.244   5.434  16.308  0.00  0.00    +0.000 A 
ATOM      2  C   UNL     1       5.572   6.422  16.987  0.00  0.00    +0.000 A 
ATOM      3  C   UNL     1       4.284   6.008  17.492  0.00  0.00    +0.000 A 
ATOM      4  C   UNL     1       4.039   4.670  17.167  0.00  0.00    +0.000 A 
ATOM      5  S   UNL     1       5.297   4.038  16.165  0.00  0.00    +0.000 S 
ENDROOT
BRANCH   3   6
ATOM      6  C   UNL     1       3.363   6.905  18.216  0.00  0.00    +0.000 A 
ATOM      7  C   UNL     1       3.055   8.159  17.657  0.00  0.00    +0.000 A 
ATOM      8  C   UNL     1       2.140   9.016  18.273  0.00  0.00    +0.000 A 
ATOM      9 CL   UNL     1       1.781  10.537  17.551  0.00  0.00    +0.000 Cl
ATOM     10  C   UNL     1       1.508   8.647  19.452  0.00  0.00    +0.000 A 
ATOM     11  C   UNL     1       1.833   7.425  20.033  0.00  0.00    +0.000 A 
ATOM     12 CL   UNL     1       1.048   6.948  21.491  0.00  0.00    +0.000 Cl
ATOM     13  C   UNL     1       2.773   6.575  19.442  0.00  0.00    +0.000 A 
ENDBRANCH   3   6
BRANCH   1  14
ATOM     14  N   UNL     1       7.476   5.498  15.783  0.00  0.00    +0.000 N 
ATOM     15  H   UNL     1       8.247   5.955  16.257  0.00  0.00    +0.000 HD
ATOM     16  H   UNL     1       7.620   5.331  14.791  0.00  0.00    +0.000 HD
ENDBRANCH   1  14
BRANCH   4  17
ATOM     17  C   UNL     1       2.881   3.812  17.444  0.00  0.00    +0.000 C 
ATOM     18  O   UNL     1       2.177   3.357  16.541  0.00  0.00    +0.000 OA
BRANCH  17  19
ATOM     19  C   UNL     1       2.458   3.521  18.859  0.00  0.00    +0.000 A 
ATOM     20  C   UNL     1       1.102   3.648  19.226  0.00  0.00    +0.000 A 
ATOM     21  C   UNL     1       0.676   3.372  20.528  0.00  0.00    +0.000 A 
ATOM     22  C   UNL     1       1.583   2.901  21.469  0.00  0.00    +0.000 A 
ATOM     23  C   UNL     1       2.923   2.743  21.118  0.00  0.00    +0.000 A 
ATOM     24  C   UNL     1       3.371   3.068  19.827  0.00  0.00    +0.000 A 
ATOM     25 CL   UNL     1       5.073   2.932  19.561  0.00  0.00    +0.000 Cl
ENDBRANCH  17  19
ENDBRANCH   4  17
TORSDOF 4
ENDMDL
MODEL 6
REMARK VINA RESULT:      -7.0      3.427      5.745
REMARK  Name = 
REMARK  4 active torsions:
REMARK  status: ('A' for Active; 'I' for Inactive)
REMARK    1  A    between atoms: N_1  and  C_2
REMARK    2  A    between atoms: C_4  and  C_5
REMARK    3  A    between atoms: C_13  and  C_14
REMARK    4  A    between atoms: C_14  and  C_16
REMARK                            x       y       z     vdW  Elec       q    Type
REMARK                         _______ _______ _______ _____ _____    ______ ____
ROOT
ATOM      1  C   UNL     1       2.493   2.966  21.214  0.00  0.00    +0.000 A 
ATOM      2  C   UNL     1       1.969   4.236  21.249  0.00  0.00    +0.000 A 
ATOM      3  C   UNL     1       2.420   5.081  20.169  0.00  0.00    +0.000 A 
ATOM      4  C   UNL     1       3.290   4.378  19.329  0.00  0.00    +0.000 A 
ATOM      5  S   UNL     1       3.617   2.804  19.960  0.00  0.00    +0.000 S 
ENDROOT
BRANCH   3   6
ATOM      6  C   UNL     1       2.028   6.496  20.018  0.00  0.00    +0.000 A 
ATOM      7  C   UNL     1       1.393   7.144  21.094  0.00  0.00    +0.000 A 
ATOM      8  C   UNL     1       1.061   8.498  21.023  0.00  0.00    +0.000 A 
ATOM      9 CL   UNL     1       0.296   9.258  22.365  0.00  0.00    +0.000 Cl
ATOM     10  C   UNL     1       1.355   9.241  19.887  0.00  0.00    +0.000 A 
ATOM     11  C   UNL     1       1.949   8.601  18.804  0.00  0.00    +0.000 A 
ATOM     12 CL   UNL     1       2.330   9.511  17.391  0.00  0.00    +0.000 Cl
ATOM     13  C   UNL     1       2.255   7.237  18.852  0.00  0.00    +0.000 A 
ENDBRANCH   3   6
BRANCH   1  14
ATOM     14  N   UNL     1       2.214   1.946  22.038  0.00  0.00    +0.000 N 
ATOM     15  H   UNL     1       2.715   1.794  22.906  0.00  0.00    +0.000 HD
ATOM     16  H   UNL     1       1.682   1.147  21.704  0.00  0.00    +0.000 HD
ENDBRANCH   1  14
BRANCH   4  17
ATOM     17  C   UNL     1       4.010   4.801  18.121  0.00  0.00    +0.000 C 
ATOM     18  O   UNL     1       3.594   4.539  16.991  0.00  0.00    +0.000 OA
BRANCH  17  19
ATOM     19  C   UNL     1       5.336   5.504  18.221  0.00  0.00    +0.000 A 
ATOM     20  C   UNL     1       6.216   5.193  19.279  0.00  0.00    +0.000 A 
ATOM     21  C   UNL     1       7.461   5.818  19.393  0.00  0.00    +0.000 A 
ATOM     22  C   UNL     1       7.878   6.714  18.415  0.00  0.00    +0.000 A 
ATOM     23  C   UNL     1       7.033   7.014  17.347  0.00  0.00    +0.000 A 
ATOM     24  C   UNL     1       5.759   6.431  17.253  0.00  0.00    +0.000 A 
ATOM     25 CL   UNL     1       4.774   6.976  15.941  0.00  0.00    +0.000 Cl
ENDBRANCH  17  19
ENDBRANCH   4  17
TORSDOF 4
ENDMDL
MODEL 7
REMARK VINA RESULT:      -7.0      3.185      4.887
REMARK  Name = 
REMARK  4 active torsions:
REMARK  status: ('A' for Active; 'I' for Inactive)
REMARK    1  A    between atoms: N_1  and  C_2
REMARK    2  A    between atoms: C_4  and  C_5
REMARK    3  A    between atoms: C_13  and  C_14
REMARK    4  A    between atoms: C_14  and  C_16
REMARK                            x       y       z     vdW  Elec       q    Type
REMARK                         _______ _______ _______ _____ _____    ______ ____
ROOT
ATOM      1  C   UNL     1       6.257   5.573  16.425  0.00  0.00    +0.000 A 
ATOM      2  C   UNL     1       5.527   6.565  17.036  0.00  0.00    +0.000 A 
ATOM      3  C   UNL     1       4.226   6.135  17.490  0.00  0.00    +0.000 A 
ATOM      4  C   UNL     1       4.031   4.781  17.199  0.00  0.00    +0.000 A 
ATOM      5  S   UNL     1       5.353   4.150  16.284  0.00  0.00    +0.000 S 
ENDROOT
BRANCH   3   6
ATOM      6  C   UNL     1       3.248   7.031  18.136  0.00  0.00    +0.000 A 
ATOM      7  C   UNL     1       2.672   6.641  19.359  0.00  0.00    +0.000 A 
ATOM      8  C   UNL     1       1.790   7.483  20.040  0.00  0.00    +0.000 A 
ATOM      9 CL   UNL     1       1.116   6.974  21.541  0.00  0.00    +0.000 Cl
ATOM     10  C   UNL     1       1.464   8.731  19.527  0.00  0.00    +0.000 A 
ATOM     11  C   UNL     1       1.999   9.111  18.301  0.00  0.00    +0.000 A 
ATOM     12 CL   UNL     1       1.613  10.662  17.655  0.00  0.00    +0.000 Cl
ATOM     13  C   UNL     1       2.856   8.261  17.594  0.00  0.00    +0.000 A 
ENDBRANCH   3   6
BRANCH   1  14
ATOM     14  N   UNL     1       7.512   5.652  15.962  0.00  0.00    +0.000 N 
ATOM     15  H   UNL     1       8.197   4.921  16.115  0.00  0.00    +0.000 HD
ATOM     16  H   UNL     1       7.897   6.549  15.675  0.00  0.00    +0.000 HD
ENDBRANCH   1  14
BRANCH   4  17
ATOM     17  C   UNL     1       2.881   3.902  17.448  0.00  0.00    +0.000 C 
ATOM     18  O   UNL     1       2.191   3.457  16.528  0.00  0.00    +0.000 OA
BRANCH  17  19
ATOM     19  C   UNL     1       2.450   3.576  18.852  0.00  0.00    +0.000 A 
ATOM     20  C   UNL     1       1.086   3.656  19.203  0.00  0.00    +0.000 A 
ATOM     21  C   UNL     1       0.651   3.347  20.494  0.00  0.00    +0.000 A 
ATOM     22  C   UNL     1       1.560   2.888  21.440  0.00  0.00    +0.000 A 
ATOM     23  C   UNL     1       2.909   2.777  21.104  0.00  0.00    +0.000 A 
ATOM     24  C   UNL     1       3.363   3.136  19.825  0.00  0.00    +0.000 A 
ATOM     25 CL   UNL     1       5.072   3.056  19.580  0.00  0.00    +0.000 Cl
ENDBRANCH  17  19
ENDBRANCH   4  17
TORSDOF 4
ENDMDL
MODEL 8
REMARK VINA RESULT:      -6.8      3.413      5.933
REMARK  Name = 
REMARK  4 active torsions:
REMARK  status: ('A' for Active; 'I' for Inactive)
REMARK    1  A    between atoms: N_1  and  C_2
REMARK    2  A    between atoms: C_4  and  C_5
REMARK    3  A    between atoms: C_13  and  C_14
REMARK    4  A    between atoms: C_14  and  C_16
REMARK                            x       y       z     vdW  Elec       q    Type
REMARK                         _______ _______ _______ _____ _____    ______ ____
ROOT
ATOM      1  C   UNL     1       2.461   2.985  21.217  0.00  0.00    +0.000 A 
ATOM      2  C   UNL     1       1.962   4.264  21.294  0.00  0.00    +0.000 A 
ATOM      3  C   UNL     1       2.417   5.131  20.233  0.00  0.00    +0.000 A 
ATOM      4  C   UNL     1       3.263   4.435  19.363  0.00  0.00    +0.000 A 
ATOM      5  S   UNL     1       3.568   2.837  19.945  0.00  0.00    +0.000 S 
ENDROOT
BRANCH   3   6
ATOM      6  C   UNL     1       2.050   6.556  20.127  0.00  0.00    +0.000 A 
ATOM      7  C   UNL     1       2.312   7.239  18.925  0.00  0.00    +0.000 A 
ATOM      8  C   UNL     1       1.926   8.570  18.755  0.00  0.00    +0.000 A 
ATOM      9 CL   UNL     1       2.253   9.367  17.265  0.00  0.00    +0.000 Cl
ATOM     10  C   UNL     1       1.268   9.251  19.771  0.00  0.00    +0.000 A 
ATOM     11  C   UNL     1       1.037   8.597  20.976  0.00  0.00    +0.000 A 
ATOM     12 CL   UNL     1       0.212   9.425  22.242  0.00  0.00    +0.000 Cl
ATOM     13  C   UNL     1       1.451   7.275  21.169  0.00  0.00    +0.000 A 
ENDBRANCH   3   6
BRANCH   1  14
ATOM     14  N   UNL     1       2.172   1.948  22.015  0.00  0.00    +0.000 N 
ATOM     15  H   UNL     1       1.430   1.981  22.705  0.00  0.00    +0.000 HD
ATOM     16  H   UNL     1       2.846   1.197  22.145  0.00  0.00    +0.000 HD
ENDBRANCH   1  14
BRANCH   4  17
ATOM     17  C   UNL     1       3.977   4.879  18.159  0.00  0.00    +0.000 C 
ATOM     18  O   UNL     1       3.537   4.668  17.027  0.00  0.00    +0.000 OA
BRANCH  17  19
ATOM     19  C   UNL     1       5.325   5.540  18.262  0.00  0.00    +0.000 A 
ATOM     20  C   UNL     1       6.192   5.202  19.321  0.00  0.00    +0.000 A 
ATOM     21  C   UNL     1       7.455   5.787  19.438  0.00  0.00    +0.000 A 
ATOM     22  C   UNL     1       7.903   6.669  18.461  0.00  0.00    +0.000 A 
ATOM     23  C   UNL     1       7.070   6.995  17.391  0.00  0.00    +0.000 A 
ATOM     24  C   UNL     1       5.779   6.453  17.295  0.00  0.00    +0.000 A 
ATOM     25 CL   UNL     1       4.814   7.028  15.981  0.00  0.00    +0.000 Cl
ENDBRANCH  17  19
ENDBRANCH   4  17
TORSDOF 4
ENDMDL
MODEL 9
REMARK VINA RESULT:      -6.8      3.156      4.980
REMARK  Name = 
REMARK  4 active torsions:
REMARK  status: ('A' for Active; 'I' for Inactive)
REMARK    1  A    between atoms: N_1  and  C_2
REMARK    2  A    between atoms: C_4  and  C_5
REMARK    3  A    between atoms: C_13  and  C_14
REMARK    4  A    between atoms: C_14  and  C_16
REMARK                            x       y       z     vdW  Elec       q    Type
REMARK                         _______ _______ _______ _____ _____    ______ ____
ROOT
ATOM      1  C   UNL     1       5.336   6.489  16.806  0.00  0.00    +0.000 A 
ATOM      2  C   UNL     1       4.555   7.456  17.394  0.00  0.00    +0.000 A 
ATOM      3  C   UNL     1       3.290   6.963  17.885  0.00  0.00    +0.000 A 
ATOM      4  C   UNL     1       3.176   5.589  17.647  0.00  0.00    +0.000 A 
ATOM      5  S   UNL     1       4.520   5.008  16.732  0.00  0.00    +0.000 S 
ENDROOT
BRANCH   3   6
ATOM      6  C   UNL     1       2.268   7.820  18.516  0.00  0.00    +0.000 A 
ATOM      7  C   UNL     1       2.189   7.864  19.920  0.00  0.00    +0.000 A 
ATOM      8  C   UNL     1       1.281   8.708  20.563  0.00  0.00    +0.000 A 
ATOM      9 CL   UNL     1       1.223   8.742  22.284  0.00  0.00    +0.000 Cl
ATOM     10  C   UNL     1       0.436   9.529  19.829  0.00  0.00    +0.000 A 
ATOM     11  C   UNL     1       0.480   9.467  18.441  0.00  0.00    +0.000 A 
ATOM     12 CL   UNL     1      -0.555  10.488  17.516  0.00  0.00    +0.000 Cl
ATOM     13  C   UNL     1       1.362   8.600  17.787  0.00  0.00    +0.000 A 
ENDBRANCH   3   6
BRANCH   1  14
ATOM     14  N   UNL     1       6.576   6.628  16.318  0.00  0.00    +0.000 N 
ATOM     15  H   UNL     1       7.355   6.064  16.638  0.00  0.00    +0.000 HD
ATOM     16  H   UNL     1       6.836   7.470  15.811  0.00  0.00    +0.000 HD
ENDBRANCH   1  14
BRANCH   4  17
ATOM     17  C   UNL     1       2.087   4.651  17.947  0.00  0.00    +0.000 C 
ATOM     18  O   UNL     1       1.111   4.528  17.204  0.00  0.00    +0.000 OA
BRANCH  17  19
ATOM     19  C   UNL     1       2.083   3.858  19.226  0.00  0.00    +0.000 A 
ATOM     20  C   UNL     1       1.543   4.424  20.400  0.00  0.00    +0.000 A 
ATOM     21  C   UNL     1       1.513   3.710  21.600  0.00  0.00    +0.000 A 
ATOM     22  C   UNL     1       1.958   2.394  21.635  0.00  0.00    +0.000 A 
ATOM     23  C   UNL     1       2.470   1.807  20.478  0.00  0.00    +0.000 A 
ATOM     24  C   UNL     1       2.554   2.535  19.280  0.00  0.00    +0.000 A 
ATOM     25 CL   UNL     1       3.312   1.725  17.955  0.00  0.00    +0.000 Cl
ENDBRANCH  17  19
ENDBRANCH   4  17
TORSDOF 4
ENDMDL
