MODEL 1
REMARK VINA RESULT:      -8.2      0.000      0.000
REMARK  Name = 
REMARK  3 active torsions:
REMARK  status: ('A' for Active; 'I' for Inactive)
REMARK    1  A    between atoms: S_2  and  N_4
REMARK    2  A    between atoms: S_2  and  C_10
REMARK    3  A    between atoms: N_19  and  C_20
REMARK                            x       y       z     vdW  Elec       q    Type
REMARK                         _______ _______ _______ _____ _____    ______ ____
ROOT
ATOM      1  C   UNL     1       1.154   9.289  19.914  0.00  0.00    +0.000 A 
ATOM      2  C   UNL     1       1.794   9.239  18.678  0.00  0.00    +0.000 A 
ATOM      3  C   UNL     1       2.358   8.034  18.244  0.00  0.00    +0.000 A 
ATOM      4  C   UNL     1       2.340   6.878  19.048  0.00  0.00    +0.000 A 
ATOM      5  C   UNL     1       1.667   6.964  20.287  0.00  0.00    +0.000 A 
ATOM      6  C   UNL     1       1.070   8.150  20.712  0.00  0.00    +0.000 A 
ATOM      7  O   UNL     1       1.521   5.910  21.158  0.00  0.00    +0.000 OA
ATOM      8  C   UNL     1       2.400   4.828  20.858  0.00  0.00    +0.000 C 
ATOM      9  C   UNL     1       2.405   4.504  19.370  0.00  0.00    +0.000 C 
ATOM     10  N   UNL     1       2.940   5.657  18.621  0.00  0.00    +0.000 N 
ENDROOT
BRANCH  10  11
ATOM     11  C   UNL     1       4.016   5.451  17.734  0.00  0.00    +0.000 A 
ATOM     12  C   UNL     1       3.987   4.461  16.738  0.00  0.00    +0.000 A 
ATOM     13  C   UNL     1       5.065   4.262  15.865  0.00  0.00    +0.000 A 
ATOM     14  C   UNL     1       6.194   5.073  15.945  0.00  0.00    +0.000 A 
ATOM     15 CL   UNL     1       7.472   4.799  14.818  0.00  0.00    +0.000 Cl
ATOM     16  C   UNL     1       6.251   6.068  16.919  0.00  0.00    +0.000 A 
ATOM     17 CL   UNL     1       7.601   7.135  17.080  0.00  0.00    +0.000 Cl
ATOM     18  C   UNL     1       5.184   6.231  17.811  0.00  0.00    +0.000 A 
ENDBRANCH  10  11
BRANCH   1  20
ATOM     19  O   UNL     1       1.310  11.527  21.238  0.00  0.00    +0.000 OA
ATOM     20  S   UNL     1       0.360  10.772  20.457  0.00  0.00    +0.000 S 
ATOM     21  O   UNL     1      -0.929  10.401  21.014  0.00  0.00    +0.000 OA
BRANCH  20  22
ATOM     22  N   UNL     1      -0.032  11.554  19.005  0.00  0.00    +0.000 N 
ATOM     23  C   UNL     1      -1.369  11.298  18.628  0.00  0.00    +0.000 A 
ATOM     24  N   UNL     1      -2.339  12.069  19.054  0.00  0.00    +0.000 NA
ATOM     25  C   UNL     1      -3.530  11.641  18.499  0.00  0.00    +0.000 A 
ATOM     26  C   UNL     1      -3.438  10.548  17.662  0.00  0.00    +0.000 A 
ATOM     27  S   UNL     1      -1.793  10.084  17.504  0.00  0.00    +0.000 S 
ATOM     28  H   UNL     1       0.629  11.196  18.318  0.00  0.00    +0.000 HD
ENDBRANCH  20  22
ENDBRANCH   1  20
TORSDOF 3
ENDMDL
MODEL 2
REMARK VINA RESULT:      -8.1      1.552      1.775
REMARK  Name = 
REMARK  3 active torsions:
REMARK  status: ('A' for Active; 'I' for Inactive)
REMARK    1  A    between atoms: S_2  and  N_4
REMARK    2  A    between atoms: S_2  and  C_10
REMARK    3  A    between atoms: N_19  and  C_20
REMARK                            x       y       z     vdW  Elec       q    Type
REMARK                         _______ _______ _______ _____ _____    ______ ____
ROOT
ATOM      1  C   UNL     1       1.220   8.318  20.508  0.00  0.00    +0.000 A 
ATOM      2  C   UNL     1       1.828   8.507  19.270  0.00  0.00    +0.000 A 
ATOM      3  C   UNL     1       2.436   7.420  18.630  0.00  0.00    +0.000 A 
ATOM      4  C   UNL     1       2.491   6.147  19.228  0.00  0.00    +0.000 A 
ATOM      5  C   UNL     1       1.848   5.992  20.476  0.00  0.00    +0.000 A 
ATOM      6  C   UNL     1       1.209   7.059  21.105  0.00  0.00    +0.000 A 
ATOM      7  O   UNL     1       1.773   4.801  21.160  0.00  0.00    +0.000 OA
ATOM      8  C   UNL     1       2.692   3.829  20.667  0.00  0.00    +0.000 C 
ATOM      9  C   UNL     1       2.673   3.758  19.146  0.00  0.00    +0.000 C 
ATOM     10  N   UNL     1       3.135   5.045  18.592  0.00  0.00    +0.000 N 
ENDROOT
BRANCH  10  11
ATOM     11  C   UNL     1       4.195   5.043  17.662  0.00  0.00    +0.000 A 
ATOM     12  C   UNL     1       4.216   4.186  16.550  0.00  0.00    +0.000 A 
ATOM     13  C   UNL     1       5.277   4.189  15.636  0.00  0.00    +0.000 A 
ATOM     14  C   UNL     1       6.338   5.078  15.794  0.00  0.00    +0.000 A 
ATOM     15 CL   UNL     1       7.598   5.056  14.614  0.00  0.00    +0.000 Cl
ATOM     16  C   UNL     1       6.344   5.945  16.885  0.00  0.00    +0.000 A 
ATOM     17 CL   UNL     1       7.607   7.095  17.150  0.00  0.00    +0.000 Cl
ATOM     18  C   UNL     1       5.297   5.905  17.813  0.00  0.00    +0.000 A 
ENDBRANCH  10  11
BRANCH   1  20
ATOM     19  O   UNL     1       1.341  10.676  21.609  0.00  0.00    +0.000 OA
ATOM     20  S   UNL     1       0.373   9.649  21.307  0.00  0.00    +0.000 S 
ATOM     21  O   UNL     1      -0.452   9.077  22.357  0.00  0.00    +0.000 OA
BRANCH  20  22
ATOM     22  N   UNL     1      -0.744  10.154  20.137  0.00  0.00    +0.000 N 
ATOM     23  C   UNL     1      -0.531  11.501  19.771  0.00  0.00    +0.000 A 
ATOM     24  N   UNL     1       0.296  11.803  18.801  0.00  0.00    +0.000 NA
ATOM     25  C   UNL     1       0.280  13.172  18.606  0.00  0.00    +0.000 A 
ATOM     26  C   UNL     1      -0.560  13.882  19.439  0.00  0.00    +0.000 A 
ATOM     27  S   UNL     1      -1.418  12.793  20.451  0.00  0.00    +0.000 S 
ATOM     28  H   UNL     1      -1.660  10.019  20.561  0.00  0.00    +0.000 HD
ENDBRANCH  20  22
ENDBRANCH   1  20
TORSDOF 3
ENDMDL
MODEL 3
REMARK VINA RESULT:      -8.1      1.897      2.551
REMARK  Name = 
REMARK  3 active torsions:
REMARK  status: ('A' for Active; 'I' for Inactive)
REMARK    1  A    between atoms: S_2  and  N_4
REMARK    2  A    between atoms: S_2  and  C_10
REMARK    3  A    between atoms: N_19  and  C_20
REMARK                            x       y       z     vdW  Elec       q    Type
REMARK                         _______ _______ _______ _____ _____    ______ ____
ROOT
ATOM      1  C   UNL     1       1.174   9.624  19.607  0.00  0.00    +0.000 A 
ATOM      2  C   UNL     1       1.820   9.469  18.383  0.00  0.00    +0.000 A 
ATOM      3  C   UNL     1       2.361   8.224  18.043  0.00  0.00    +0.000 A 
ATOM      4  C   UNL     1       2.314   7.132  18.930  0.00  0.00    +0.000 A 
ATOM      5  C   UNL     1       1.636   7.323  20.154  0.00  0.00    +0.000 A 
ATOM      6  C   UNL     1       1.062   8.549  20.487  0.00  0.00    +0.000 A 
ATOM      7  O   UNL     1       1.464   6.339  21.100  0.00  0.00    +0.000 OA
ATOM      8  C   UNL     1       2.321   5.221  20.886  0.00  0.00    +0.000 C 
ATOM      9  C   UNL     1       2.328   4.787  19.427  0.00  0.00    +0.000 C 
ATOM     10  N   UNL     1       2.891   5.870  18.599  0.00  0.00    +0.000 N 
ENDROOT
BRANCH  10  11
ATOM     11  C   UNL     1       3.968   5.577  17.737  0.00  0.00    +0.000 A 
ATOM     12  C   UNL     1       3.912   4.535  16.796  0.00  0.00    +0.000 A 
ATOM     13  C   UNL     1       4.990   4.250  15.948  0.00  0.00    +0.000 A 
ATOM     14  C   UNL     1       6.147   5.024  15.997  0.00  0.00    +0.000 A 
ATOM     15 CL   UNL     1       7.426   4.642  14.902  0.00  0.00    +0.000 Cl
ATOM     16  C   UNL     1       6.231   6.068  16.916  0.00  0.00    +0.000 A 
ATOM     17 CL   UNL     1       7.617   7.093  17.034  0.00  0.00    +0.000 Cl
ATOM     18  C   UNL     1       5.162   6.318  17.785  0.00  0.00    +0.000 A 
ENDBRANCH  10  11
BRANCH   1  20
ATOM     19  O   UNL     1       1.228  11.805  21.030  0.00  0.00    +0.000 OA
ATOM     20  S   UNL     1       0.408  11.159  20.034  0.00  0.00    +0.000 S 
ATOM     21  O   UNL     1      -0.997  10.892  20.289  0.00  0.00    +0.000 OA
BRANCH  20  22
ATOM     22  N   UNL     1       0.404  12.009  18.567  0.00  0.00    +0.000 N 
ATOM     23  C   UNL     1       1.250  13.138  18.625  0.00  0.00    +0.000 A 
ATOM     24  N   UNL     1       2.518  13.035  18.314  0.00  0.00    +0.000 NA
ATOM     25  C   UNL     1       3.105  14.284  18.397  0.00  0.00    +0.000 A 
ATOM     26  C   UNL     1       2.266  15.312  18.775  0.00  0.00    +0.000 A 
ATOM     27  S   UNL     1       0.669  14.710  18.959  0.00  0.00    +0.000 S 
ATOM     28  H   UNL     1      -0.567  12.273  18.410  0.00  0.00    +0.000 HD
ENDBRANCH  20  22
ENDBRANCH   1  20
TORSDOF 3
ENDMDL
MODEL 4
REMARK VINA RESULT:      -8.0      1.211      1.302
REMARK  Name = 
REMARK  3 active torsions:
REMARK  status: ('A' for Active; 'I' for Inactive)
REMARK    1  A    between atoms: S_2  and  N_4
REMARK    2  A    between atoms: S_2  and  C_10
REMARK    3  A    between atoms: N_19  and  C_20
REMARK                            x       y       z     vdW  Elec       q    Type
REMARK                         _______ _______ _______ _____ _____    ______ ____
ROOT
ATOM      1  C   UNL     1       1.411   8.096  20.663  0.00  0.00    +0.000 A 
ATOM      2  C   UNL     1       1.985   8.324  19.415  0.00  0.00    +0.000 A 
ATOM      3  C   UNL     1       2.533   7.250  18.705  0.00  0.00    +0.000 A 
ATOM      4  C   UNL     1       2.564   5.949  19.241  0.00  0.00    +0.000 A 
ATOM      5  C   UNL     1       1.957   5.755  20.501  0.00  0.00    +0.000 A 
ATOM      6  C   UNL     1       1.376   6.811  21.201  0.00  0.00    +0.000 A 
ATOM      7  O   UNL     1       1.865   4.536  21.131  0.00  0.00    +0.000 OA
ATOM      8  C   UNL     1       2.733   3.559  20.562  0.00  0.00    +0.000 C 
ATOM      9  C   UNL     1       2.662   3.562  19.041  0.00  0.00    +0.000 C 
ATOM     10  N   UNL     1       3.150   4.858  18.532  0.00  0.00    +0.000 N 
ENDROOT
BRANCH  10  11
ATOM     11  C   UNL     1       4.179   4.866  17.568  0.00  0.00    +0.000 A 
ATOM     12  C   UNL     1       4.169   4.010  16.454  0.00  0.00    +0.000 A 
ATOM     13  C   UNL     1       5.200   4.023  15.506  0.00  0.00    +0.000 A 
ATOM     14  C   UNL     1       6.258   4.920  15.630  0.00  0.00    +0.000 A 
ATOM     15 CL   UNL     1       7.479   4.910  14.409  0.00  0.00    +0.000 Cl
ATOM     16  C   UNL     1       6.293   5.786  16.721  0.00  0.00    +0.000 A 
ATOM     17 CL   UNL     1       7.555   6.946  16.946  0.00  0.00    +0.000 Cl
ATOM     18  C   UNL     1       5.278   5.736  17.683  0.00  0.00    +0.000 A 
ENDBRANCH  10  11
BRANCH   1  20
ATOM     19  O   UNL     1       1.378   9.625  22.772  0.00  0.00    +0.000 OA
ATOM     20  S   UNL     1       0.637   9.414  21.552  0.00  0.00    +0.000 S 
ATOM     21  O   UNL     1      -0.789   9.140  21.589  0.00  0.00    +0.000 OA
BRANCH  20  22
ATOM     22  N   UNL     1       0.774  10.728  20.491  0.00  0.00    +0.000 N 
ATOM     23  C   UNL     1      -0.488  11.121  19.993  0.00  0.00    +0.000 A 
ATOM     24  N   UNL     1      -1.215  11.997  20.641  0.00  0.00    +0.000 NA
ATOM     25  C   UNL     1      -2.367  12.248  19.919  0.00  0.00    +0.000 A 
ATOM     26  C   UNL     1      -2.491  11.551  18.735  0.00  0.00    +0.000 A 
ATOM     27  S   UNL     1      -1.083  10.605  18.477  0.00  0.00    +0.000 S 
ATOM     28  H   UNL     1       1.392  10.411  19.746  0.00  0.00    +0.000 HD
ENDBRANCH  20  22
ENDBRANCH   1  20
TORSDOF 3
ENDMDL
MODEL 5
REMARK VINA RESULT:      -8.0      4.353      7.916
REMARK  Name = 
REMARK  3 active torsions:
REMARK  status: ('A' for Active; 'I' for Inactive)
REMARK    1  A    between atoms: S_2  and  N_4
REMARK    2  A    between atoms: S_2  and  C_10
REMARK    3  A    between atoms: N_19  and  C_20
REMARK                            x       y       z     vdW  Elec       q    Type
REMARK                         _______ _______ _______ _____ _____    ______ ____
ROOT
ATOM      1  C   UNL     1       2.781   7.209  18.706  0.00  0.00    +0.000 A 
ATOM      2  C   UNL     1       2.136   7.932  17.705  0.00  0.00    +0.000 A 
ATOM      3  C   UNL     1       1.166   8.878  18.056  0.00  0.00    +0.000 A 
ATOM      4  C   UNL     1       0.788   9.085  19.397  0.00  0.00    +0.000 A 
ATOM      5  C   UNL     1       1.476   8.345  20.383  0.00  0.00    +0.000 A 
ATOM      6  C   UNL     1       2.469   7.427  20.047  0.00  0.00    +0.000 A 
ATOM      7  O   UNL     1       1.254   8.472  21.735  0.00  0.00    +0.000 OA
ATOM      8  C   UNL     1       0.039   9.158  22.026  0.00  0.00    +0.000 C 
ATOM      9  C   UNL     1      -0.118  10.411  21.176  0.00  0.00    +0.000 C 
ATOM     10  N   UNL     1      -0.222  10.027  19.756  0.00  0.00    +0.000 N 
ENDROOT
BRANCH  10  11
ATOM     11  C   UNL     1      -1.321  10.490  19.004  0.00  0.00    +0.000 A 
ATOM     12  C   UNL     1      -2.168  11.511  19.467  0.00  0.00    +0.000 A 
ATOM     13  C   UNL     1      -3.260  11.960  18.713  0.00  0.00    +0.000 A 
ATOM     14  C   UNL     1      -3.518  11.419  17.456  0.00  0.00    +0.000 A 
ATOM     15 CL   UNL     1      -4.859  12.040  16.564  0.00  0.00    +0.000 Cl
ATOM     16  C   UNL     1      -2.692  10.408  16.967  0.00  0.00    +0.000 A 
ATOM     17 CL   UNL     1      -2.922   9.692  15.411  0.00  0.00    +0.000 Cl
ATOM     18  C   UNL     1      -1.627   9.940  17.746  0.00  0.00    +0.000 A 
ENDBRANCH  10  11
BRANCH   1  20
ATOM     19  O   UNL     1       4.518   5.451  19.529  0.00  0.00    +0.000 OA
ATOM     20  S   UNL     1       4.067   6.065  18.304  0.00  0.00    +0.000 S 
ATOM     21  O   UNL     1       5.004   6.749  17.430  0.00  0.00    +0.000 OA
BRANCH  20  22
ATOM     22  N   UNL     1       3.292   4.955  17.285  0.00  0.00    +0.000 N 
ATOM     23  C   UNL     1       2.658   3.933  18.026  0.00  0.00    +0.000 A 
ATOM     24  N   UNL     1       1.426   4.082  18.444  0.00  0.00    +0.000 NA
ATOM     25  C   UNL     1       1.026   2.925  19.088  0.00  0.00    +0.000 A 
ATOM     26  C   UNL     1       1.970   1.921  19.148  0.00  0.00    +0.000 A 
ATOM     27  S   UNL     1       3.382   2.410  18.303  0.00  0.00    +0.000 S 
ATOM     28  H   UNL     1       4.024   4.584  16.681  0.00  0.00    +0.000 HD
ENDBRANCH  20  22
ENDBRANCH   1  20
TORSDOF 3
ENDMDL
MODEL 6
REMARK VINA RESULT:      -8.0      2.028      2.309
REMARK  Name = 
REMARK  3 active torsions:
REMARK  status: ('A' for Active; 'I' for Inactive)
REMARK    1  A    between atoms: S_2  and  N_4
REMARK    2  A    between atoms: S_2  and  C_10
REMARK    3  A    between atoms: N_19  and  C_20
REMARK                            x       y       z     vdW  Elec       q    Type
REMARK                         _______ _______ _______ _____ _____    ______ ____
ROOT
ATOM      1  C   UNL     1       1.375   7.888  20.656  0.00  0.00    +0.000 A 
ATOM      2  C   UNL     1       1.967   8.183  19.430  0.00  0.00    +0.000 A 
ATOM      3  C   UNL     1       2.560   7.155  18.688  0.00  0.00    +0.000 A 
ATOM      4  C   UNL     1       2.618   5.834  19.172  0.00  0.00    +0.000 A 
ATOM      5  C   UNL     1       1.993   5.572  20.411  0.00  0.00    +0.000 A 
ATOM      6  C   UNL     1       1.368   6.582  21.140  0.00  0.00    +0.000 A 
ATOM      7  O   UNL     1       1.924   4.326  20.989  0.00  0.00    +0.000 OA
ATOM      8  C   UNL     1       2.831   3.399  20.398  0.00  0.00    +0.000 C 
ATOM      9  C   UNL     1       2.789   3.461  18.878  0.00  0.00    +0.000 C 
ATOM     10  N   UNL     1       3.249   4.790  18.432  0.00  0.00    +0.000 N 
ENDROOT
BRANCH  10  11
ATOM     11  C   UNL     1       4.295   4.867  17.490  0.00  0.00    +0.000 A 
ATOM     12  C   UNL     1       4.319   4.075  16.330  0.00  0.00    +0.000 A 
ATOM     13  C   UNL     1       5.367   4.156  15.404  0.00  0.00    +0.000 A 
ATOM     14  C   UNL     1       6.410   5.059  15.599  0.00  0.00    +0.000 A 
ATOM     15 CL   UNL     1       7.653   5.134  14.403  0.00  0.00    +0.000 Cl
ATOM     16  C   UNL     1       6.412   5.862  16.737  0.00  0.00    +0.000 A 
ATOM     17 CL   UNL     1       7.651   7.025  17.052  0.00  0.00    +0.000 Cl
ATOM     18  C   UNL     1       5.379   5.744  17.675  0.00  0.00    +0.000 A 
ENDBRANCH  10  11
BRANCH   1  20
ATOM     19  O   UNL     1       1.472   9.662  22.562  0.00  0.00    +0.000 OA
ATOM     20  S   UNL     1       0.547   9.146  21.581  0.00  0.00    +0.000 S 
ATOM     21  O   UNL     1      -0.743   8.615  21.987  0.00  0.00    +0.000 OA
BRANCH  20  22
ATOM     22  N   UNL     1       0.162  10.302  20.403  0.00  0.00    +0.000 N 
ATOM     23  C   UNL     1      -0.041  11.576  20.979  0.00  0.00    +0.000 A 
ATOM     24  N   UNL     1       0.966  12.397  21.147  0.00  0.00    +0.000 NA
ATOM     25  C   UNL     1       0.494  13.586  21.671  0.00  0.00    +0.000 A 
ATOM     26  C   UNL     1      -0.866  13.640  21.894  0.00  0.00    +0.000 A 
ATOM     27  S   UNL     1      -1.593  12.180  21.358  0.00  0.00    +0.000 S 
ATOM     28  H   UNL     1      -0.681   9.955  19.948  0.00  0.00    +0.000 HD
ENDBRANCH  20  22
ENDBRANCH   1  20
TORSDOF 3
ENDMDL
MODEL 7
REMARK VINA RESULT:      -8.0      1.546      2.133
REMARK  Name = 
REMARK  3 active torsions:
REMARK  status: ('A' for Active; 'I' for Inactive)
REMARK    1  A    between atoms: S_2  and  N_4
REMARK    2  A    between atoms: S_2  and  C_10
REMARK    3  A    between atoms: N_19  and  C_20
REMARK                            x       y       z     vdW  Elec       q    Type
REMARK                         _______ _______ _______ _____ _____    ______ ____
ROOT
ATOM      1  C   UNL     1       1.741   7.796  20.184  0.00  0.00    +0.000 A 
ATOM      2  C   UNL     1       2.253   8.091  18.922  0.00  0.00    +0.000 A 
ATOM      3  C   UNL     1       2.875   7.081  18.180  0.00  0.00    +0.000 A 
ATOM      4  C   UNL     1       3.043   5.782  18.695  0.00  0.00    +0.000 A 
ATOM      5  C   UNL     1       2.496   5.518  19.971  0.00  0.00    +0.000 A 
ATOM      6  C   UNL     1       1.842   6.507  20.703  0.00  0.00    +0.000 A 
ATOM      7  O   UNL     1       2.536   4.288  20.585  0.00  0.00    +0.000 OA
ATOM      8  C   UNL     1       3.472   3.403  19.975  0.00  0.00    +0.000 C 
ATOM      9  C   UNL     1       3.354   3.417  18.457  0.00  0.00    +0.000 C 
ATOM     10  N   UNL     1       3.704   4.758  17.953  0.00  0.00    +0.000 N 
ENDROOT
BRANCH  10  11
ATOM     11  C   UNL     1       4.697   4.873  16.959  0.00  0.00    +0.000 A 
ATOM     12  C   UNL     1       5.926   5.510  17.197  0.00  0.00    +0.000 A 
ATOM     13  C   UNL     1       6.903   5.623  16.200  0.00  0.00    +0.000 A 
ATOM     14  C   UNL     1       6.689   5.070  14.940  0.00  0.00    +0.000 A 
ATOM     15 CL   UNL     1       7.947   5.214  13.766  0.00  0.00    +0.000 Cl
ATOM     16  C   UNL     1       5.482   4.427  14.674  0.00  0.00    +0.000 A 
ATOM     17 CL   UNL     1       5.136   3.694  13.147  0.00  0.00    +0.000 Cl
ATOM     18  C   UNL     1       4.497   4.355  15.667  0.00  0.00    +0.000 A 
ENDBRANCH  10  11
BRANCH   1  20
ATOM     19  O   UNL     1       1.576   9.212  22.364  0.00  0.00    +0.000 OA
ATOM     20  S   UNL     1       0.878   9.026  21.115  0.00  0.00    +0.000 S 
ATOM     21  O   UNL     1      -0.532   8.678  21.099  0.00  0.00    +0.000 OA
BRANCH  20  22
ATOM     22  N   UNL     1       0.973  10.398  20.125  0.00  0.00    +0.000 N 
ATOM     23  C   UNL     1      -0.311  10.849  19.746  0.00  0.00    +0.000 A 
ATOM     24  N   UNL     1      -0.964  11.701  20.497  0.00  0.00    +0.000 NA
ATOM     25  C   UNL     1      -2.159  12.021  19.879  0.00  0.00    +0.000 A 
ATOM     26  C   UNL     1      -2.388  11.399  18.669  0.00  0.00    +0.000 A 
ATOM     27  S   UNL     1      -1.029  10.438  18.252  0.00  0.00    +0.000 S 
ATOM     28  H   UNL     1       1.525  10.112  19.318  0.00  0.00    +0.000 HD
ENDBRANCH  20  22
ENDBRANCH   1  20
TORSDOF 3
ENDMDL
MODEL 8
REMARK VINA RESULT:      -7.9      2.235      2.843
REMARK  Name = 
REMARK  3 active torsions:
REMARK  status: ('A' for Active; 'I' for Inactive)
REMARK    1  A    between atoms: S_2  and  N_4
REMARK    2  A    between atoms: S_2  and  C_10
REMARK    3  A    between atoms: N_19  and  C_20
REMARK                            x       y       z     vdW  Elec       q    Type
REMARK                         _______ _______ _______ _____ _____    ______ ____
ROOT
ATOM      1  C   UNL     1       1.673   7.613  20.259  0.00  0.00    +0.000 A 
ATOM      2  C   UNL     1       2.184   7.941  19.006  0.00  0.00    +0.000 A 
ATOM      3  C   UNL     1       2.839   6.960  18.252  0.00  0.00    +0.000 A 
ATOM      4  C   UNL     1       3.038   5.658  18.748  0.00  0.00    +0.000 A 
ATOM      5  C   UNL     1       2.490   5.359  20.015  0.00  0.00    +0.000 A 
ATOM      6  C   UNL     1       1.804   6.319  20.758  0.00  0.00    +0.000 A 
ATOM      7  O   UNL     1       2.558   4.121  20.610  0.00  0.00    +0.000 OA
ATOM      8  C   UNL     1       3.522   3.271  19.993  0.00  0.00    +0.000 C 
ATOM      9  C   UNL     1       3.414   3.306  18.475  0.00  0.00    +0.000 C 
ATOM     10  N   UNL     1       3.731   4.664  17.995  0.00  0.00    +0.000 N 
ENDROOT
BRANCH  10  11
ATOM     11  C   UNL     1       4.728   4.822  17.010  0.00  0.00    +0.000 A 
ATOM     12  C   UNL     1       5.933   5.497  17.264  0.00  0.00    +0.000 A 
ATOM     13  C   UNL     1       6.913   5.651  16.276  0.00  0.00    +0.000 A 
ATOM     14  C   UNL     1       6.728   5.104  15.009  0.00  0.00    +0.000 A 
ATOM     15 CL   UNL     1       7.989   5.300  13.847  0.00  0.00    +0.000 Cl
ATOM     16  C   UNL     1       5.545   4.424  14.727  0.00  0.00    +0.000 A 
ATOM     17 CL   UNL     1       5.235   3.695  13.191  0.00  0.00    +0.000 Cl
ATOM     18  C   UNL     1       4.555   4.310  15.711  0.00  0.00    +0.000 A 
ENDBRANCH  10  11
BRANCH   1  20
ATOM     19  O   UNL     1       1.679   9.406  22.148  0.00  0.00    +0.000 OA
ATOM     20  S   UNL     1       0.770   8.804  21.203  0.00  0.00    +0.000 S 
ATOM     21  O   UNL     1      -0.455   8.168  21.655  0.00  0.00    +0.000 OA
BRANCH  20  22
ATOM     22  N   UNL     1       0.248   9.911  20.030  0.00  0.00    +0.000 N 
ATOM     23  C   UNL     1       0.330  11.239  20.505  0.00  0.00    +0.000 A 
ATOM     24  N   UNL     1       1.433  11.930  20.357  0.00  0.00    +0.000 NA
ATOM     25  C   UNL     1       1.234  13.206  20.851  0.00  0.00    +0.000 A 
ATOM     26  C   UNL     1      -0.021  13.455  21.368  0.00  0.00    +0.000 A 
ATOM     27  S   UNL     1      -1.011  12.068  21.161  0.00  0.00    +0.000 S 
ATOM     28  H   UNL     1      -0.711   9.646  19.815  0.00  0.00    +0.000 HD
ENDBRANCH  20  22
ENDBRANCH   1  20
TORSDOF 3
ENDMDL
MODEL 9
REMARK VINA RESULT:      -7.8      2.019      2.459
REMARK  Name = 
REMARK  3 active torsions:
REMARK  status: ('A' for Active; 'I' for Inactive)
REMARK    1  A    between atoms: S_2  and  N_4
REMARK    2  A    between atoms: S_2  and  C_10
REMARK    3  A    between atoms: N_19  and  C_20
REMARK                            x       y       z     vdW  Elec       q    Type
REMARK                         _______ _______ _______ _____ _____    ______ ____
ROOT
ATOM      1  C   UNL     1       1.120   9.881  19.343  0.00  0.00    +0.000 A 
ATOM      2  C   UNL     1       1.790   9.651  18.144  0.00  0.00    +0.000 A 
ATOM      3  C   UNL     1       2.329   8.384  17.889  0.00  0.00    +0.000 A 
ATOM      4  C   UNL     1       2.254   7.346  18.837  0.00  0.00    +0.000 A 
ATOM      5  C   UNL     1       1.551   7.613  20.033  0.00  0.00    +0.000 A 
ATOM      6  C   UNL     1       0.980   8.860  20.280  0.00  0.00    +0.000 A 
ATOM      7  O   UNL     1       1.350   6.687  21.030  0.00  0.00    +0.000 OA
ATOM      8  C   UNL     1       2.203   5.552  20.901  0.00  0.00    +0.000 C 
ATOM      9  C   UNL     1       2.238   5.034  19.470  0.00  0.00    +0.000 C 
ATOM     10  N   UNL     1       2.828   6.063  18.593  0.00  0.00    +0.000 N 
ENDROOT
BRANCH  10  11
ATOM     11  C   UNL     1       3.921   5.713  17.774  0.00  0.00    +0.000 A 
ATOM     12  C   UNL     1       3.857   4.654  16.853  0.00  0.00    +0.000 A 
ATOM     13  C   UNL     1       4.951   4.312  16.047  0.00  0.00    +0.000 A 
ATOM     14  C   UNL     1       6.134   5.044  16.119  0.00  0.00    +0.000 A 
ATOM     15 CL   UNL     1       7.432   4.592  15.075  0.00  0.00    +0.000 Cl
ATOM     16  C   UNL     1       6.226   6.103  17.019  0.00  0.00    +0.000 A 
ATOM     17 CL   UNL     1       7.645   7.079  17.163  0.00  0.00    +0.000 Cl
ATOM     18  C   UNL     1       5.139   6.411  17.847  0.00  0.00    +0.000 A 
ENDBRANCH  10  11
BRANCH   1  20
ATOM     19  O   UNL     1      -1.064  11.296  19.457  0.00  0.00    +0.000 OA
ATOM     20  S   UNL     1       0.357  11.443  19.662  0.00  0.00    +0.000 S 
ATOM     21  O   UNL     1       1.109  12.454  18.940  0.00  0.00    +0.000 OA
BRANCH  20  22
ATOM     22  N   UNL     1       0.737  11.733  21.288  0.00  0.00    +0.000 N 
ATOM     23  C   UNL     1      -0.415  12.072  22.032  0.00  0.00    +0.000 A 
ATOM     24  N   UNL     1      -1.143  11.139  22.592  0.00  0.00    +0.000 NA
ATOM     25  C   UNL     1      -2.169  11.734  23.303  0.00  0.00    +0.000 A 
ATOM     26  C   UNL     1      -2.199  13.112  23.262  0.00  0.00    +0.000 A 
ATOM     27  S   UNL     1      -0.853  13.689  22.368  0.00  0.00    +0.000 S 
ATOM     28  H   UNL     1       1.416  12.493  21.276  0.00  0.00    +0.000 HD
ENDBRANCH  20  22
ENDBRANCH   1  20
TORSDOF 3
ENDMDL
