MODEL 1
REMARK VINA RESULT:      -7.0      0.000      0.000
REMARK  Name = 
REMARK  7 active torsions:
REMARK  status: ('A' for Active; 'I' for Inactive)
REMARK    1  A    between atoms: C_1  and  C_2
REMARK    2  A    between atoms: C_4  and  S_5
REMARK    3  A    between atoms: S_5  and  C_8
REMARK    4  A    between atoms: C_8  and  C_9
REMARK    5  A    between atoms: C_9  and  N_10
REMARK    6  A    between atoms: N_15  and  C_16
REMARK    7  A    between atoms: C_21  and  C_22
REMARK                            x       y       z     vdW  Elec       q    Type
REMARK                         _______ _______ _______ _____ _____    ______ ____
ROOT
ATOM      1  C   UNL     1       2.144   8.126  18.066  0.00  0.00    +0.000 C 
ATOM      2  C   UNL     1       3.149   7.038  18.101  0.00  0.00    +0.000 A 
ATOM      3  N   UNL     1       4.434   7.232  17.667  0.00  0.00    +0.000 NA
ATOM      4  C   UNL     1       5.045   6.065  17.805  0.00  0.00    +0.000 A 
ATOM      5  N   UNL     1       4.178   5.111  18.329  0.00  0.00    +0.000 N 
ATOM      6  C   UNL     1       2.960   5.738  18.529  0.00  0.00    +0.000 A 
ATOM      7  C   UNL     1       1.708   5.135  19.067  0.00  0.00    +0.000 C 
ENDROOT
BRANCH   5   8
ATOM      8  C   UNL     1       4.491   3.708  18.553  0.00  0.00    +0.000 C 
ATOM      9  C   UNL     1       4.323   3.220  19.994  0.00  0.00    +0.000 C 
ATOM     10  C   UNL     1       4.208   1.707  19.866  0.00  0.00    +0.000 C 
ATOM     11  C   UNL     1       3.621   1.428  18.485  0.00  0.00    +0.000 C 
ATOM     12  C   UNL     1       3.657   2.740  17.707  0.00  0.00    +0.000 C 
ENDBRANCH   5   8
BRANCH   4  13
ATOM     13  S   UNL     1       6.743   5.773  17.363  0.00  0.00    +0.000 S 
ATOM     14  O   UNL     1       7.134   6.945  16.606  0.00  0.00    +0.000 OA
ATOM     15  O   UNL     1       7.387   5.441  18.619  0.00  0.00    +0.000 OA
BRANCH  13  16
ATOM     16  C   UNL     1       6.798   4.346  16.322  0.00  0.00    +0.000 C 
BRANCH  16  17
ATOM     17  C   UNL     1       5.777   4.357  15.203  0.00  0.00    +0.000 C 
BRANCH  17  18
ATOM     18  N   UNL     1       6.433   4.365  13.902  0.00  0.00    +0.000 N 
ATOM     19  C   UNL     1       6.179   3.544  12.843  0.00  0.00    +0.000 A 
ATOM     20  C   UNL     1       7.042   3.926  11.843  0.00  0.00    +0.000 A 
ATOM     21  C   UNL     1       7.774   4.994  12.394  0.00  0.00    +0.000 A 
ATOM     22  N   UNL     1       7.403   5.267  13.649  0.00  0.00    +0.000 NA
ENDBRANCH  17  18
ENDBRANCH  16  17
ENDBRANCH  13  16
ENDBRANCH   4  13
TORSDOF 5
ENDMDL
MODEL 2
REMARK VINA RESULT:      -6.9      1.913      2.181
REMARK  Name = 
REMARK  7 active torsions:
REMARK  status: ('A' for Active; 'I' for Inactive)
REMARK    1  A    between atoms: C_1  and  C_2
REMARK    2  A    between atoms: C_4  and  S_5
REMARK    3  A    between atoms: S_5  and  C_8
REMARK    4  A    between atoms: C_8  and  C_9
REMARK    5  A    between atoms: C_9  and  N_10
REMARK    6  A    between atoms: N_15  and  C_16
REMARK    7  A    between atoms: C_21  and  C_22
REMARK                            x       y       z     vdW  Elec       q    Type
REMARK                         _______ _______ _______ _____ _____    ______ ____
ROOT
ATOM      1  C   UNL     1       2.097   9.094  18.606  0.00  0.00    +0.000 C 
ATOM      2  C   UNL     1       2.540   7.683  18.705  0.00  0.00    +0.000 A 
ATOM      3  N   UNL     1       3.439   7.147  17.819  0.00  0.00    +0.000 NA
ATOM      4  C   UNL     1       3.585   5.879  18.173  0.00  0.00    +0.000 A 
ATOM      5  N   UNL     1       2.799   5.579  19.280  0.00  0.00    +0.000 N 
ATOM      6  C   UNL     1       2.132   6.741  19.630  0.00  0.00    +0.000 A 
ATOM      7  C   UNL     1       1.166   6.930  20.748  0.00  0.00    +0.000 C 
ENDROOT
BRANCH   5   8
ATOM      8  C   UNL     1       2.662   4.269  19.897  0.00  0.00    +0.000 C 
ATOM      9  C   UNL     1       2.546   4.271  21.423  0.00  0.00    +0.000 C 
ATOM     10  C   UNL     1       1.924   2.920  21.753  0.00  0.00    +0.000 C 
ATOM     11  C   UNL     1       1.093   2.513  20.541  0.00  0.00    +0.000 C 
ATOM     12  C   UNL     1       1.448   3.472  19.408  0.00  0.00    +0.000 C 
ENDBRANCH   5   8
BRANCH   4  13
ATOM     13  S   UNL     1       4.641   4.727  17.323  0.00  0.00    +0.000 S 
ATOM     14  O   UNL     1       5.625   4.330  18.311  0.00  0.00    +0.000 OA
ATOM     15  O   UNL     1       3.726   3.762  16.747  0.00  0.00    +0.000 OA
BRANCH  13  16
ATOM     16  C   UNL     1       5.438   5.589  16.003  0.00  0.00    +0.000 C 
BRANCH  16  17
ATOM     17  C   UNL     1       6.842   5.106  15.706  0.00  0.00    +0.000 C 
BRANCH  17  18
ATOM     18  N   UNL     1       6.999   4.800  14.290  0.00  0.00    +0.000 N 
ATOM     19  C   UNL     1       6.351   3.834  13.576  0.00  0.00    +0.000 A 
ATOM     20  C   UNL     1       6.824   3.925  12.288  0.00  0.00    +0.000 A 
ATOM     21  C   UNL     1       7.751   4.983  12.324  0.00  0.00    +0.000 A 
ATOM     22  N   UNL     1       7.858   5.522  13.542  0.00  0.00    +0.000 NA
ENDBRANCH  17  18
ENDBRANCH  16  17
ENDBRANCH  13  16
ENDBRANCH   4  13
TORSDOF 5
ENDMDL
MODEL 3
REMARK VINA RESULT:      -6.7      0.866      1.052
REMARK  Name = 
REMARK  7 active torsions:
REMARK  status: ('A' for Active; 'I' for Inactive)
REMARK    1  A    between atoms: C_1  and  C_2
REMARK    2  A    between atoms: C_4  and  S_5
REMARK    3  A    between atoms: S_5  and  C_8
REMARK    4  A    between atoms: C_8  and  C_9
REMARK    5  A    between atoms: C_9  and  N_10
REMARK    6  A    between atoms: N_15  and  C_16
REMARK    7  A    between atoms: C_21  and  C_22
REMARK                            x       y       z     vdW  Elec       q    Type
REMARK                         _______ _______ _______ _____ _____    ______ ____
ROOT
ATOM      1  C   UNL     1       2.719   8.263  17.785  0.00  0.00    +0.000 C 
ATOM      2  C   UNL     1       3.594   7.067  17.808  0.00  0.00    +0.000 A 
ATOM      3  N   UNL     1       4.875   7.104  17.320  0.00  0.00    +0.000 NA
ATOM      4  C   UNL     1       5.353   5.877  17.464  0.00  0.00    +0.000 A 
ATOM      5  N   UNL     1       4.406   5.039  18.042  0.00  0.00    +0.000 N 
ATOM      6  C   UNL     1       3.275   5.806  18.273  0.00  0.00    +0.000 A 
ATOM      7  C   UNL     1       1.986   5.361  18.873  0.00  0.00    +0.000 C 
ENDROOT
BRANCH   5   8
ATOM      8  C   UNL     1       4.565   3.615  18.288  0.00  0.00    +0.000 C 
ATOM      9  C   UNL     1       4.495   3.190  19.757  0.00  0.00    +0.000 C 
ATOM     10  C   UNL     1       4.181   1.701  19.701  0.00  0.00    +0.000 C 
ATOM     11  C   UNL     1       3.419   1.463  18.402  0.00  0.00    +0.000 C 
ATOM     12  C   UNL     1       3.531   2.738  17.573  0.00  0.00    +0.000 C 
ENDBRANCH   5   8
BRANCH   4  13
ATOM     13  S   UNL     1       6.988   5.384  16.965  0.00  0.00    +0.000 S 
ATOM     14  O   UNL     1       7.636   6.614  16.554  0.00  0.00    +0.000 OA
ATOM     15  O   UNL     1       7.486   4.611  18.086  0.00  0.00    +0.000 OA
BRANCH  13  16
ATOM     16  C   UNL     1       6.831   4.302  15.576  0.00  0.00    +0.000 C 
BRANCH  16  17
ATOM     17  C   UNL     1       6.663   5.016  14.251  0.00  0.00    +0.000 C 
BRANCH  17  18
ATOM     18  N   UNL     1       6.310   4.076  13.196  0.00  0.00    +0.000 N 
ATOM     19  C   UNL     1       5.067   3.600  12.893  0.00  0.00    +0.000 A 
ATOM     20  C   UNL     1       5.230   2.745  11.829  0.00  0.00    +0.000 A 
ATOM     21  C   UNL     1       6.611   2.776  11.556  0.00  0.00    +0.000 A 
ATOM     22  N   UNL     1       7.272   3.589  12.386  0.00  0.00    +0.000 NA
ENDBRANCH  17  18
ENDBRANCH  16  17
ENDBRANCH  13  16
ENDBRANCH   4  13
TORSDOF 5
ENDMDL
MODEL 4
REMARK VINA RESULT:      -6.7      2.652      3.605
REMARK  Name = 
REMARK  7 active torsions:
REMARK  status: ('A' for Active; 'I' for Inactive)
REMARK    1  A    between atoms: C_1  and  C_2
REMARK    2  A    between atoms: C_4  and  S_5
REMARK    3  A    between atoms: S_5  and  C_8
REMARK    4  A    between atoms: C_8  and  C_9
REMARK    5  A    between atoms: C_9  and  N_10
REMARK    6  A    between atoms: N_15  and  C_16
REMARK    7  A    between atoms: C_21  and  C_22
REMARK                            x       y       z     vdW  Elec       q    Type
REMARK                         _______ _______ _______ _____ _____    ______ ____
ROOT
ATOM      1  C   UNL     1       2.680   8.840  17.956  0.00  0.00    +0.000 C 
ATOM      2  C   UNL     1       2.880   7.391  18.197  0.00  0.00    +0.000 A 
ATOM      3  N   UNL     1       3.570   6.604  17.312  0.00  0.00    +0.000 NA
ATOM      4  C   UNL     1       3.532   5.378  17.810  0.00  0.00    +0.000 A 
ATOM      5  N   UNL     1       2.830   5.352  19.011  0.00  0.00    +0.000 N 
ATOM      6  C   UNL     1       2.418   6.649  19.267  0.00  0.00    +0.000 A 
ATOM      7  C   UNL     1       1.626   7.136  20.431  0.00  0.00    +0.000 C 
ENDROOT
BRANCH   5   8
ATOM      8  C   UNL     1       2.536   4.166  19.801  0.00  0.00    +0.000 C 
ATOM      9  C   UNL     1       2.604   4.355  21.318  0.00  0.00    +0.000 C 
ATOM     10  C   UNL     1       1.795   3.191  21.876  0.00  0.00    +0.000 C 
ATOM     11  C   UNL     1       0.767   2.822  20.811  0.00  0.00    +0.000 C 
ATOM     12  C   UNL     1       1.150   3.568  19.537  0.00  0.00    +0.000 C 
ENDBRANCH   5   8
BRANCH   4  13
ATOM     13  S   UNL     1       4.273   3.963  17.027  0.00  0.00    +0.000 S 
ATOM     14  O   UNL     1       5.009   3.298  18.085  0.00  0.00    +0.000 OA
ATOM     15  O   UNL     1       3.169   3.307  16.355  0.00  0.00    +0.000 OA
BRANCH  13  16
ATOM     16  C   UNL     1       5.399   4.548  15.797  0.00  0.00    +0.000 C 
BRANCH  16  17
ATOM     17  C   UNL     1       6.859   4.354  16.151  0.00  0.00    +0.000 C 
BRANCH  17  18
ATOM     18  N   UNL     1       7.283   5.319  17.155  0.00  0.00    +0.000 N 
ATOM     19  C   UNL     1       7.297   6.679  17.042  0.00  0.00    +0.000 A 
ATOM     20  C   UNL     1       7.775   7.160  18.239  0.00  0.00    +0.000 A 
ATOM     21  C   UNL     1       8.016   6.011  19.014  0.00  0.00    +0.000 A 
ATOM     22  N   UNL     1       7.714   4.886  18.358  0.00  0.00    +0.000 NA
ENDBRANCH  17  18
ENDBRANCH  16  17
ENDBRANCH  13  16
ENDBRANCH   4  13
TORSDOF 5
ENDMDL
MODEL 5
REMARK VINA RESULT:      -6.5      1.576      3.548
REMARK  Name = 
REMARK  7 active torsions:
REMARK  status: ('A' for Active; 'I' for Inactive)
REMARK    1  A    between atoms: C_1  and  C_2
REMARK    2  A    between atoms: C_4  and  S_5
REMARK    3  A    between atoms: S_5  and  C_8
REMARK    4  A    between atoms: C_8  and  C_9
REMARK    5  A    between atoms: C_9  and  N_10
REMARK    6  A    between atoms: N_15  and  C_16
REMARK    7  A    between atoms: C_21  and  C_22
REMARK                            x       y       z     vdW  Elec       q    Type
REMARK                         _______ _______ _______ _____ _____    ______ ____
ROOT
ATOM      1  C   UNL     1       3.033   1.412  17.764  0.00  0.00    +0.000 C 
ATOM      2  C   UNL     1       3.504   2.784  18.069  0.00  0.00    +0.000 A 
ATOM      3  N   UNL     1       4.832   3.118  18.013  0.00  0.00    +0.000 NA
ATOM      4  C   UNL     1       4.902   4.391  18.370  0.00  0.00    +0.000 A 
ATOM      5  N   UNL     1       3.638   4.897  18.655  0.00  0.00    +0.000 N 
ATOM      6  C   UNL     1       2.735   3.866  18.453  0.00  0.00    +0.000 A 
ATOM      7  C   UNL     1       1.257   3.908  18.632  0.00  0.00    +0.000 C 
ENDROOT
BRANCH   5   8
ATOM      8  C   UNL     1       3.346   6.237  19.138  0.00  0.00    +0.000 C 
ATOM      9  C   UNL     1       2.681   7.170  18.124  0.00  0.00    +0.000 C 
ATOM     10  C   UNL     1       2.044   8.259  18.978  0.00  0.00    +0.000 C 
ATOM     11  C   UNL     1       1.732   7.627  20.331  0.00  0.00    +0.000 C 
ATOM     12  C   UNL     1       2.431   6.272  20.367  0.00  0.00    +0.000 C 
ENDBRANCH   5   8
BRANCH   4  13
ATOM     13  S   UNL     1       6.421   5.311  18.477  0.00  0.00    +0.000 S 
ATOM     14  O   UNL     1       6.416   5.878  19.812  0.00  0.00    +0.000 OA
ATOM     15  O   UNL     1       7.441   4.366  18.068  0.00  0.00    +0.000 OA
BRANCH  13  16
ATOM     16  C   UNL     1       6.359   6.608  17.279  0.00  0.00    +0.000 C 
BRANCH  16  17
ATOM     17  C   UNL     1       5.371   6.368  16.157  0.00  0.00    +0.000 C 
BRANCH  17  18
ATOM     18  N   UNL     1       5.926   5.460  15.162  0.00  0.00    +0.000 N 
ATOM     19  C   UNL     1       5.271   4.469  14.491  0.00  0.00    +0.000 A 
ATOM     20  C   UNL     1       6.201   3.885  13.663  0.00  0.00    +0.000 A 
ATOM     21  C   UNL     1       7.389   4.600  13.902  0.00  0.00    +0.000 A 
ATOM     22  N   UNL     1       7.225   5.564  14.814  0.00  0.00    +0.000 NA
ENDBRANCH  17  18
ENDBRANCH  16  17
ENDBRANCH  13  16
ENDBRANCH   4  13
TORSDOF 5
ENDMDL
MODEL 6
REMARK VINA RESULT:      -6.5      2.904      3.758
REMARK  Name = 
REMARK  7 active torsions:
REMARK  status: ('A' for Active; 'I' for Inactive)
REMARK    1  A    between atoms: C_1  and  C_2
REMARK    2  A    between atoms: C_4  and  S_5
REMARK    3  A    between atoms: S_5  and  C_8
REMARK    4  A    between atoms: C_8  and  C_9
REMARK    5  A    between atoms: C_9  and  N_10
REMARK    6  A    between atoms: N_15  and  C_16
REMARK    7  A    between atoms: C_21  and  C_22
REMARK                            x       y       z     vdW  Elec       q    Type
REMARK                         _______ _______ _______ _____ _____    ______ ____
ROOT
ATOM      1  C   UNL     1       2.467   9.317  18.061  0.00  0.00    +0.000 C 
ATOM      2  C   UNL     1       2.500   7.895  18.474  0.00  0.00    +0.000 A 
ATOM      3  N   UNL     1       3.084   6.932  17.692  0.00  0.00    +0.000 NA
ATOM      4  C   UNL     1       2.909   5.787  18.335  0.00  0.00    +0.000 A 
ATOM      5  N   UNL     1       2.223   5.988  19.529  0.00  0.00    +0.000 N 
ATOM      6  C   UNL     1       1.967   7.346  19.625  0.00  0.00    +0.000 A 
ATOM      7  C   UNL     1       1.252   8.057  20.720  0.00  0.00    +0.000 C 
ENDROOT
BRANCH   5   8
ATOM      8  C   UNL     1       1.803   4.948  20.455  0.00  0.00    +0.000 C 
ATOM      9  C   UNL     1       0.966   3.822  19.842  0.00  0.00    +0.000 C 
ATOM     10  C   UNL     1       1.097   2.676  20.836  0.00  0.00    +0.000 C 
ATOM     11  C   UNL     1       2.439   2.855  21.537  0.00  0.00    +0.000 C 
ATOM     12  C   UNL     1       2.961   4.239  21.165  0.00  0.00    +0.000 C 
ENDBRANCH   5   8
BRANCH   4  13
ATOM     13  S   UNL     1       3.472   4.212  17.730  0.00  0.00    +0.000 S 
ATOM     14  O   UNL     1       4.260   3.659  18.815  0.00  0.00    +0.000 OA
ATOM     15  O   UNL     1       2.266   3.554  17.269  0.00  0.00    +0.000 OA
BRANCH  13  16
ATOM     16  C   UNL     1       4.510   4.505  16.331  0.00  0.00    +0.000 C 
BRANCH  16  17
ATOM     17  C   UNL     1       5.972   4.187  16.566  0.00  0.00    +0.000 C 
BRANCH  17  18
ATOM     18  N   UNL     1       6.659   5.318  17.175  0.00  0.00    +0.000 N 
ATOM     19  C   UNL     1       7.396   5.317  18.323  0.00  0.00    +0.000 A 
ATOM     20  C   UNL     1       7.842   6.606  18.495  0.00  0.00    +0.000 A 
ATOM     21  C   UNL     1       7.326   7.311  17.393  0.00  0.00    +0.000 A 
ATOM     22  N   UNL     1       6.606   6.528  16.583  0.00  0.00    +0.000 NA
ENDBRANCH  17  18
ENDBRANCH  16  17
ENDBRANCH  13  16
ENDBRANCH   4  13
TORSDOF 5
ENDMDL
MODEL 7
REMARK VINA RESULT:      -6.4      2.987      3.652
REMARK  Name = 
REMARK  7 active torsions:
REMARK  status: ('A' for Active; 'I' for Inactive)
REMARK    1  A    between atoms: C_1  and  C_2
REMARK    2  A    between atoms: C_4  and  S_5
REMARK    3  A    between atoms: S_5  and  C_8
REMARK    4  A    between atoms: C_8  and  C_9
REMARK    5  A    between atoms: C_9  and  N_10
REMARK    6  A    between atoms: N_15  and  C_16
REMARK    7  A    between atoms: C_21  and  C_22
REMARK                            x       y       z     vdW  Elec       q    Type
REMARK                         _______ _______ _______ _____ _____    ______ ____
ROOT
ATOM      1  C   UNL     1       2.293   9.038  18.016  0.00  0.00    +0.000 C 
ATOM      2  C   UNL     1       2.660   7.618  18.229  0.00  0.00    +0.000 A 
ATOM      3  N   UNL     1       3.504   6.958  17.374  0.00  0.00    +0.000 NA
ATOM      4  C   UNL     1       3.590   5.718  17.834  0.00  0.00    +0.000 A 
ATOM      5  N   UNL     1       2.818   5.560  18.980  0.00  0.00    +0.000 N 
ATOM      6  C   UNL     1       2.226   6.784  19.241  0.00  0.00    +0.000 A 
ATOM      7  C   UNL     1       1.301   7.123  20.359  0.00  0.00    +0.000 C 
ENDROOT
BRANCH   5   8
ATOM      8  C   UNL     1       2.626   4.318  19.712  0.00  0.00    +0.000 C 
ATOM      9  C   UNL     1       2.711   4.434  21.236  0.00  0.00    +0.000 C 
ATOM     10  C   UNL     1       1.999   3.189  21.747  0.00  0.00    +0.000 C 
ATOM     11  C   UNL     1       0.978   2.800  20.682  0.00  0.00    +0.000 C 
ATOM     12  C   UNL     1       1.281   3.635  19.441  0.00  0.00    +0.000 C 
ENDBRANCH   5   8
BRANCH   4  13
ATOM     13  S   UNL     1       4.558   4.439  17.066  0.00  0.00    +0.000 S 
ATOM     14  O   UNL     1       3.719   3.258  17.118  0.00  0.00    +0.000 OA
ATOM     15  O   UNL     1       4.968   5.012  15.799  0.00  0.00    +0.000 OA
BRANCH  13  16
ATOM     16  C   UNL     1       6.004   4.185  18.050  0.00  0.00    +0.000 C 
BRANCH  16  17
ATOM     17  C   UNL     1       7.292   4.616  17.381  0.00  0.00    +0.000 C 
BRANCH  17  18
ATOM     18  N   UNL     1       7.585   6.013  17.669  0.00  0.00    +0.000 N 
ATOM     19  C   UNL     1       7.374   7.088  16.856  0.00  0.00    +0.000 A 
ATOM     20  C   UNL     1       7.805   8.191  17.555  0.00  0.00    +0.000 A 
ATOM     21  C   UNL     1       8.255   7.678  18.786  0.00  0.00    +0.000 A 
ATOM     22  N   UNL     1       8.119   6.351  18.861  0.00  0.00    +0.000 NA
ENDBRANCH  17  18
ENDBRANCH  16  17
ENDBRANCH  13  16
ENDBRANCH   4  13
TORSDOF 5
ENDMDL
MODEL 8
REMARK VINA RESULT:      -6.3      1.325      3.443
REMARK  Name = 
REMARK  7 active torsions:
REMARK  status: ('A' for Active; 'I' for Inactive)
REMARK    1  A    between atoms: C_1  and  C_2
REMARK    2  A    between atoms: C_4  and  S_5
REMARK    3  A    between atoms: S_5  and  C_8
REMARK    4  A    between atoms: C_8  and  C_9
REMARK    5  A    between atoms: C_9  and  N_10
REMARK    6  A    between atoms: N_15  and  C_16
REMARK    7  A    between atoms: C_21  and  C_22
REMARK                            x       y       z     vdW  Elec       q    Type
REMARK                         _______ _______ _______ _____ _____    ______ ____
ROOT
ATOM      1  C   UNL     1       2.600   1.810  17.879  0.00  0.00    +0.000 C 
ATOM      2  C   UNL     1       3.037   3.226  17.881  0.00  0.00    +0.000 A 
ATOM      3  N   UNL     1       4.195   3.622  17.262  0.00  0.00    +0.000 NA
ATOM      4  C   UNL     1       4.297   4.924  17.482  0.00  0.00    +0.000 A 
ATOM      5  N   UNL     1       3.221   5.387  18.232  0.00  0.00    +0.000 N 
ATOM      6  C   UNL     1       2.404   4.296  18.482  0.00  0.00    +0.000 A 
ATOM      7  C   UNL     1       1.129   4.277  19.253  0.00  0.00    +0.000 C 
ENDROOT
BRANCH   5   8
ATOM      8  C   UNL     1       3.040   6.747  18.713  0.00  0.00    +0.000 C 
ATOM      9  C   UNL     1       2.265   7.677  17.775  0.00  0.00    +0.000 C 
ATOM     10  C   UNL     1       1.789   8.807  18.678  0.00  0.00    +0.000 C 
ATOM     11  C   UNL     1       1.653   8.220  20.080  0.00  0.00    +0.000 C 
ATOM     12  C   UNL     1       2.310   6.843  20.057  0.00  0.00    +0.000 C 
ENDBRANCH   5   8
BRANCH   4  13
ATOM     13  S   UNL     1       5.645   5.927  16.899  0.00  0.00    +0.000 S 
ATOM     14  O   UNL     1       5.084   6.704  15.811  0.00  0.00    +0.000 OA
ATOM     15  O   UNL     1       6.156   6.569  18.094  0.00  0.00    +0.000 OA
BRANCH  13  16
ATOM     16  C   UNL     1       6.897   4.848  16.274  0.00  0.00    +0.000 C 
BRANCH  16  17
ATOM     17  C   UNL     1       6.418   3.903  15.193  0.00  0.00    +0.000 C 
BRANCH  17  18
ATOM     18  N   UNL     1       6.890   4.329  13.883  0.00  0.00    +0.000 N 
ATOM     19  C   UNL     1       6.580   3.780  12.673  0.00  0.00    +0.000 A 
ATOM     20  C   UNL     1       7.259   4.516  11.730  0.00  0.00    +0.000 A 
ATOM     21  C   UNL     1       7.948   5.494  12.471  0.00  0.00    +0.000 A 
ATOM     22  N   UNL     1       7.722   5.386  13.785  0.00  0.00    +0.000 NA
ENDBRANCH  17  18
ENDBRANCH  16  17
ENDBRANCH  13  16
ENDBRANCH   4  13
TORSDOF 5
ENDMDL
MODEL 9
REMARK VINA RESULT:      -6.3      2.591      6.487
REMARK  Name = 
REMARK  7 active torsions:
REMARK  status: ('A' for Active; 'I' for Inactive)
REMARK    1  A    between atoms: C_1  and  C_2
REMARK    2  A    between atoms: C_4  and  S_5
REMARK    3  A    between atoms: S_5  and  C_8
REMARK    4  A    between atoms: C_8  and  C_9
REMARK    5  A    between atoms: C_9  and  N_10
REMARK    6  A    between atoms: N_15  and  C_16
REMARK    7  A    between atoms: C_21  and  C_22
REMARK                            x       y       z     vdW  Elec       q    Type
REMARK                         _______ _______ _______ _____ _____    ______ ____
ROOT
ATOM      1  C   UNL     1       6.087   3.574  12.844  0.00  0.00    +0.000 C 
ATOM      2  C   UNL     1       5.906   3.966  14.262  0.00  0.00    +0.000 A 
ATOM      3  N   UNL     1       4.867   3.485  15.014  0.00  0.00    +0.000 NA
ATOM      4  C   UNL     1       4.985   4.054  16.204  0.00  0.00    +0.000 A 
ATOM      5  N   UNL     1       6.090   4.898  16.242  0.00  0.00    +0.000 N 
ATOM      6  C   UNL     1       6.690   4.836  14.995  0.00  0.00    +0.000 A 
ATOM      7  C   UNL     1       7.904   5.567  14.537  0.00  0.00    +0.000 C 
ENDROOT
BRANCH   5   8
ATOM      8  C   UNL     1       6.485   5.733  17.365  0.00  0.00    +0.000 C 
ATOM      9  C   UNL     1       7.660   5.207  18.193  0.00  0.00    +0.000 C 
ATOM     10  C   UNL     1       8.179   6.434  18.930  0.00  0.00    +0.000 C 
ATOM     11  C   UNL     1       7.838   7.642  18.063  0.00  0.00    +0.000 C 
ATOM     12  C   UNL     1       6.885   7.160  16.973  0.00  0.00    +0.000 C 
ENDBRANCH   5   8
BRANCH   4  13
ATOM     13  S   UNL     1       3.863   3.774  17.556  0.00  0.00    +0.000 S 
ATOM     14  O   UNL     1       2.844   2.897  17.014  0.00  0.00    +0.000 OA
ATOM     15  O   UNL     1       4.717   3.348  18.646  0.00  0.00    +0.000 OA
BRANCH  13  16
ATOM     16  C   UNL     1       3.140   5.325  17.995  0.00  0.00    +0.000 C 
BRANCH  16  17
ATOM     17  C   UNL     1       1.730   5.221  18.538  0.00  0.00    +0.000 C 
BRANCH  17  18
ATOM     18  N   UNL     1       1.691   4.374  19.722  0.00  0.00    +0.000 N 
ATOM     19  C   UNL     1       0.904   3.278  19.929  0.00  0.00    +0.000 A 
ATOM     20  C   UNL     1       1.217   2.812  21.185  0.00  0.00    +0.000 A 
ATOM     21  C   UNL     1       2.210   3.691  21.654  0.00  0.00    +0.000 A 
ATOM     22  N   UNL     1       2.505   4.643  20.763  0.00  0.00    +0.000 NA
ENDBRANCH  17  18
ENDBRANCH  16  17
ENDBRANCH  13  16
ENDBRANCH   4  13
TORSDOF 5
ENDMDL
