MODEL 1
REMARK VINA RESULT:      -7.5      0.000      0.000
REMARK  Name = 
REMARK  7 active torsions:
REMARK  status: ('A' for Active; 'I' for Inactive)
REMARK    1  A    between atoms: C_1  and  C_2
REMARK    2  A    between atoms: C_2  and  C_3
REMARK    3  A    between atoms: C_2  and  N_4
REMARK    4  A    between atoms: C_2  and  C_12
REMARK    5  A    between atoms: C_5  and  C_7
REMARK    6  A    between atoms: C_9  and  C_10
REMARK    7  A    between atoms: C_9  and  C_11
REMARK                            x       y       z     vdW  Elec       q    Type
REMARK                         _______ _______ _______ _____ _____    ______ ____
ROOT
ATOM      1  C   UNL     1       7.136   7.270  17.427  0.00  0.00    +0.000 C 
ATOM      2  C   UNL     1       6.567   5.841  17.615  0.00  0.00    +0.000 C 
ATOM      3  C   UNL     1       7.573   5.027  18.457  0.00  0.00    +0.000 C 
ENDROOT
BRANCH   2   4
ATOM      4  C   UNL     1       6.367   5.218  16.206  0.00  0.00    +0.000 A 
ATOM      5  C   UNL     1       5.380   4.243  15.943  0.00  0.00    +0.000 A 
ATOM      6  C   UNL     1       5.283   3.608  14.698  0.00  0.00    +0.000 A 
ATOM      7  C   UNL     1       6.168   3.947  13.687  0.00  0.00    +0.000 A 
ATOM      8  F   UNL     1       6.086   3.322  12.505  0.00  0.00    +0.000 F 
ATOM      9  C   UNL     1       7.130   4.923  13.905  0.00  0.00    +0.000 A 
ATOM     10  F   UNL     1       7.990   5.245  12.929  0.00  0.00    +0.000 F 
ATOM     11  C   UNL     1       7.229   5.561  15.142  0.00  0.00    +0.000 A 
ENDBRANCH   2   4
BRANCH   2  12
ATOM     12  N   UNL     1       5.270   5.901  18.319  0.00  0.00    +0.000 N 
ATOM     13  C   UNL     1       4.815   4.872  19.120  0.00  0.00    +0.000 C 
ATOM     14  O   UNL     1       5.414   3.819  19.305  0.00  0.00    +0.000 OA
ATOM     15  H   UNL     1       4.688   6.717  18.196  0.00  0.00    +0.000 HD
BRANCH  13  16
ATOM     16  C   UNL     1       3.522   5.128  19.807  0.00  0.00    +0.000 C 
ATOM     17  C   UNL     1       2.547   6.170  19.291  0.00  0.00    +0.000 C 
ATOM     18  C   UNL     1       2.207   4.704  19.157  0.00  0.00    +0.000 C 
ATOM     19  C   UNL     1       2.185   4.128  17.761  0.00  0.00    +0.000 C 
ATOM     20  C   UNL     1       1.166   4.112  20.067  0.00  0.00    +0.000 C 
ENDBRANCH  13  16
ENDBRANCH   2  12
TORSDOF 3
ENDMDL
MODEL 2
REMARK VINA RESULT:      -7.5      1.148      1.405
REMARK  Name = 
REMARK  7 active torsions:
REMARK  status: ('A' for Active; 'I' for Inactive)
REMARK    1  A    between atoms: C_1  and  C_2
REMARK    2  A    between atoms: C_2  and  C_3
REMARK    3  A    between atoms: C_2  and  N_4
REMARK    4  A    between atoms: C_2  and  C_12
REMARK    5  A    between atoms: C_5  and  C_7
REMARK    6  A    between atoms: C_9  and  C_10
REMARK    7  A    between atoms: C_9  and  C_11
REMARK                            x       y       z     vdW  Elec       q    Type
REMARK                         _______ _______ _______ _____ _____    ______ ____
ROOT
ATOM      1  C   UNL     1       6.009   6.922  17.132  0.00  0.00    +0.000 C 
ATOM      2  C   UNL     1       5.779   5.397  16.980  0.00  0.00    +0.000 C 
ATOM      3  C   UNL     1       6.719   4.665  17.962  0.00  0.00    +0.000 C 
ENDROOT
BRANCH   2   4
ATOM      4  C   UNL     1       6.084   5.012  15.507  0.00  0.00    +0.000 A 
ATOM      5  C   UNL     1       5.309   4.070  14.794  0.00  0.00    +0.000 A 
ATOM      6  C   UNL     1       5.660   3.650  13.505  0.00  0.00    +0.000 A 
ATOM      7  C   UNL     1       6.790   4.175  12.899  0.00  0.00    +0.000 A 
ATOM      8  F   UNL     1       7.135   3.753  11.675  0.00  0.00    +0.000 F 
ATOM      9  C   UNL     1       7.555   5.124  13.560  0.00  0.00    +0.000 A 
ATOM     10  F   UNL     1       8.652   5.627  12.977  0.00  0.00    +0.000 F 
ATOM     11  C   UNL     1       7.208   5.550  14.843  0.00  0.00    +0.000 A 
ENDBRANCH   2   4
BRANCH   2  12
ATOM     12  N   UNL     1       4.376   5.063  17.300  0.00  0.00    +0.000 N 
ATOM     13  C   UNL     1       3.867   5.159  18.580  0.00  0.00    +0.000 C 
ATOM     14  O   UNL     1       4.516   5.498  19.562  0.00  0.00    +0.000 OA
ATOM     15  H   UNL     1       3.774   4.736  16.558  0.00  0.00    +0.000 HD
BRANCH  13  16
ATOM     16  C   UNL     1       2.419   4.849  18.711  0.00  0.00    +0.000 C 
ATOM     17  C   UNL     1       1.682   4.056  17.647  0.00  0.00    +0.000 C 
ATOM     18  C   UNL     1       1.957   3.421  18.989  0.00  0.00    +0.000 C 
ATOM     19  C   UNL     1       2.948   2.281  19.020  0.00  0.00    +0.000 C 
ATOM     20  C   UNL     1       0.823   3.257  19.964  0.00  0.00    +0.000 C 
ENDBRANCH  13  16
ENDBRANCH   2  12
TORSDOF 3
ENDMDL
MODEL 3
REMARK VINA RESULT:      -7.4      1.170      1.369
REMARK  Name = 
REMARK  7 active torsions:
REMARK  status: ('A' for Active; 'I' for Inactive)
REMARK    1  A    between atoms: C_1  and  C_2
REMARK    2  A    between atoms: C_2  and  C_3
REMARK    3  A    between atoms: C_2  and  N_4
REMARK    4  A    between atoms: C_2  and  C_12
REMARK    5  A    between atoms: C_5  and  C_7
REMARK    6  A    between atoms: C_9  and  C_10
REMARK    7  A    between atoms: C_9  and  C_11
REMARK                            x       y       z     vdW  Elec       q    Type
REMARK                         _______ _______ _______ _____ _____    ______ ____
ROOT
ATOM      1  C   UNL     1       5.956   6.461  17.358  0.00  0.00    +0.000 C 
ATOM      2  C   UNL     1       6.353   4.980  17.132  0.00  0.00    +0.000 C 
ATOM      3  C   UNL     1       7.710   4.732  17.825  0.00  0.00    +0.000 C 
ENDROOT
BRANCH   2   4
ATOM      4  C   UNL     1       6.441   4.738  15.601  0.00  0.00    +0.000 A 
ATOM      5  C   UNL     1       5.587   3.838  14.926  0.00  0.00    +0.000 A 
ATOM      6  C   UNL     1       5.750   3.545  13.566  0.00  0.00    +0.000 A 
ATOM      7  C   UNL     1       6.767   4.158  12.851  0.00  0.00    +0.000 A 
ATOM      8  F   UNL     1       6.933   3.859  11.556  0.00  0.00    +0.000 F 
ATOM      9  C   UNL     1       7.604   5.070  13.478  0.00  0.00    +0.000 A 
ATOM     10  F   UNL     1       8.592   5.657  12.789  0.00  0.00    +0.000 F 
ATOM     11  C   UNL     1       7.444   5.368  14.832  0.00  0.00    +0.000 A 
ENDBRANCH   2   4
BRANCH   2  12
ATOM     12  N   UNL     1       5.331   4.088  17.717  0.00  0.00    +0.000 N 
ATOM     13  C   UNL     1       4.769   4.320  18.957  0.00  0.00    +0.000 C 
ATOM     14  O   UNL     1       5.071   5.252  19.693  0.00  0.00    +0.000 OA
ATOM     15  H   UNL     1       5.047   3.269  17.199  0.00  0.00    +0.000 HD
BRANCH  13  16
ATOM     16  C   UNL     1       3.709   3.360  19.362  0.00  0.00    +0.000 C 
ATOM     17  C   UNL     1       2.628   3.751  20.354  0.00  0.00    +0.000 C 
ATOM     18  C   UNL     1       2.268   3.561  18.899  0.00  0.00    +0.000 C 
ATOM     19  C   UNL     1       1.871   4.796  18.123  0.00  0.00    +0.000 C 
ATOM     20  C   UNL     1       1.513   2.326  18.490  0.00  0.00    +0.000 C 
ENDBRANCH  13  16
ENDBRANCH   2  12
TORSDOF 3
ENDMDL
MODEL 4
REMARK VINA RESULT:      -7.4      3.927      6.713
REMARK  Name = 
REMARK  7 active torsions:
REMARK  status: ('A' for Active; 'I' for Inactive)
REMARK    1  A    between atoms: C_1  and  C_2
REMARK    2  A    between atoms: C_2  and  C_3
REMARK    3  A    between atoms: C_2  and  N_4
REMARK    4  A    between atoms: C_2  and  C_12
REMARK    5  A    between atoms: C_5  and  C_7
REMARK    6  A    between atoms: C_9  and  C_10
REMARK    7  A    between atoms: C_9  and  C_11
REMARK                            x       y       z     vdW  Elec       q    Type
REMARK                         _______ _______ _______ _____ _____    ______ ____
ROOT
ATOM      1  C   UNL     1       2.255   5.067  18.324  0.00  0.00    +0.000 C 
ATOM      2  C   UNL     1       2.777   5.720  19.628  0.00  0.00    +0.000 C 
ATOM      3  C   UNL     1       2.397   4.807  20.813  0.00  0.00    +0.000 C 
ENDROOT
BRANCH   2   4
ATOM      4  C   UNL     1       2.121   7.122  19.756  0.00  0.00    +0.000 A 
ATOM      5  C   UNL     1       1.420   7.528  20.913  0.00  0.00    +0.000 A 
ATOM      6  C   UNL     1       0.739   8.750  20.973  0.00  0.00    +0.000 A 
ATOM      7  C   UNL     1       0.757   9.597  19.877  0.00  0.00    +0.000 A 
ATOM      8  F   UNL     1       0.085  10.755  19.930  0.00  0.00    +0.000 F 
ATOM      9  C   UNL     1       1.462   9.242  18.736  0.00  0.00    +0.000 A 
ATOM     10  F   UNL     1       1.473  10.058  17.673  0.00  0.00    +0.000 F 
ATOM     11  C   UNL     1       2.145   8.026  18.672  0.00  0.00    +0.000 A 
ENDBRANCH   2   4
BRANCH   2  12
ATOM     12  N   UNL     1       4.246   5.863  19.569  0.00  0.00    +0.000 N 
ATOM     13  C   UNL     1       5.064   4.883  19.042  0.00  0.00    +0.000 C 
ATOM     14  O   UNL     1       4.667   3.810  18.603  0.00  0.00    +0.000 OA
ATOM     15  H   UNL     1       4.668   6.701  19.944  0.00  0.00    +0.000 HD
BRANCH  13  16
ATOM     16  C   UNL     1       6.511   5.220  18.999  0.00  0.00    +0.000 C 
ATOM     17  C   UNL     1       7.407   4.714  17.883  0.00  0.00    +0.000 C 
ATOM     18  C   UNL     1       7.049   6.180  17.941  0.00  0.00    +0.000 C 
ATOM     19  C   UNL     1       6.148   6.711  16.850  0.00  0.00    +0.000 C 
ATOM     20  C   UNL     1       8.090   7.167  18.393  0.00  0.00    +0.000 C 
ENDBRANCH  13  16
ENDBRANCH   2  12
TORSDOF 3
ENDMDL
MODEL 5
REMARK VINA RESULT:      -7.3      1.639      2.493
REMARK  Name = 
REMARK  7 active torsions:
REMARK  status: ('A' for Active; 'I' for Inactive)
REMARK    1  A    between atoms: C_1  and  C_2
REMARK    2  A    between atoms: C_2  and  C_3
REMARK    3  A    between atoms: C_2  and  N_4
REMARK    4  A    between atoms: C_2  and  C_12
REMARK    5  A    between atoms: C_5  and  C_7
REMARK    6  A    between atoms: C_9  and  C_10
REMARK    7  A    between atoms: C_9  and  C_11
REMARK                            x       y       z     vdW  Elec       q    Type
REMARK                         _______ _______ _______ _____ _____    ______ ____
ROOT
ATOM      1  C   UNL     1       5.239   6.661  16.331  0.00  0.00    +0.000 C 
ATOM      2  C   UNL     1       5.610   5.157  16.383  0.00  0.00    +0.000 C 
ATOM      3  C   UNL     1       6.659   4.956  17.497  0.00  0.00    +0.000 C 
ENDROOT
BRANCH   2   4
ATOM      4  C   UNL     1       6.171   4.755  14.992  0.00  0.00    +0.000 A 
ATOM      5  C   UNL     1       7.357   5.311  14.465  0.00  0.00    +0.000 A 
ATOM      6  C   UNL     1       7.793   5.025  13.165  0.00  0.00    +0.000 A 
ATOM      7  C   UNL     1       7.053   4.164  12.370  0.00  0.00    +0.000 A 
ATOM      8  F   UNL     1       7.461   3.910  11.119  0.00  0.00    +0.000 F 
ATOM      9  C   UNL     1       5.899   3.577  12.869  0.00  0.00    +0.000 A 
ATOM     10  F   UNL     1       5.179   2.751  12.098  0.00  0.00    +0.000 F 
ATOM     11  C   UNL     1       5.462   3.857  14.165  0.00  0.00    +0.000 A 
ENDBRANCH   2   4
BRANCH   2  12
ATOM     12  N   UNL     1       4.410   4.351  16.686  0.00  0.00    +0.000 N 
ATOM     13  C   UNL     1       3.500   4.715  17.659  0.00  0.00    +0.000 C 
ATOM     14  O   UNL     1       3.605   5.707  18.371  0.00  0.00    +0.000 OA
ATOM     15  H   UNL     1       4.260   3.492  16.175  0.00  0.00    +0.000 HD
BRANCH  13  16
ATOM     16  C   UNL     1       2.316   3.825  17.786  0.00  0.00    +0.000 C 
ATOM     17  C   UNL     1       2.440   2.320  17.631  0.00  0.00    +0.000 C 
ATOM     18  C   UNL     1       2.167   2.907  18.996  0.00  0.00    +0.000 C 
ATOM     19  C   UNL     1       3.269   2.798  20.024  0.00  0.00    +0.000 C 
ATOM     20  C   UNL     1       0.787   2.781  19.580  0.00  0.00    +0.000 C 
ENDBRANCH  13  16
ENDBRANCH   2  12
TORSDOF 3
ENDMDL
MODEL 6
REMARK VINA RESULT:      -7.3      4.331      7.000
REMARK  Name = 
REMARK  7 active torsions:
REMARK  status: ('A' for Active; 'I' for Inactive)
REMARK    1  A    between atoms: C_1  and  C_2
REMARK    2  A    between atoms: C_2  and  C_3
REMARK    3  A    between atoms: C_2  and  N_4
REMARK    4  A    between atoms: C_2  and  C_12
REMARK    5  A    between atoms: C_5  and  C_7
REMARK    6  A    between atoms: C_9  and  C_10
REMARK    7  A    between atoms: C_9  and  C_11
REMARK                            x       y       z     vdW  Elec       q    Type
REMARK                         _______ _______ _______ _____ _____    ______ ____
ROOT
ATOM      1  C   UNL     1       2.393   5.014  18.211  0.00  0.00    +0.000 C 
ATOM      2  C   UNL     1       2.830   5.719  19.520  0.00  0.00    +0.000 C 
ATOM      3  C   UNL     1       2.453   4.809  20.708  0.00  0.00    +0.000 C 
ENDROOT
BRANCH   2   4
ATOM      4  C   UNL     1       2.097   7.086  19.594  0.00  0.00    +0.000 A 
ATOM      5  C   UNL     1       2.090   8.001  18.518  0.00  0.00    +0.000 A 
ATOM      6  C   UNL     1       1.521   9.275  18.636  0.00  0.00    +0.000 A 
ATOM      7  C   UNL     1       0.935   9.654  19.833  0.00  0.00    +0.000 A 
ATOM      8  F   UNL     1       0.412  10.882  19.949  0.00  0.00    +0.000 F 
ATOM      9  C   UNL     1       0.898   8.767  20.899  0.00  0.00    +0.000 A 
ATOM     10  F   UNL     1       0.338   9.137  22.059  0.00  0.00    +0.000 F 
ATOM     11  C   UNL     1       1.461   7.495  20.786  0.00  0.00    +0.000 A 
ENDBRANCH   2   4
BRANCH   2  12
ATOM     12  N   UNL     1       4.291   5.939  19.513  0.00  0.00    +0.000 N 
ATOM     13  C   UNL     1       5.182   4.974  19.086  0.00  0.00    +0.000 C 
ATOM     14  O   UNL     1       4.862   3.855  18.703  0.00  0.00    +0.000 OA
ATOM     15  H   UNL     1       4.650   6.821  19.849  0.00  0.00    +0.000 HD
BRANCH  13  16
ATOM     16  C   UNL     1       6.609   5.388  19.082  0.00  0.00    +0.000 C 
ATOM     17  C   UNL     1       7.594   4.816  18.077  0.00  0.00    +0.000 C 
ATOM     18  C   UNL     1       7.158   6.257  17.953  0.00  0.00    +0.000 C 
ATOM     19  C   UNL     1       6.296   6.615  16.765  0.00  0.00    +0.000 C 
ATOM     20  C   UNL     1       8.119   7.346  18.347  0.00  0.00    +0.000 C 
ENDBRANCH  13  16
ENDBRANCH   2  12
TORSDOF 3
ENDMDL
MODEL 7
REMARK VINA RESULT:      -7.2      3.339      6.421
REMARK  Name = 
REMARK  7 active torsions:
REMARK  status: ('A' for Active; 'I' for Inactive)
REMARK    1  A    between atoms: C_1  and  C_2
REMARK    2  A    between atoms: C_2  and  C_3
REMARK    3  A    between atoms: C_2  and  N_4
REMARK    4  A    between atoms: C_2  and  C_12
REMARK    5  A    between atoms: C_5  and  C_7
REMARK    6  A    between atoms: C_9  and  C_10
REMARK    7  A    between atoms: C_9  and  C_11
REMARK                            x       y       z     vdW  Elec       q    Type
REMARK                         _______ _______ _______ _____ _____    ______ ____
ROOT
ATOM      1  C   UNL     1       6.368   4.826  17.439  0.00  0.00    +0.000 C 
ATOM      2  C   UNL     1       5.131   5.169  16.571  0.00  0.00    +0.000 C 
ATOM      3  C   UNL     1       5.222   6.656  16.166  0.00  0.00    +0.000 C 
ENDROOT
BRANCH   2   4
ATOM      4  C   UNL     1       3.861   4.886  17.418  0.00  0.00    +0.000 A 
ATOM      5  C   UNL     1       3.222   5.887  18.183  0.00  0.00    +0.000 A 
ATOM      6  C   UNL     1       2.145   5.596  19.029  0.00  0.00    +0.000 A 
ATOM      7  C   UNL     1       1.678   4.294  19.117  0.00  0.00    +0.000 A 
ATOM      8  F   UNL     1       0.662   4.014  19.945  0.00  0.00    +0.000 F 
ATOM      9  C   UNL     1       2.264   3.293  18.356  0.00  0.00    +0.000 A 
ATOM     10  F   UNL     1       1.817   2.033  18.447  0.00  0.00    +0.000 F 
ATOM     11  C   UNL     1       3.335   3.579  17.509  0.00  0.00    +0.000 A 
ENDBRANCH   2   4
BRANCH   2  12
ATOM     12  N   UNL     1       5.115   4.328  15.357  0.00  0.00    +0.000 N 
ATOM     13  C   UNL     1       6.251   4.089  14.608  0.00  0.00    +0.000 C 
ATOM     14  O   UNL     1       7.356   4.559  14.853  0.00  0.00    +0.000 OA
ATOM     15  H   UNL     1       4.238   3.928  15.055  0.00  0.00    +0.000 HD
BRANCH  13  16
ATOM     16  C   UNL     1       6.069   3.166  13.457  0.00  0.00    +0.000 C 
ATOM     17  C   UNL     1       5.174   3.531  12.287  0.00  0.00    +0.000 C 
ATOM     18  C   UNL     1       6.672   3.502  12.096  0.00  0.00    +0.000 C 
ATOM     19  C   UNL     1       7.361   4.826  11.862  0.00  0.00    +0.000 C 
ATOM     20  C   UNL     1       7.287   2.361  11.332  0.00  0.00    +0.000 C 
ENDBRANCH  13  16
ENDBRANCH   2  12
TORSDOF 3
ENDMDL
MODEL 8
REMARK VINA RESULT:      -7.2      3.554      6.419
REMARK  Name = 
REMARK  7 active torsions:
REMARK  status: ('A' for Active; 'I' for Inactive)
REMARK    1  A    between atoms: C_1  and  C_2
REMARK    2  A    between atoms: C_2  and  C_3
REMARK    3  A    between atoms: C_2  and  N_4
REMARK    4  A    between atoms: C_2  and  C_12
REMARK    5  A    between atoms: C_5  and  C_7
REMARK    6  A    between atoms: C_9  and  C_10
REMARK    7  A    between atoms: C_9  and  C_11
REMARK                            x       y       z     vdW  Elec       q    Type
REMARK                         _______ _______ _______ _____ _____    ______ ____
ROOT
ATOM      1  C   UNL     1       6.481   4.814  17.500  0.00  0.00    +0.000 C 
ATOM      2  C   UNL     1       5.187   5.099  16.696  0.00  0.00    +0.000 C 
ATOM      3  C   UNL     1       5.172   6.595  16.318  0.00  0.00    +0.000 C 
ENDROOT
BRANCH   2   4
ATOM      4  C   UNL     1       3.976   4.727  17.594  0.00  0.00    +0.000 A 
ATOM      5  C   UNL     1       3.132   3.630  17.311  0.00  0.00    +0.000 A 
ATOM      6  C   UNL     1       1.979   3.372  18.063  0.00  0.00    +0.000 A 
ATOM      7  C   UNL     1       1.656   4.202  19.125  0.00  0.00    +0.000 A 
ATOM      8  F   UNL     1       0.541   3.964  19.829  0.00  0.00    +0.000 F 
ATOM      9  C   UNL     1       2.481   5.269  19.448  0.00  0.00    +0.000 A 
ATOM     10  F   UNL     1       2.164   6.076  20.471  0.00  0.00    +0.000 F 
ATOM     11  C   UNL     1       3.632   5.529  18.704  0.00  0.00    +0.000 A 
ENDBRANCH   2   4
BRANCH   2  12
ATOM     12  N   UNL     1       5.164   4.280  15.468  0.00  0.00    +0.000 N 
ATOM     13  C   UNL     1       6.271   4.137  14.654  0.00  0.00    +0.000 C 
ATOM     14  O   UNL     1       7.351   4.681  14.848  0.00  0.00    +0.000 OA
ATOM     15  H   UNL     1       4.303   3.823  15.205  0.00  0.00    +0.000 HD
BRANCH  13  16
ATOM     16  C   UNL     1       6.091   3.223  13.495  0.00  0.00    +0.000 C 
ATOM     17  C   UNL     1       5.186   3.589  12.333  0.00  0.00    +0.000 C 
ATOM     18  C   UNL     1       6.683   3.578  12.134  0.00  0.00    +0.000 C 
ATOM     19  C   UNL     1       7.357   4.911  11.908  0.00  0.00    +0.000 C 
ATOM     20  C   UNL     1       7.306   2.451  11.355  0.00  0.00    +0.000 C 
ENDBRANCH  13  16
ENDBRANCH   2  12
TORSDOF 3
ENDMDL
MODEL 9
REMARK VINA RESULT:      -7.1      1.189      2.024
REMARK  Name = 
REMARK  7 active torsions:
REMARK  status: ('A' for Active; 'I' for Inactive)
REMARK    1  A    between atoms: C_1  and  C_2
REMARK    2  A    between atoms: C_2  and  C_3
REMARK    3  A    between atoms: C_2  and  N_4
REMARK    4  A    between atoms: C_2  and  C_12
REMARK    5  A    between atoms: C_5  and  C_7
REMARK    6  A    between atoms: C_9  and  C_10
REMARK    7  A    between atoms: C_9  and  C_11
REMARK                            x       y       z     vdW  Elec       q    Type
REMARK                         _______ _______ _______ _____ _____    ______ ____
ROOT
ATOM      1  C   UNL     1       6.579   6.561  16.964  0.00  0.00    +0.000 C 
ATOM      2  C   UNL     1       6.661   5.031  16.734  0.00  0.00    +0.000 C 
ATOM      3  C   UNL     1       7.830   4.477  17.577  0.00  0.00    +0.000 C 
ENDROOT
BRANCH   2   4
ATOM      4  C   UNL     1       6.889   4.788  15.217  0.00  0.00    +0.000 A 
ATOM      5  C   UNL     1       7.858   5.497  14.474  0.00  0.00    +0.000 A 
ATOM      6  C   UNL     1       7.978   5.349  13.086  0.00  0.00    +0.000 A 
ATOM      7  C   UNL     1       7.134   4.477  12.416  0.00  0.00    +0.000 A 
ATOM      8  F   UNL     1       7.237   4.356  11.086  0.00  0.00    +0.000 F 
ATOM      9  C   UNL     1       6.192   3.744  13.121  0.00  0.00    +0.000 A 
ATOM     10  F   UNL     1       5.371   2.907  12.472  0.00  0.00    +0.000 F 
ATOM     11  C   UNL     1       6.071   3.885  14.505  0.00  0.00    +0.000 A 
ENDBRANCH   2   4
BRANCH   2  12
ATOM     12  N   UNL     1       5.401   4.388  17.156  0.00  0.00    +0.000 N 
ATOM     13  C   UNL     1       5.042   4.265  18.484  0.00  0.00    +0.000 C 
ATOM     14  O   UNL     1       5.726   4.645  19.426  0.00  0.00    +0.000 OA
ATOM     15  H   UNL     1       4.789   4.008  16.448  0.00  0.00    +0.000 HD
BRANCH  13  16
ATOM     16  C   UNL     1       3.709   3.652  18.726  0.00  0.00    +0.000 C 
ATOM     17  C   UNL     1       2.897   3.992  19.962  0.00  0.00    +0.000 C 
ATOM     18  C   UNL     1       2.441   4.493  18.612  0.00  0.00    +0.000 C 
ATOM     19  C   UNL     1       2.520   5.982  18.369  0.00  0.00    +0.000 C 
ATOM     20  C   UNL     1       1.256   3.839  17.955  0.00  0.00    +0.000 C 
ENDBRANCH  13  16
ENDBRANCH   2  12
TORSDOF 3
ENDMDL
