MODEL 1
REMARK VINA RESULT:      -7.5      0.000      0.000
REMARK  Name = 
REMARK  3 active torsions:
REMARK  status: ('A' for Active; 'I' for Inactive)
REMARK    1  A    between atoms: C_1  and  C_2
REMARK    2  A    between atoms: C_5  and  C_6
REMARK    3  A    between atoms: C_8  and  C_9
REMARK                            x       y       z     vdW  Elec       q    Type
REMARK                         _______ _______ _______ _____ _____    ______ ____
ROOT
ATOM      1  C   UNL     1      -2.049  12.976  20.356  0.00  0.00    +0.000 A 
ATOM      2  C   UNL     1      -3.288  12.539  20.864  0.00  0.00    +0.000 A 
ATOM      3  C   UNL     1      -4.178  13.412  21.485  0.00  0.00    +0.000 A 
ATOM      4  N   UNL     1      -3.883  14.722  21.624  0.00  0.00    +0.000 NA
ATOM      5  C   UNL     1      -2.701  15.167  21.138  0.00  0.00    +0.000 A 
ATOM      6  N   UNL     1      -2.460  16.511  21.441  0.00  0.00    +0.000 NA
ATOM      7  C   UNL     1      -1.327  17.021  21.092  0.00  0.00    +0.000 A 
ATOM      8  N   UNL     1      -0.347  16.368  20.389  0.00  0.00    +0.000 N 
ATOM      9  C   UNL     1       0.815  17.059  20.052  0.00  0.00    +0.000 A 
ATOM     10  O   UNL     1       1.056  18.222  20.369  0.00  0.00    +0.000 OA
ATOM     11  C   UNL     1       1.828  16.302  19.285  0.00  0.00    +0.000 A 
ATOM     12  C   UNL     1       3.100  16.820  19.009  0.00  0.00    +0.000 A 
ATOM     13  C   UNL     1       4.046  16.020  18.357  0.00  0.00    +0.000 A 
ATOM     14  C   UNL     1       3.724  14.717  17.986  0.00  0.00    +0.000 A 
ATOM     15  C   UNL     1       2.446  14.222  18.241  0.00  0.00    +0.000 A 
ATOM     16  C   UNL     1       1.493  15.017  18.884  0.00  0.00    +0.000 A 
ATOM     17  N   UNL     1       0.261  14.447  19.190  0.00  0.00    +0.000 NA
ATOM     18  C   UNL     1      -0.561  15.060  19.973  0.00  0.00    +0.000 A 
ATOM     19  C   UNL     1      -1.778  14.361  20.472  0.00  0.00    +0.000 A 
ENDROOT
BRANCH   1  24
ATOM     20  C   UNL     1       1.537   8.879  18.249  0.00  0.00    +0.000 C 
ATOM     21  C   UNL     1       0.587   9.903  18.788  0.00  0.00    +0.000 A 
ATOM     22  C   UNL     1      -0.532  10.316  18.063  0.00  0.00    +0.000 A 
ATOM     23  C   UNL     1      -1.366  11.327  18.561  0.00  0.00    +0.000 A 
ATOM     24  C   UNL     1      -1.140  11.924  19.818  0.00  0.00    +0.000 A 
ATOM     25  C   UNL     1      -0.061  11.422  20.561  0.00  0.00    +0.000 A 
ATOM     26  C   UNL     1       0.826  10.479  20.033  0.00  0.00    +0.000 A 
ENDBRANCH   1  24
BRANCH   3  27
ATOM     27  C   UNL     1      -5.475  12.946  22.026  0.00  0.00    +0.000 A 
ATOM     28  C   UNL     1      -5.804  13.090  23.390  0.00  0.00    +0.000 A 
ATOM     29  C   UNL     1      -7.006  12.603  23.913  0.00  0.00    +0.000 A 
ATOM     30  C   UNL     1      -7.917  11.967  23.078  0.00  0.00    +0.000 A 
ATOM     31  C   UNL     1      -7.629  11.828  21.722  0.00  0.00    +0.000 A 
ATOM     32  C   UNL     1      -6.423  12.315  21.204  0.00  0.00    +0.000 A 
ENDBRANCH   3  27
TORSDOF 2
ENDMDL
MODEL 2
REMARK VINA RESULT:      -7.3      0.073      1.202
REMARK  Name = 
REMARK  3 active torsions:
REMARK  status: ('A' for Active; 'I' for Inactive)
REMARK    1  A    between atoms: C_1  and  C_2
REMARK    2  A    between atoms: C_5  and  C_6
REMARK    3  A    between atoms: C_8  and  C_9
REMARK                            x       y       z     vdW  Elec       q    Type
REMARK                         _______ _______ _______ _____ _____    ______ ____
ROOT
ATOM      1  C   UNL     1      -2.000  12.952  20.356  0.00  0.00    +0.000 A 
ATOM      2  C   UNL     1      -3.232  12.510  20.878  0.00  0.00    +0.000 A 
ATOM      3  C   UNL     1      -4.125  13.382  21.496  0.00  0.00    +0.000 A 
ATOM      4  N   UNL     1      -3.840  14.695  21.620  0.00  0.00    +0.000 NA
ATOM      5  C   UNL     1      -2.665  15.145  21.121  0.00  0.00    +0.000 A 
ATOM      6  N   UNL     1      -2.433  16.494  21.409  0.00  0.00    +0.000 NA
ATOM      7  C   UNL     1      -1.306  17.009  21.046  0.00  0.00    +0.000 A 
ATOM      8  N   UNL     1      -0.326  16.358  20.343  0.00  0.00    +0.000 N 
ATOM      9  C   UNL     1       0.828  17.055  19.990  0.00  0.00    +0.000 A 
ATOM     10  O   UNL     1       1.061  18.223  20.294  0.00  0.00    +0.000 OA
ATOM     11  C   UNL     1       1.841  16.299  19.223  0.00  0.00    +0.000 A 
ATOM     12  C   UNL     1       3.107  16.823  18.933  0.00  0.00    +0.000 A 
ATOM     13  C   UNL     1       4.054  16.025  18.282  0.00  0.00    +0.000 A 
ATOM     14  C   UNL     1       3.740  14.716  17.926  0.00  0.00    +0.000 A 
ATOM     15  C   UNL     1       2.468  14.213  18.195  0.00  0.00    +0.000 A 
ATOM     16  C   UNL     1       1.514  15.007  18.838  0.00  0.00    +0.000 A 
ATOM     17  N   UNL     1       0.289  14.430  19.159  0.00  0.00    +0.000 NA
ATOM     18  C   UNL     1      -0.532  15.044  19.941  0.00  0.00    +0.000 A 
ATOM     19  C   UNL     1      -1.740  14.340  20.456  0.00  0.00    +0.000 A 
ENDROOT
BRANCH   1  24
ATOM     20  C   UNL     1       1.552   8.818  18.263  0.00  0.00    +0.000 C 
ATOM     21  C   UNL     1       0.672   9.904  18.801  0.00  0.00    +0.000 A 
ATOM     22  C   UNL     1       0.916  10.497  20.041  0.00  0.00    +0.000 A 
ATOM     23  C   UNL     1       0.037  11.462  20.550  0.00  0.00    +0.000 A 
ATOM     24  C   UNL     1      -1.086  11.902  19.822  0.00  0.00    +0.000 A 
ATOM     25  C   UNL     1      -1.252  11.354  18.541  0.00  0.00    +0.000 A 
ATOM     26  C   UNL     1      -0.432  10.327  18.064  0.00  0.00    +0.000 A 
ENDBRANCH   1  24
BRANCH   3  27
ATOM     27  C   UNL     1      -5.414  12.910  22.052  0.00  0.00    +0.000 A 
ATOM     28  C   UNL     1      -6.398  12.312  21.237  0.00  0.00    +0.000 A 
ATOM     29  C   UNL     1      -7.636  11.914  21.750  0.00  0.00    +0.000 A 
ATOM     30  C   UNL     1      -7.916  12.095  23.100  0.00  0.00    +0.000 A 
ATOM     31  C   UNL     1      -6.957  12.664  23.933  0.00  0.00    +0.000 A 
ATOM     32  C   UNL     1      -5.720  13.064  23.414  0.00  0.00    +0.000 A 
ENDBRANCH   3  27
TORSDOF 2
ENDMDL
MODEL 3
REMARK VINA RESULT:      -7.3      1.941      6.429
REMARK  Name = 
REMARK  3 active torsions:
REMARK  status: ('A' for Active; 'I' for Inactive)
REMARK    1  A    between atoms: C_1  and  C_2
REMARK    2  A    between atoms: C_5  and  C_6
REMARK    3  A    between atoms: C_8  and  C_9
REMARK                            x       y       z     vdW  Elec       q    Type
REMARK                         _______ _______ _______ _____ _____    ______ ____
ROOT
ATOM      1  C   UNL     1      -0.334  11.659  19.815  0.00  0.00    +0.000 A 
ATOM      2  C   UNL     1       0.053  10.304  19.814  0.00  0.00    +0.000 A 
ATOM      3  C   UNL     1       1.292   9.894  19.329  0.00  0.00    +0.000 A 
ATOM      4  N   UNL     1       2.176  10.787  18.837  0.00  0.00    +0.000 NA
ATOM      5  C   UNL     1       1.829  12.096  18.833  0.00  0.00    +0.000 A 
ATOM      6  N   UNL     1       2.774  12.908  18.198  0.00  0.00    +0.000 NA
ATOM      7  C   UNL     1       2.510  14.165  18.070  0.00  0.00    +0.000 A 
ATOM      8  N   UNL     1       1.395  14.794  18.558  0.00  0.00    +0.000 N 
ATOM      9  C   UNL     1       1.260  16.169  18.372  0.00  0.00    +0.000 A 
ATOM     10  O   UNL     1       2.060  16.875  17.762  0.00  0.00    +0.000 OA
ATOM     11  C   UNL     1       0.039  16.789  18.932  0.00  0.00    +0.000 A 
ATOM     12  C   UNL     1      -0.300  18.126  18.691  0.00  0.00    +0.000 A 
ATOM     13  C   UNL     1      -1.513  18.630  19.173  0.00  0.00    +0.000 A 
ATOM     14  C   UNL     1      -2.379  17.806  19.888  0.00  0.00    +0.000 A 
ATOM     15  C   UNL     1      -2.018  16.484  20.146  0.00  0.00    +0.000 A 
ATOM     16  C   UNL     1      -0.804  15.975  19.674  0.00  0.00    +0.000 A 
ATOM     17  N   UNL     1      -0.531  14.628  19.886  0.00  0.00    +0.000 NA
ATOM     18  C   UNL     1       0.460  14.064  19.283  0.00  0.00    +0.000 A 
ATOM     19  C   UNL     1       0.623  12.584  19.337  0.00  0.00    +0.000 A 
ENDROOT
BRANCH   1  24
ATOM     20  C   UNL     1      -5.792  12.784  21.559  0.00  0.00    +0.000 C 
ATOM     21  C   UNL     1      -4.393  12.529  21.090  0.00  0.00    +0.000 A 
ATOM     22  C   UNL     1      -4.096  12.353  19.737  0.00  0.00    +0.000 A 
ATOM     23  C   UNL     1      -2.789  12.047  19.333  0.00  0.00    +0.000 A 
ATOM     24  C   UNL     1      -1.728  11.954  20.256  0.00  0.00    +0.000 A 
ATOM     25  C   UNL     1      -2.043  12.226  21.596  0.00  0.00    +0.000 A 
ATOM     26  C   UNL     1      -3.358  12.443  22.018  0.00  0.00    +0.000 A 
ENDBRANCH   1  24
BRANCH   3  27
ATOM     27  C   UNL     1       1.691   8.468  19.320  0.00  0.00    +0.000 A 
ATOM     28  C   UNL     1       2.205   7.849  18.161  0.00  0.00    +0.000 A 
ATOM     29  C   UNL     1       2.532   6.490  18.136  0.00  0.00    +0.000 A 
ATOM     30  C   UNL     1       2.363   5.716  19.279  0.00  0.00    +0.000 A 
ATOM     31  C   UNL     1       1.877   6.304  20.444  0.00  0.00    +0.000 A 
ATOM     32  C   UNL     1       1.547   7.665  20.463  0.00  0.00    +0.000 A 
ENDBRANCH   3  27
TORSDOF 2
ENDMDL
MODEL 4
REMARK VINA RESULT:      -7.2      1.963      6.452
REMARK  Name = 
REMARK  3 active torsions:
REMARK  status: ('A' for Active; 'I' for Inactive)
REMARK    1  A    between atoms: C_1  and  C_2
REMARK    2  A    between atoms: C_5  and  C_6
REMARK    3  A    between atoms: C_8  and  C_9
REMARK                            x       y       z     vdW  Elec       q    Type
REMARK                         _______ _______ _______ _____ _____    ______ ____
ROOT
ATOM      1  C   UNL     1      -0.378  11.648  19.650  0.00  0.00    +0.000 A 
ATOM      2  C   UNL     1       0.004  10.292  19.653  0.00  0.00    +0.000 A 
ATOM      3  C   UNL     1       1.264   9.881  19.226  0.00  0.00    +0.000 A 
ATOM      4  N   UNL     1       2.175  10.776  18.789  0.00  0.00    +0.000 NA
ATOM      5  C   UNL     1       1.834  12.086  18.782  0.00  0.00    +0.000 A 
ATOM      6  N   UNL     1       2.813  12.901  18.204  0.00  0.00    +0.000 NA
ATOM      7  C   UNL     1       2.560  14.160  18.077  0.00  0.00    +0.000 A 
ATOM      8  N   UNL     1       1.424  14.789  18.515  0.00  0.00    +0.000 N 
ATOM      9  C   UNL     1       1.304  16.166  18.337  0.00  0.00    +0.000 A 
ATOM     10  O   UNL     1       2.136  16.875  17.776  0.00  0.00    +0.000 OA
ATOM     11  C   UNL     1       0.059  16.786  18.842  0.00  0.00    +0.000 A 
ATOM     12  C   UNL     1      -0.262  18.127  18.599  0.00  0.00    +0.000 A 
ATOM     13  C   UNL     1      -1.496  18.631  19.025  0.00  0.00    +0.000 A 
ATOM     14  C   UNL     1      -2.400  17.803  19.686  0.00  0.00    +0.000 A 
ATOM     15  C   UNL     1      -2.058  16.477  19.947  0.00  0.00    +0.000 A 
ATOM     16  C   UNL     1      -0.824  15.968  19.531  0.00  0.00    +0.000 A 
ATOM     17  N   UNL     1      -0.567  14.617  19.742  0.00  0.00    +0.000 NA
ATOM     18  C   UNL     1       0.451  14.055  19.183  0.00  0.00    +0.000 A 
ATOM     19  C   UNL     1       0.606  12.574  19.230  0.00  0.00    +0.000 A 
ENDROOT
BRANCH   1  24
ATOM     20  C   UNL     1      -5.911  12.834  21.090  0.00  0.00    +0.000 C 
ATOM     21  C   UNL     1      -4.492  12.498  20.746  0.00  0.00    +0.000 A 
ATOM     22  C   UNL     1      -3.485  12.504  21.712  0.00  0.00    +0.000 A 
ATOM     23  C   UNL     1      -2.154  12.254  21.349  0.00  0.00    +0.000 A 
ATOM     24  C   UNL     1      -1.791  11.944  20.023  0.00  0.00    +0.000 A 
ATOM     25  C   UNL     1      -2.839  11.856  19.095  0.00  0.00    +0.000 A 
ATOM     26  C   UNL     1      -4.154  12.192  19.430  0.00  0.00    +0.000 A 
ENDBRANCH   1  24
BRANCH   3  27
ATOM     27  C   UNL     1       1.657   8.453  19.222  0.00  0.00    +0.000 A 
ATOM     28  C   UNL     1       1.517   7.642  20.367  0.00  0.00    +0.000 A 
ATOM     29  C   UNL     1       1.936   6.309  20.380  0.00  0.00    +0.000 A 
ATOM     30  C   UNL     1       2.497   5.748  19.239  0.00  0.00    +0.000 A 
ATOM     31  C   UNL     1       2.630   6.518  18.086  0.00  0.00    +0.000 A 
ATOM     32  C   UNL     1       2.212   7.855  18.079  0.00  0.00    +0.000 A 
ENDBRANCH   3  27
TORSDOF 2
ENDMDL
MODEL 5
REMARK VINA RESULT:      -7.2      3.735      7.840
REMARK  Name = 
REMARK  3 active torsions:
REMARK  status: ('A' for Active; 'I' for Inactive)
REMARK    1  A    between atoms: C_1  and  C_2
REMARK    2  A    between atoms: C_5  and  C_6
REMARK    3  A    between atoms: C_8  and  C_9
REMARK                            x       y       z     vdW  Elec       q    Type
REMARK                         _______ _______ _______ _____ _____    ______ ____
ROOT
ATOM      1  C   UNL     1      -1.831  12.098  20.556  0.00  0.00    +0.000 A 
ATOM      2  C   UNL     1      -0.721  11.254  20.355  0.00  0.00    +0.000 A 
ATOM      3  C   UNL     1      -0.668  10.349  19.298  0.00  0.00    +0.000 A 
ATOM      4  N   UNL     1      -1.687  10.246  18.419  0.00  0.00    +0.000 NA
ATOM      5  C   UNL     1      -2.762  11.052  18.588  0.00  0.00    +0.000 A 
ATOM      6  N   UNL     1      -3.797  10.775  17.688  0.00  0.00    +0.000 NA
ATOM      7  C   UNL     1      -4.900  11.433  17.808  0.00  0.00    +0.000 A 
ATOM      8  N   UNL     1      -5.133  12.433  18.716  0.00  0.00    +0.000 N 
ATOM      9  C   UNL     1      -6.367  13.080  18.706  0.00  0.00    +0.000 A 
ATOM     10  O   UNL     1      -7.299  12.798  17.956  0.00  0.00    +0.000 OA
ATOM     11  C   UNL     1      -6.551  14.157  19.703  0.00  0.00    +0.000 A 
ATOM     12  C   UNL     1      -7.784  14.787  19.907  0.00  0.00    +0.000 A 
ATOM     13  C   UNL     1      -7.916  15.736  20.927  0.00  0.00    +0.000 A 
ATOM     14  C   UNL     1      -6.827  16.051  21.736  0.00  0.00    +0.000 A 
ATOM     15  C   UNL     1      -5.596  15.437  21.506  0.00  0.00    +0.000 A 
ATOM     16  C   UNL     1      -5.454  14.494  20.483  0.00  0.00    +0.000 A 
ATOM     17  N   UNL     1      -4.228  13.850  20.351  0.00  0.00    +0.000 NA
ATOM     18  C   UNL     1      -4.115  12.824  19.577  0.00  0.00    +0.000 A 
ATOM     19  C   UNL     1      -2.869  12.007  19.599  0.00  0.00    +0.000 A 
ENDROOT
BRANCH   1  24
ATOM     20  C   UNL     1      -1.797  15.402  25.370  0.00  0.00    +0.000 C 
ATOM     21  C   UNL     1      -1.766  14.545  24.143  0.00  0.00    +0.000 A 
ATOM     22  C   UNL     1      -0.884  14.802  23.092  0.00  0.00    +0.000 A 
ATOM     23  C   UNL     1      -0.925  14.026  21.926  0.00  0.00    +0.000 A 
ATOM     24  C   UNL     1      -1.814  12.940  21.787  0.00  0.00    +0.000 A 
ATOM     25  C   UNL     1      -2.623  12.652  22.896  0.00  0.00    +0.000 A 
ATOM     26  C   UNL     1      -2.651  13.475  24.025  0.00  0.00    +0.000 A 
ENDBRANCH   1  24
BRANCH   3  27
ATOM     27  C   UNL     1       0.496   9.456  19.096  0.00  0.00    +0.000 A 
ATOM     28  C   UNL     1       1.185   9.402  17.866  0.00  0.00    +0.000 A 
ATOM     29  C   UNL     1       2.251   8.521  17.658  0.00  0.00    +0.000 A 
ATOM     30  C   UNL     1       2.663   7.678  18.683  0.00  0.00    +0.000 A 
ATOM     31  C   UNL     1       2.015   7.723  19.915  0.00  0.00    +0.000 A 
ATOM     32  C   UNL     1       0.946   8.604  20.119  0.00  0.00    +0.000 A 
ENDBRANCH   3  27
TORSDOF 2
ENDMDL
MODEL 6
REMARK VINA RESULT:      -7.1      1.974      6.435
REMARK  Name = 
REMARK  3 active torsions:
REMARK  status: ('A' for Active; 'I' for Inactive)
REMARK    1  A    between atoms: C_1  and  C_2
REMARK    2  A    between atoms: C_5  and  C_6
REMARK    3  A    between atoms: C_8  and  C_9
REMARK                            x       y       z     vdW  Elec       q    Type
REMARK                         _______ _______ _______ _____ _____    ______ ____
ROOT
ATOM      1  C   UNL     1      -0.029  11.617  20.464  0.00  0.00    +0.000 A 
ATOM      2  C   UNL     1       0.294  10.250  20.365  0.00  0.00    +0.000 A 
ATOM      3  C   UNL     1       1.344   9.797  19.570  0.00  0.00    +0.000 A 
ATOM      4  N   UNL     1       2.098  10.660  18.857  0.00  0.00    +0.000 NA
ATOM      5  C   UNL     1       1.811  11.981  18.940  0.00  0.00    +0.000 A 
ATOM      6  N   UNL     1       2.583  12.761  18.074  0.00  0.00    +0.000 NA
ATOM      7  C   UNL     1       2.340  14.027  18.015  0.00  0.00    +0.000 A 
ATOM      8  N   UNL     1       1.419  14.694  18.779  0.00  0.00    +0.000 N 
ATOM      9  C   UNL     1       1.290  16.074  18.630  0.00  0.00    +0.000 A 
ATOM     10  O   UNL     1       1.925  16.754  17.826  0.00  0.00    +0.000 OA
ATOM     11  C   UNL     1       0.286  16.736  19.490  0.00  0.00    +0.000 A 
ATOM     12  C   UNL     1      -0.056  18.086  19.343  0.00  0.00    +0.000 A 
ATOM     13  C   UNL     1      -1.078  18.631  20.127  0.00  0.00    +0.000 A 
ATOM     14  C   UNL     1      -1.753  17.835  21.050  0.00  0.00    +0.000 A 
ATOM     15  C   UNL     1      -1.386  16.499  21.208  0.00  0.00    +0.000 A 
ATOM     16  C   UNL     1      -0.360  15.949  20.433  0.00  0.00    +0.000 A 
ATOM     17  N   UNL     1      -0.091  14.592  20.571  0.00  0.00    +0.000 NA
ATOM     18  C   UNL     1       0.684  13.995  19.729  0.00  0.00    +0.000 A 
ATOM     19  C   UNL     1       0.801  12.510  19.744  0.00  0.00    +0.000 A 
ENDROOT
BRANCH   1  24
ATOM     20  C   UNL     1      -4.787  12.929  23.584  0.00  0.00    +0.000 C 
ATOM     21  C   UNL     1      -3.567  12.631  22.768  0.00  0.00    +0.000 A 
ATOM     22  C   UNL     1      -3.578  12.716  21.375  0.00  0.00    +0.000 A 
ATOM     23  C   UNL     1      -2.442  12.364  20.634  0.00  0.00    +0.000 A 
ATOM     24  C   UNL     1      -1.244  11.961  21.257  0.00  0.00    +0.000 A 
ATOM     25  C   UNL     1      -1.237  11.973  22.660  0.00  0.00    +0.000 A 
ATOM     26  C   UNL     1      -2.391  12.236  23.403  0.00  0.00    +0.000 A 
ENDBRANCH   1  24
BRANCH   3  27
ATOM     27  C   UNL     1       1.673   8.357  19.462  0.00  0.00    +0.000 A 
ATOM     28  C   UNL     1       1.473   7.468  20.538  0.00  0.00    +0.000 A 
ATOM     29  C   UNL     1       1.832   6.119  20.455  0.00  0.00    +0.000 A 
ATOM     30  C   UNL     1       2.392   5.623  19.284  0.00  0.00    +0.000 A 
ATOM     31  C   UNL     1       2.583   6.472  18.197  0.00  0.00    +0.000 A 
ATOM     32  C   UNL     1       2.225   7.823  18.286  0.00  0.00    +0.000 A 
ENDBRANCH   3  27
TORSDOF 2
ENDMDL
MODEL 7
REMARK VINA RESULT:      -7.1      1.979      6.520
REMARK  Name = 
REMARK  3 active torsions:
REMARK  status: ('A' for Active; 'I' for Inactive)
REMARK    1  A    between atoms: C_1  and  C_2
REMARK    2  A    between atoms: C_5  and  C_6
REMARK    3  A    between atoms: C_8  and  C_9
REMARK                            x       y       z     vdW  Elec       q    Type
REMARK                         _______ _______ _______ _____ _____    ______ ____
ROOT
ATOM      1  C   UNL     1      -0.021  11.626  20.491  0.00  0.00    +0.000 A 
ATOM      2  C   UNL     1       0.312  10.261  20.394  0.00  0.00    +0.000 A 
ATOM      3  C   UNL     1       1.363   9.815  19.597  0.00  0.00    +0.000 A 
ATOM      4  N   UNL     1       2.108  10.682  18.880  0.00  0.00    +0.000 NA
ATOM      5  C   UNL     1       1.811  12.001  18.962  0.00  0.00    +0.000 A 
ATOM      6  N   UNL     1       2.575  12.785  18.091  0.00  0.00    +0.000 NA
ATOM      7  C   UNL     1       2.322  14.049  18.031  0.00  0.00    +0.000 A 
ATOM      8  N   UNL     1       1.397  14.711  18.796  0.00  0.00    +0.000 N 
ATOM      9  C   UNL     1       1.258  16.089  18.645  0.00  0.00    +0.000 A 
ATOM     10  O   UNL     1       1.885  16.772  17.838  0.00  0.00    +0.000 OA
ATOM     11  C   UNL     1       0.251  16.745  19.507  0.00  0.00    +0.000 A 
ATOM     12  C   UNL     1      -0.101  18.092  19.358  0.00  0.00    +0.000 A 
ATOM     13  C   UNL     1      -1.126  18.631  20.145  0.00  0.00    +0.000 A 
ATOM     14  C   UNL     1      -1.791  17.831  21.071  0.00  0.00    +0.000 A 
ATOM     15  C   UNL     1      -1.413  16.499  21.231  0.00  0.00    +0.000 A 
ATOM     16  C   UNL     1      -0.386  15.955  20.454  0.00  0.00    +0.000 A 
ATOM     17  N   UNL     1      -0.105  14.600  20.593  0.00  0.00    +0.000 NA
ATOM     18  C   UNL     1       0.671  14.008  19.750  0.00  0.00    +0.000 A 
ATOM     19  C   UNL     1       0.800  12.524  19.768  0.00  0.00    +0.000 A 
ENDROOT
BRANCH   1  24
ATOM     20  C   UNL     1      -4.778  12.971  23.598  0.00  0.00    +0.000 C 
ATOM     21  C   UNL     1      -3.559  12.588  22.817  0.00  0.00    +0.000 A 
ATOM     22  C   UNL     1      -2.387  12.168  23.448  0.00  0.00    +0.000 A 
ATOM     23  C   UNL     1      -1.240  11.883  22.695  0.00  0.00    +0.000 A 
ATOM     24  C   UNL     1      -1.236  11.962  21.288  0.00  0.00    +0.000 A 
ATOM     25  C   UNL     1      -2.455  12.298  20.680  0.00  0.00    +0.000 A 
ATOM     26  C   UNL     1      -3.576  12.670  21.426  0.00  0.00    +0.000 A 
ENDBRANCH   1  24
BRANCH   3  27
ATOM     27  C   UNL     1       1.703   8.377  19.491  0.00  0.00    +0.000 A 
ATOM     28  C   UNL     1       2.218   7.823  18.300  0.00  0.00    +0.000 A 
ATOM     29  C   UNL     1       2.489   6.457  18.181  0.00  0.00    +0.000 A 
ATOM     30  C   UNL     1       2.263   5.610  19.260  0.00  0.00    +0.000 A 
ATOM     31  C   UNL     1       1.775   6.131  20.455  0.00  0.00    +0.000 A 
ATOM     32  C   UNL     1       1.501   7.500  20.569  0.00  0.00    +0.000 A 
ENDBRANCH   3  27
TORSDOF 2
ENDMDL
MODEL 8
REMARK VINA RESULT:      -7.0      3.136      6.735
REMARK  Name = 
REMARK  3 active torsions:
REMARK  status: ('A' for Active; 'I' for Inactive)
REMARK    1  A    between atoms: C_1  and  C_2
REMARK    2  A    between atoms: C_5  and  C_6
REMARK    3  A    between atoms: C_8  and  C_9
REMARK                            x       y       z     vdW  Elec       q    Type
REMARK                         _______ _______ _______ _____ _____    ______ ____
ROOT
ATOM      1  C   UNL     1      -2.294  14.421  22.097  0.00  0.00    +0.000 A 
ATOM      2  C   UNL     1      -2.019  15.295  23.168  0.00  0.00    +0.000 A 
ATOM      3  C   UNL     1      -0.719  15.536  23.606  0.00  0.00    +0.000 A 
ATOM      4  N   UNL     1       0.335  14.934  23.015  0.00  0.00    +0.000 NA
ATOM      5  C   UNL     1       0.097  14.095  21.980  0.00  0.00    +0.000 A 
ATOM      6  N   UNL     1       1.251  13.448  21.527  0.00  0.00    +0.000 NA
ATOM      7  C   UNL     1       1.129  12.568  20.592  0.00  0.00    +0.000 A 
ATOM      8  N   UNL     1      -0.041  12.246  19.954  0.00  0.00    +0.000 N 
ATOM      9  C   UNL     1      -0.015  11.295  18.935  0.00  0.00    +0.000 A 
ATOM     10  O   UNL     1       0.987  10.681  18.575  0.00  0.00    +0.000 OA
ATOM     11  C   UNL     1      -1.308  11.001  18.280  0.00  0.00    +0.000 A 
ATOM     12  C   UNL     1      -1.458   9.966  17.349  0.00  0.00    +0.000 A 
ATOM     13  C   UNL     1      -2.727   9.678  16.832  0.00  0.00    +0.000 A 
ATOM     14  C   UNL     1      -3.833  10.418  17.242  0.00  0.00    +0.000 A 
ATOM     15  C   UNL     1      -3.667  11.465  18.147  0.00  0.00    +0.000 A 
ATOM     16  C   UNL     1      -2.402  11.763  18.663  0.00  0.00    +0.000 A 
ATOM     17  N   UNL     1      -2.305  12.761  19.627  0.00  0.00    +0.000 NA
ATOM     18  C   UNL     1      -1.210  12.919  20.289  0.00  0.00    +0.000 A 
ATOM     19  C   UNL     1      -1.172  13.836  21.463  0.00  0.00    +0.000 A 
ENDROOT
BRANCH   1  24
ATOM     20  C   UNL     1      -7.916  13.380  20.916  0.00  0.00    +0.000 C 
ATOM     21  C   UNL     1      -6.485  13.681  21.239  0.00  0.00    +0.000 A 
ATOM     22  C   UNL     1      -5.867  14.852  20.799  0.00  0.00    +0.000 A 
ATOM     23  C   UNL     1      -4.508  15.076  21.057  0.00  0.00    +0.000 A 
ATOM     24  C   UNL     1      -3.732  14.163  21.800  0.00  0.00    +0.000 A 
ATOM     25  C   UNL     1      -4.406  13.041  22.305  0.00  0.00    +0.000 A 
ATOM     26  C   UNL     1      -5.737  12.767  21.977  0.00  0.00    +0.000 A 
ENDBRANCH   1  24
BRANCH   3  27
ATOM     27  C   UNL     1      -0.436  16.447  24.738  0.00  0.00    +0.000 A 
ATOM     28  C   UNL     1       0.364  17.598  24.581  0.00  0.00    +0.000 A 
ATOM     29  C   UNL     1       0.676  18.430  25.660  0.00  0.00    +0.000 A 
ATOM     30  C   UNL     1       0.182  18.136  26.926  0.00  0.00    +0.000 A 
ATOM     31  C   UNL     1      -0.627  17.018  27.108  0.00  0.00    +0.000 A 
ATOM     32  C   UNL     1      -0.934  16.185  26.025  0.00  0.00    +0.000 A 
ENDBRANCH   3  27
TORSDOF 2
ENDMDL
MODEL 9
REMARK VINA RESULT:      -7.0      1.176      1.444
REMARK  Name = 
REMARK  3 active torsions:
REMARK  status: ('A' for Active; 'I' for Inactive)
REMARK    1  A    between atoms: C_1  and  C_2
REMARK    2  A    between atoms: C_5  and  C_6
REMARK    3  A    between atoms: C_8  and  C_9
REMARK                            x       y       z     vdW  Elec       q    Type
REMARK                         _______ _______ _______ _____ _____    ______ ____
ROOT
ATOM      1  C   UNL     1      -2.152  13.479  21.100  0.00  0.00    +0.000 A 
ATOM      2  C   UNL     1      -3.363  13.318  21.801  0.00  0.00    +0.000 A 
ATOM      3  C   UNL     1      -4.181  14.401  22.114  0.00  0.00    +0.000 A 
ATOM      4  N   UNL     1      -3.839  15.656  21.754  0.00  0.00    +0.000 NA
ATOM      5  C   UNL     1      -2.683  15.835  21.074  0.00  0.00    +0.000 A 
ATOM      6  N   UNL     1      -2.382  17.184  20.857  0.00  0.00    +0.000 NA
ATOM      7  C   UNL     1      -1.263  17.474  20.283  0.00  0.00    +0.000 A 
ATOM      8  N   UNL     1      -0.356  16.562  19.809  0.00  0.00    +0.000 N 
ATOM      9  C   UNL     1       0.798  17.024  19.179  0.00  0.00    +0.000 A 
ATOM     10  O   UNL     1       1.095  18.209  19.041  0.00  0.00    +0.000 OA
ATOM     11  C   UNL     1       1.731  15.991  18.681  0.00  0.00    +0.000 A 
ATOM     12  C   UNL     1       2.994  16.307  18.165  0.00  0.00    +0.000 A 
ATOM     13  C   UNL     1       3.867  15.278  17.793  0.00  0.00    +0.000 A 
ATOM     14  C   UNL     1       3.482  13.947  17.936  0.00  0.00    +0.000 A 
ATOM     15  C   UNL     1       2.212  13.645  18.424  0.00  0.00    +0.000 A 
ATOM     16  C   UNL     1       1.331  14.667  18.791  0.00  0.00    +0.000 A 
ATOM     17  N   UNL     1       0.109  14.310  19.351  0.00  0.00    +0.000 NA
ATOM     18  C   UNL     1      -0.636  15.205  19.906  0.00  0.00    +0.000 A 
ATOM     19  C   UNL     1      -1.834  14.796  20.692  0.00  0.00    +0.000 A 
ENDROOT
BRANCH   1  24
ATOM     20  C   UNL     1       1.155   8.715  20.422  0.00  0.00    +0.000 C 
ATOM     21  C   UNL     1       0.274   9.913  20.594  0.00  0.00    +0.000 A 
ATOM     22  C   UNL     1      -0.666  10.275  19.628  0.00  0.00    +0.000 A 
ATOM     23  C   UNL     1      -1.429  11.441  19.783  0.00  0.00    +0.000 A 
ATOM     24  C   UNL     1      -1.314  12.257  20.926  0.00  0.00    +0.000 A 
ATOM     25  C   UNL     1      -0.428  11.816  21.920  0.00  0.00    +0.000 A 
ATOM     26  C   UNL     1       0.400  10.705  21.733  0.00  0.00    +0.000 A 
ENDBRANCH   1  24
BRANCH   3  27
ATOM     27  C   UNL     1      -5.448  14.229  22.861  0.00  0.00    +0.000 A 
ATOM     28  C   UNL     1      -5.823  12.983  23.406  0.00  0.00    +0.000 A 
ATOM     29  C   UNL     1      -7.044  12.806  24.066  0.00  0.00    +0.000 A 
ATOM     30  C   UNL     1      -7.916  13.879  24.206  0.00  0.00    +0.000 A 
ATOM     31  C   UNL     1      -7.564  15.126  23.695  0.00  0.00    +0.000 A 
ATOM     32  C   UNL     1      -6.343  15.298  23.033  0.00  0.00    +0.000 A 
ENDBRANCH   3  27
TORSDOF 2
ENDMDL
