MODEL 1
REMARK VINA RESULT:      -8.4      0.000      0.000
REMARK  Name = 
REMARK  7 active torsions:
REMARK  status: ('A' for Active; 'I' for Inactive)
REMARK    1  A    between atoms: N_1  and  C_2
REMARK    2  A    between atoms: C_2  and  C_3
REMARK    3  A    between atoms: C_5  and  O_6
REMARK    4  A    between atoms: O_6  and  C_7
REMARK    5  A    between atoms: C_11  and  C_12
REMARK    6  A    between atoms: C_16  and  N_17
REMARK    7  A    between atoms: C_25  and  C_26
REMARK                            x       y       z     vdW  Elec       q    Type
REMARK                         _______ _______ _______ _____ _____    ______ ____
ROOT
ATOM      1  C   UNL     1       2.323   7.949  18.586  0.00  0.00    +0.000 A 
ATOM      2  C   UNL     1       2.307   7.228  19.782  0.00  0.00    +0.000 A 
ATOM      3  C   UNL     1       1.543   7.674  20.863  0.00  0.00    +0.000 A 
ATOM      4  C   UNL     1       0.815   8.862  20.758  0.00  0.00    +0.000 A 
ATOM      5  C   UNL     1       0.800   9.564  19.549  0.00  0.00    +0.000 A 
ATOM      6  C   UNL     1       1.504   9.070  18.445  0.00  0.00    +0.000 A 
ENDROOT
BRANCH   5   7
ATOM      7  C   UNL     1       0.174  10.914  19.488  0.00  0.00    +0.000 C 
ATOM      8  O   UNL     1       0.474  11.767  20.317  0.00  0.00    +0.000 OA
ATOM      9  N   UNL     1      -0.668  11.147  18.415  0.00  0.00    +0.000 N 
ATOM     10  C   UNL     1      -1.246  12.451  18.081  0.00  0.00    +0.000 C 
ATOM     11  C   UNL     1      -2.632  11.806  18.073  0.00  0.00    +0.000 C 
ATOM     12  C   UNL     1      -1.946  10.444  18.249  0.00  0.00    +0.000 C 
BRANCH  11  13
ATOM     13  N   UNL     1      -3.464  12.141  19.201  0.00  0.00    +0.000 N 
ATOM     14  C   UNL     1      -3.066  12.661  20.404  0.00  0.00    +0.000 A 
ATOM     15  C   UNL     1      -4.207  12.822  21.156  0.00  0.00    +0.000 A 
ATOM     16  C   UNL     1      -5.240  12.356  20.325  0.00  0.00    +0.000 A 
ATOM     17  N   UNL     1      -4.798  11.948  19.136  0.00  0.00    +0.000 NA
ENDBRANCH  11  13
ENDBRANCH   5   7
BRANCH   1  18
ATOM     18  O   UNL     1       3.164   7.477  17.603  0.00  0.00    +0.000 OA
BRANCH  18  21
ATOM     19  C   UNL     1       3.888   3.869  17.959  0.00  0.00    +0.000 A 
ATOM     20  C   UNL     1       3.161   5.034  17.699  0.00  0.00    +0.000 A 
ATOM     21  C   UNL     1       3.805   6.264  17.759  0.00  0.00    +0.000 A 
ATOM     22  N   UNL     1       5.138   6.379  17.943  0.00  0.00    +0.000 NA
ATOM     23  C   UNL     1       5.863   5.240  18.139  0.00  0.00    +0.000 A 
ATOM     24  C   UNL     1       5.262   3.980  18.179  0.00  0.00    +0.000 A 
BRANCH  23  25
ATOM     25  C   UNL     1       7.373   5.335  18.310  0.00  0.00    +0.000 C 
ATOM     26  F   UNL     1       8.065   4.261  17.836  0.00  0.00    +0.000 F 
ATOM     27  F   UNL     1       7.904   6.424  17.680  0.00  0.00    +0.000 F 
ATOM     28  F   UNL     1       7.738   5.462  19.620  0.00  0.00    +0.000 F 
ENDBRANCH  23  25
BRANCH  19  29
ATOM     29  C   UNL     1       3.192   2.539  18.081  0.00  0.00    +0.000 C 
BRANCH  29  30
ATOM     30  N   UNL     1       4.161   1.452  18.036  0.00  0.00    +0.000 NA
ATOM     31  H   UNL     1       4.178   0.981  18.938  0.00  0.00    +0.000 HD
ATOM     32  H   UNL     1       5.095   1.835  17.901  0.00  0.00    +0.000 HD
ENDBRANCH  29  30
ENDBRANCH  19  29
ENDBRANCH  18  21
ENDBRANCH   1  18
TORSDOF 7
ENDMDL
MODEL 2
REMARK VINA RESULT:      -8.3      1.490      1.838
REMARK  Name = 
REMARK  7 active torsions:
REMARK  status: ('A' for Active; 'I' for Inactive)
REMARK    1  A    between atoms: N_1  and  C_2
REMARK    2  A    between atoms: C_2  and  C_3
REMARK    3  A    between atoms: C_5  and  O_6
REMARK    4  A    between atoms: O_6  and  C_7
REMARK    5  A    between atoms: C_11  and  C_12
REMARK    6  A    between atoms: C_16  and  N_17
REMARK    7  A    between atoms: C_25  and  C_26
REMARK                            x       y       z     vdW  Elec       q    Type
REMARK                         _______ _______ _______ _____ _____    ______ ____
ROOT
ATOM      1  C   UNL     1       1.992   8.566  18.651  0.00  0.00    +0.000 A 
ATOM      2  C   UNL     1       1.914   8.241  20.007  0.00  0.00    +0.000 A 
ATOM      3  C   UNL     1       0.875   8.745  20.793  0.00  0.00    +0.000 A 
ATOM      4  C   UNL     1      -0.073   9.601  20.229  0.00  0.00    +0.000 A 
ATOM      5  C   UNL     1      -0.019   9.896  18.863  0.00  0.00    +0.000 A 
ATOM      6  C   UNL     1       0.978   9.325  18.064  0.00  0.00    +0.000 A 
ENDROOT
BRANCH   5   7
ATOM      7  C   UNL     1      -0.916  10.942  18.299  0.00  0.00    +0.000 C 
ATOM      8  O   UNL     1      -0.770  12.116  18.622  0.00  0.00    +0.000 OA
ATOM      9  N   UNL     1      -1.829  10.514  17.351  0.00  0.00    +0.000 N 
ATOM     10  C   UNL     1      -2.680  11.403  16.557  0.00  0.00    +0.000 C 
ATOM     11  C   UNL     1      -3.900  10.601  17.012  0.00  0.00    +0.000 C 
ATOM     12  C   UNL     1      -2.937   9.607  17.676  0.00  0.00    +0.000 C 
BRANCH  11  13
ATOM     13  N   UNL     1      -4.739  11.266  17.976  0.00  0.00    +0.000 N 
ATOM     14  C   UNL     1      -4.342  12.073  19.010  0.00  0.00    +0.000 A 
ATOM     15  C   UNL     1      -5.490  12.483  19.647  0.00  0.00    +0.000 A 
ATOM     16  C   UNL     1      -6.527  11.858  18.934  0.00  0.00    +0.000 A 
ATOM     17  N   UNL     1      -6.079  11.124  17.916  0.00  0.00    +0.000 NA
ENDBRANCH  11  13
ENDBRANCH   5   7
BRANCH   1  18
ATOM     18  O   UNL     1       3.091   8.088  17.974  0.00  0.00    +0.000 OA
BRANCH  18  21
ATOM     19  C   UNL     1       2.559   4.432  17.868  0.00  0.00    +0.000 A 
ATOM     20  C   UNL     1       2.257   5.790  17.991  0.00  0.00    +0.000 A 
ATOM     21  C   UNL     1       3.263   6.730  17.794  0.00  0.00    +0.000 A 
ATOM     22  N   UNL     1       4.499   6.394  17.372  0.00  0.00    +0.000 NA
ATOM     23  C   UNL     1       4.784   5.072  17.193  0.00  0.00    +0.000 A 
ATOM     24  C   UNL     1       3.846   4.073  17.459  0.00  0.00    +0.000 A 
BRANCH  23  25
ATOM     25  C   UNL     1       6.158   4.665  16.680  0.00  0.00    +0.000 C 
ATOM     26  F   UNL     1       7.046   4.320  17.655  0.00  0.00    +0.000 F 
ATOM     27  F   UNL     1       6.105   3.594  15.834  0.00  0.00    +0.000 F 
ATOM     28  F   UNL     1       6.760   5.660  15.966  0.00  0.00    +0.000 F 
ENDBRANCH  23  25
BRANCH  19  29
ATOM     29  C   UNL     1       1.549   3.381  18.248  0.00  0.00    +0.000 C 
BRANCH  29  30
ATOM     30  N   UNL     1       1.943   2.082  17.719  0.00  0.00    +0.000 NA
ATOM     31  H   UNL     1       1.590   1.350  18.332  0.00  0.00    +0.000 HD
ATOM     32  H   UNL     1       2.958   2.001  17.738  0.00  0.00    +0.000 HD
ENDBRANCH  29  30
ENDBRANCH  19  29
ENDBRANCH  18  21
ENDBRANCH   1  18
TORSDOF 7
ENDMDL
MODEL 3
REMARK VINA RESULT:      -8.2      2.689      4.279
REMARK  Name = 
REMARK  7 active torsions:
REMARK  status: ('A' for Active; 'I' for Inactive)
REMARK    1  A    between atoms: N_1  and  C_2
REMARK    2  A    between atoms: C_2  and  C_3
REMARK    3  A    between atoms: C_5  and  O_6
REMARK    4  A    between atoms: O_6  and  C_7
REMARK    5  A    between atoms: C_11  and  C_12
REMARK    6  A    between atoms: C_16  and  N_17
REMARK    7  A    between atoms: C_25  and  C_26
REMARK                            x       y       z     vdW  Elec       q    Type
REMARK                         _______ _______ _______ _____ _____    ______ ____
ROOT
ATOM      1  C   UNL     1       3.672   4.301  19.650  0.00  0.00    +0.000 A 
ATOM      2  C   UNL     1       2.774   3.358  20.157  0.00  0.00    +0.000 A 
ATOM      3  C   UNL     1       1.520   3.760  20.621  0.00  0.00    +0.000 A 
ATOM      4  C   UNL     1       1.172   5.112  20.607  0.00  0.00    +0.000 A 
ATOM      5  C   UNL     1       2.054   6.052  20.064  0.00  0.00    +0.000 A 
ATOM      6  C   UNL     1       3.277   5.634  19.529  0.00  0.00    +0.000 A 
ENDROOT
BRANCH   5   7
ATOM      7  C   UNL     1       1.764   7.505  20.210  0.00  0.00    +0.000 C 
ATOM      8  O   UNL     1       1.339   7.943  21.274  0.00  0.00    +0.000 OA
ATOM      9  N   UNL     1       2.084   8.302  19.124  0.00  0.00    +0.000 N 
ATOM     10  C   UNL     1       2.035   9.766  19.125  0.00  0.00    +0.000 C 
ATOM     11  C   UNL     1       1.150   9.712  17.879  0.00  0.00    +0.000 C 
ATOM     12  C   UNL     1       1.388   8.196  17.836  0.00  0.00    +0.000 C 
BRANCH  11  13
ATOM     13  N   UNL     1      -0.236  10.034  18.105  0.00  0.00    +0.000 N 
ATOM     14  C   UNL     1      -0.776  10.679  19.186  0.00  0.00    +0.000 A 
ATOM     15  C   UNL     1      -2.128  10.768  18.951  0.00  0.00    +0.000 A 
ATOM     16  C   UNL     1      -2.309  10.134  17.710  0.00  0.00    +0.000 A 
ATOM     17  N   UNL     1      -1.166   9.693  17.188  0.00  0.00    +0.000 NA
ENDBRANCH  11  13
ENDBRANCH   5   7
BRANCH   1  18
ATOM     18  O   UNL     1       4.913   3.826  19.288  0.00  0.00    +0.000 OA
BRANCH  18  21
ATOM     19  C   UNL     1       7.361   6.308  18.059  0.00  0.00    +0.000 A 
ATOM     20  C   UNL     1       6.633   5.533  18.965  0.00  0.00    +0.000 A 
ATOM     21  C   UNL     1       5.740   4.582  18.483  0.00  0.00    +0.000 A 
ATOM     22  N   UNL     1       5.631   4.289  17.170  0.00  0.00    +0.000 NA
ATOM     23  C   UNL     1       6.383   5.001  16.284  0.00  0.00    +0.000 A 
ATOM     24  C   UNL     1       7.232   6.031  16.696  0.00  0.00    +0.000 A 
BRANCH  23  25
ATOM     25  C   UNL     1       6.309   4.667  14.800  0.00  0.00    +0.000 C 
ATOM     26  F   UNL     1       6.336   3.334  14.518  0.00  0.00    +0.000 F 
ATOM     27  F   UNL     1       5.173   5.146  14.212  0.00  0.00    +0.000 F 
ATOM     28  F   UNL     1       7.340   5.216  14.094  0.00  0.00    +0.000 F 
ENDBRANCH  23  25
BRANCH  19  29
ATOM     29  C   UNL     1       8.198   7.466  18.535  0.00  0.00    +0.000 C 
BRANCH  29  30
ATOM     30  N   UNL     1       7.961   8.639  17.704  0.00  0.00    +0.000 NA
ATOM     31  H   UNL     1       8.040   9.477  18.278  0.00  0.00    +0.000 HD
ATOM     32  H   UNL     1       7.004   8.623  17.358  0.00  0.00    +0.000 HD
ENDBRANCH  29  30
ENDBRANCH  19  29
ENDBRANCH  18  21
ENDBRANCH   1  18
TORSDOF 7
ENDMDL
MODEL 4
REMARK VINA RESULT:      -8.1      3.675      9.329
REMARK  Name = 
REMARK  7 active torsions:
REMARK  status: ('A' for Active; 'I' for Inactive)
REMARK    1  A    between atoms: N_1  and  C_2
REMARK    2  A    between atoms: C_2  and  C_3
REMARK    3  A    between atoms: C_5  and  O_6
REMARK    4  A    between atoms: O_6  and  C_7
REMARK    5  A    between atoms: C_11  and  C_12
REMARK    6  A    between atoms: C_16  and  N_17
REMARK    7  A    between atoms: C_25  and  C_26
REMARK                            x       y       z     vdW  Elec       q    Type
REMARK                         _______ _______ _______ _____ _____    ______ ____
ROOT
ATOM      1  C   UNL     1       1.853   6.048  20.443  0.00  0.00    +0.000 A 
ATOM      2  C   UNL     1       1.168   4.880  20.099  0.00  0.00    +0.000 A 
ATOM      3  C   UNL     1       1.563   4.134  18.987  0.00  0.00    +0.000 A 
ATOM      4  C   UNL     1       2.629   4.571  18.198  0.00  0.00    +0.000 A 
ATOM      5  C   UNL     1       3.340   5.719  18.563  0.00  0.00    +0.000 A 
ATOM      6  C   UNL     1       2.989   6.419  19.722  0.00  0.00    +0.000 A 
ENDROOT
BRANCH   5   7
ATOM      7  C   UNL     1       4.355   6.283  17.632  0.00  0.00    +0.000 C 
ATOM      8  O   UNL     1       4.027   7.125  16.802  0.00  0.00    +0.000 OA
ATOM      9  N   UNL     1       5.661   5.868  17.830  0.00  0.00    +0.000 N 
ATOM     10  C   UNL     1       6.825   6.427  17.138  0.00  0.00    +0.000 C 
ATOM     11  C   UNL     1       7.223   5.012  16.718  0.00  0.00    +0.000 C 
ATOM     12  C   UNL     1       6.089   4.481  17.606  0.00  0.00    +0.000 C 
BRANCH  11  13
ATOM     13  N   UNL     1       7.007   4.709  15.326  0.00  0.00    +0.000 N 
ATOM     14  C   UNL     1       6.118   3.810  14.798  0.00  0.00    +0.000 A 
ATOM     15  C   UNL     1       6.263   3.875  13.432  0.00  0.00    +0.000 A 
ATOM     16  C   UNL     1       7.274   4.830  13.234  0.00  0.00    +0.000 A 
ATOM     17  N   UNL     1       7.725   5.344  14.377  0.00  0.00    +0.000 NA
ENDBRANCH  11  13
ENDBRANCH   5   7
BRANCH   1  18
ATOM     18  O   UNL     1       1.345   6.760  21.507  0.00  0.00    +0.000 OA
BRANCH  18  21
ATOM     19  C   UNL     1      -0.266  10.049  22.012  0.00  0.00    +0.000 A 
ATOM     20  C   UNL     1       0.283   8.803  22.328  0.00  0.00    +0.000 A 
ATOM     21  C   UNL     1       0.852   8.035  21.318  0.00  0.00    +0.000 A 
ATOM     22  N   UNL     1       1.005   8.492  20.057  0.00  0.00    +0.000 NA
ATOM     23  C   UNL     1       0.523   9.731  19.756  0.00  0.00    +0.000 A 
ATOM     24  C   UNL     1      -0.139  10.516  20.702  0.00  0.00    +0.000 A 
BRANCH  23  25
ATOM     25  C   UNL     1       0.715  10.288  18.352  0.00  0.00    +0.000 C 
ATOM     26  F   UNL     1       1.103  11.593  18.309  0.00  0.00    +0.000 F 
ATOM     27  F   UNL     1       1.655   9.599  17.639  0.00  0.00    +0.000 F 
ATOM     28  F   UNL     1      -0.427  10.217  17.606  0.00  0.00    +0.000 F 
ENDBRANCH  23  25
BRANCH  19  29
ATOM     29  C   UNL     1      -1.049  10.827  23.037  0.00  0.00    +0.000 C 
BRANCH  29  30
ATOM     30  N   UNL     1      -0.689  12.238  22.987  0.00  0.00    +0.000 NA
ATOM     31  H   UNL     1      -1.055  12.707  23.813  0.00  0.00    +0.000 HD
ATOM     32  H   UNL     1      -1.145  12.677  22.189  0.00  0.00    +0.000 HD
ENDBRANCH  29  30
ENDBRANCH  19  29
ENDBRANCH  18  21
ENDBRANCH   1  18
TORSDOF 7
ENDMDL
MODEL 5
REMARK VINA RESULT:      -8.1      2.240      2.822
REMARK  Name = 
REMARK  7 active torsions:
REMARK  status: ('A' for Active; 'I' for Inactive)
REMARK    1  A    between atoms: N_1  and  C_2
REMARK    2  A    between atoms: C_2  and  C_3
REMARK    3  A    between atoms: C_5  and  O_6
REMARK    4  A    between atoms: O_6  and  C_7
REMARK    5  A    between atoms: C_11  and  C_12
REMARK    6  A    between atoms: C_16  and  N_17
REMARK    7  A    between atoms: C_25  and  C_26
REMARK                            x       y       z     vdW  Elec       q    Type
REMARK                         _______ _______ _______ _____ _____    ______ ____
ROOT
ATOM      1  C   UNL     1       2.290   7.979  18.585  0.00  0.00    +0.000 A 
ATOM      2  C   UNL     1       2.299   7.272  19.789  0.00  0.00    +0.000 A 
ATOM      3  C   UNL     1       1.558   7.731  20.880  0.00  0.00    +0.000 A 
ATOM      4  C   UNL     1       0.828   8.918  20.777  0.00  0.00    +0.000 A 
ATOM      5  C   UNL     1       0.788   9.606  19.560  0.00  0.00    +0.000 A 
ATOM      6  C   UNL     1       1.469   9.099  18.448  0.00  0.00    +0.000 A 
ENDROOT
BRANCH   5   7
ATOM      7  C   UNL     1       0.162  10.955  19.497  0.00  0.00    +0.000 C 
ATOM      8  O   UNL     1       0.492  11.824  20.299  0.00  0.00    +0.000 OA
ATOM      9  N   UNL     1      -0.717  11.170  18.450  0.00  0.00    +0.000 N 
ATOM     10  C   UNL     1      -1.306  12.469  18.113  0.00  0.00    +0.000 C 
ATOM     11  C   UNL     1      -2.692  11.826  18.166  0.00  0.00    +0.000 C 
ATOM     12  C   UNL     1      -2.001  10.467  18.342  0.00  0.00    +0.000 C 
BRANCH  11  13
ATOM     13  N   UNL     1      -3.483  12.182  19.316  0.00  0.00    +0.000 N 
ATOM     14  C   UNL     1      -3.034  12.633  20.529  0.00  0.00    +0.000 A 
ATOM     15  C   UNL     1      -4.150  12.851  21.302  0.00  0.00    +0.000 A 
ATOM     16  C   UNL     1      -5.225  12.486  20.473  0.00  0.00    +0.000 A 
ATOM     17  N   UNL     1      -4.828  12.087  19.265  0.00  0.00    +0.000 NA
ENDBRANCH  11  13
ENDBRANCH   5   7
BRANCH   1  18
ATOM     18  O   UNL     1       3.111   7.496  17.590  0.00  0.00    +0.000 OA
BRANCH  18  21
ATOM     19  C   UNL     1       5.627   4.797  17.827  0.00  0.00    +0.000 A 
ATOM     20  C   UNL     1       5.105   6.092  17.771  0.00  0.00    +0.000 A 
ATOM     21  C   UNL     1       3.726   6.268  17.731  0.00  0.00    +0.000 A 
ATOM     22  N   UNL     1       2.859   5.242  17.864  0.00  0.00    +0.000 NA
ATOM     23  C   UNL     1       3.363   3.980  17.979  0.00  0.00    +0.000 A 
ATOM     24  C   UNL     1       4.736   3.727  17.936  0.00  0.00    +0.000 A 
BRANCH  23  25
ATOM     25  C   UNL     1       2.411   2.808  18.169  0.00  0.00    +0.000 C 
ATOM     26  F   UNL     1       2.519   2.181  19.374  0.00  0.00    +0.000 F 
ATOM     27  F   UNL     1       1.100   3.175  18.059  0.00  0.00    +0.000 F 
ATOM     28  F   UNL     1       2.593   1.835  17.228  0.00  0.00    +0.000 F 
ENDBRANCH  23  25
BRANCH  19  29
ATOM     29  C   UNL     1       7.107   4.558  17.689  0.00  0.00    +0.000 C 
BRANCH  29  30
ATOM     30  N   UNL     1       7.517   4.699  16.298  0.00  0.00    +0.000 NA
ATOM     31  H   UNL     1       6.702   4.918  15.729  0.00  0.00    +0.000 HD
ATOM     32  H   UNL     1       7.868   3.806  15.955  0.00  0.00    +0.000 HD
ENDBRANCH  29  30
ENDBRANCH  19  29
ENDBRANCH  18  21
ENDBRANCH   1  18
TORSDOF 7
ENDMDL
MODEL 6
REMARK VINA RESULT:      -8.1      0.772      1.204
REMARK  Name = 
REMARK  7 active torsions:
REMARK  status: ('A' for Active; 'I' for Inactive)
REMARK    1  A    between atoms: N_1  and  C_2
REMARK    2  A    between atoms: C_2  and  C_3
REMARK    3  A    between atoms: C_5  and  O_6
REMARK    4  A    between atoms: O_6  and  C_7
REMARK    5  A    between atoms: C_11  and  C_12
REMARK    6  A    between atoms: C_16  and  N_17
REMARK    7  A    between atoms: C_25  and  C_26
REMARK                            x       y       z     vdW  Elec       q    Type
REMARK                         _______ _______ _______ _____ _____    ______ ____
ROOT
ATOM      1  C   UNL     1       2.329   7.750  18.763  0.00  0.00    +0.000 A 
ATOM      2  C   UNL     1       2.240   6.868  19.843  0.00  0.00    +0.000 A 
ATOM      3  C   UNL     1       1.563   7.244  21.005  0.00  0.00    +0.000 A 
ATOM      4  C   UNL     1       0.998   8.518  21.100  0.00  0.00    +0.000 A 
ATOM      5  C   UNL     1       1.052   9.387  20.006  0.00  0.00    +0.000 A 
ATOM      6  C   UNL     1       1.663   8.976  18.817  0.00  0.00    +0.000 A 
ENDROOT
BRANCH   5   7
ATOM      7  C   UNL     1       0.611  10.801  20.165  0.00  0.00    +0.000 C 
ATOM      8  O   UNL     1       0.981  11.454  21.135  0.00  0.00    +0.000 OA
ATOM      9  N   UNL     1      -0.144  11.323  19.129  0.00  0.00    +0.000 N 
ATOM     10  C   UNL     1      -0.532  12.730  19.012  0.00  0.00    +0.000 C 
ATOM     11  C   UNL     1      -1.988  12.291  18.862  0.00  0.00    +0.000 C 
ATOM     12  C   UNL     1      -1.494  10.838  18.816  0.00  0.00    +0.000 C 
BRANCH  11  13
ATOM     13  N   UNL     1      -2.820  12.541  20.011  0.00  0.00    +0.000 N 
ATOM     14  C   UNL     1      -4.188  12.505  20.074  0.00  0.00    +0.000 A 
ATOM     15  C   UNL     1      -4.526  12.800  21.374  0.00  0.00    +0.000 A 
ATOM     16  C   UNL     1      -3.295  13.013  22.015  0.00  0.00    +0.000 A 
ATOM     17  N   UNL     1      -2.255  12.852  21.197  0.00  0.00    +0.000 NA
ENDBRANCH  11  13
ENDBRANCH   5   7
BRANCH   1  18
ATOM     18  O   UNL     1       3.081   7.324  17.691  0.00  0.00    +0.000 OA
BRANCH  18  21
ATOM     19  C   UNL     1       4.023   3.751  17.787  0.00  0.00    +0.000 A 
ATOM     20  C   UNL     1       3.228   4.885  17.604  0.00  0.00    +0.000 A 
ATOM     21  C   UNL     1       3.794   6.145  17.766  0.00  0.00    +0.000 A 
ATOM     22  N   UNL     1       5.115   6.326  17.978  0.00  0.00    +0.000 NA
ATOM     23  C   UNL     1       5.907   5.223  18.099  0.00  0.00    +0.000 A 
ATOM     24  C   UNL     1       5.386   3.929  18.036  0.00  0.00    +0.000 A 
BRANCH  23  25
ATOM     25  C   UNL     1       7.407   5.396  18.301  0.00  0.00    +0.000 C 
ATOM     26  F   UNL     1       7.936   6.494  17.692  0.00  0.00    +0.000 F 
ATOM     27  F   UNL     1       7.749   5.503  19.619  0.00  0.00    +0.000 F 
ATOM     28  F   UNL     1       8.119   4.331  17.828  0.00  0.00    +0.000 F 
ENDBRANCH  23  25
BRANCH  19  29
ATOM     29  C   UNL     1       3.410   2.376  17.799  0.00  0.00    +0.000 C 
BRANCH  29  30
ATOM     30  N   UNL     1       4.174   1.486  18.665  0.00  0.00    +0.000 NA
ATOM     31  H   UNL     1       3.664   0.612  18.780  0.00  0.00    +0.000 HD
ATOM     32  H   UNL     1       4.245   1.895  19.595  0.00  0.00    +0.000 HD
ENDBRANCH  29  30
ENDBRANCH  19  29
ENDBRANCH  18  21
ENDBRANCH   1  18
TORSDOF 7
ENDMDL
MODEL 7
REMARK VINA RESULT:      -8.0      2.641      4.209
REMARK  Name = 
REMARK  7 active torsions:
REMARK  status: ('A' for Active; 'I' for Inactive)
REMARK    1  A    between atoms: N_1  and  C_2
REMARK    2  A    between atoms: C_2  and  C_3
REMARK    3  A    between atoms: C_5  and  O_6
REMARK    4  A    between atoms: O_6  and  C_7
REMARK    5  A    between atoms: C_11  and  C_12
REMARK    6  A    between atoms: C_16  and  N_17
REMARK    7  A    between atoms: C_25  and  C_26
REMARK                            x       y       z     vdW  Elec       q    Type
REMARK                         _______ _______ _______ _____ _____    ______ ____
ROOT
ATOM      1  C   UNL     1       3.048   3.760  19.051  0.00  0.00    +0.000 A 
ATOM      2  C   UNL     1       2.173   2.946  19.774  0.00  0.00    +0.000 A 
ATOM      3  C   UNL     1       1.147   3.513  20.532  0.00  0.00    +0.000 A 
ATOM      4  C   UNL     1       1.013   4.902  20.593  0.00  0.00    +0.000 A 
ATOM      5  C   UNL     1       1.864   5.717  19.840  0.00  0.00    +0.000 A 
ATOM      6  C   UNL     1       2.839   5.140  19.020  0.00  0.00    +0.000 A 
ENDROOT
BRANCH   5   7
ATOM      7  C   UNL     1       1.839   7.193  20.041  0.00  0.00    +0.000 C 
ATOM      8  O   UNL     1       1.631   7.658  21.157  0.00  0.00    +0.000 OA
ATOM      9  N   UNL     1       2.146   7.963  18.933  0.00  0.00    +0.000 N 
ATOM     10  C   UNL     1       2.341   9.415  18.958  0.00  0.00    +0.000 C 
ATOM     11  C   UNL     1       1.308   9.548  17.839  0.00  0.00    +0.000 C 
ATOM     12  C   UNL     1       1.283   8.016  17.746  0.00  0.00    +0.000 C 
BRANCH  11  13
ATOM     13  N   UNL     1       0.034  10.083  18.249  0.00  0.00    +0.000 N 
ATOM     14  C   UNL     1      -0.235  10.832  19.364  0.00  0.00    +0.000 A 
ATOM     15  C   UNL     1      -1.580  11.120  19.325  0.00  0.00    +0.000 A 
ATOM     16  C   UNL     1      -2.038  10.487  18.157  0.00  0.00    +0.000 A 
ATOM     17  N   UNL     1      -1.064   9.863  17.496  0.00  0.00    +0.000 NA
ENDBRANCH  11  13
ENDBRANCH   5   7
BRANCH   1  18
ATOM     18  O   UNL     1       4.075   3.119  18.396  0.00  0.00    +0.000 OA
BRANCH  18  21
ATOM     19  C   UNL     1       7.108   5.224  18.206  0.00  0.00    +0.000 A 
ATOM     20  C   UNL     1       6.093   4.448  18.771  0.00  0.00    +0.000 A 
ATOM     21  C   UNL     1       5.163   3.834  17.938  0.00  0.00    +0.000 A 
ATOM     22  N   UNL     1       5.267   3.857  16.593  0.00  0.00    +0.000 NA
ATOM     23  C   UNL     1       6.292   4.564  16.035  0.00  0.00    +0.000 A 
ATOM     24  C   UNL     1       7.206   5.277  16.814  0.00  0.00    +0.000 A 
BRANCH  23  25
ATOM     25  C   UNL     1       6.457   4.576  14.522  0.00  0.00    +0.000 C 
ATOM     26  F   UNL     1       6.457   3.342  13.943  0.00  0.00    +0.000 F 
ATOM     27  F   UNL     1       5.469   5.279  13.893  0.00  0.00    +0.000 F 
ATOM     28  F   UNL     1       7.624   5.167  14.133  0.00  0.00    +0.000 F 
ENDBRANCH  23  25
BRANCH  19  29
ATOM     29  C   UNL     1       8.021   6.048  19.075  0.00  0.00    +0.000 C 
BRANCH  29  30
ATOM     30  N   UNL     1       8.079   5.492  20.421  0.00  0.00    +0.000 NA
ATOM     31  H   UNL     1       8.117   4.476  20.363  0.00  0.00    +0.000 HD
ATOM     32  H   UNL     1       7.219   5.714  20.918  0.00  0.00    +0.000 HD
ENDBRANCH  29  30
ENDBRANCH  19  29
ENDBRANCH  18  21
ENDBRANCH   1  18
TORSDOF 7
ENDMDL
MODEL 8
REMARK VINA RESULT:      -8.0      2.275      3.876
REMARK  Name = 
REMARK  7 active torsions:
REMARK  status: ('A' for Active; 'I' for Inactive)
REMARK    1  A    between atoms: N_1  and  C_2
REMARK    2  A    between atoms: C_2  and  C_3
REMARK    3  A    between atoms: C_5  and  O_6
REMARK    4  A    between atoms: O_6  and  C_7
REMARK    5  A    between atoms: C_11  and  C_12
REMARK    6  A    between atoms: C_16  and  N_17
REMARK    7  A    between atoms: C_25  and  C_26
REMARK                            x       y       z     vdW  Elec       q    Type
REMARK                         _______ _______ _______ _____ _____    ______ ____
ROOT
ATOM      1  C   UNL     1       2.945   3.720  18.585  0.00  0.00    +0.000 A 
ATOM      2  C   UNL     1       2.238   2.884  19.453  0.00  0.00    +0.000 A 
ATOM      3  C   UNL     1       1.394   3.428  20.423  0.00  0.00    +0.000 A 
ATOM      4  C   UNL     1       1.277   4.815  20.545  0.00  0.00    +0.000 A 
ATOM      5  C   UNL     1       1.954   5.652  19.652  0.00  0.00    +0.000 A 
ATOM      6  C   UNL     1       2.736   5.099  18.633  0.00  0.00    +0.000 A 
ENDROOT
BRANCH   5   7
ATOM      7  C   UNL     1       1.973   7.122  19.891  0.00  0.00    +0.000 C 
ATOM      8  O   UNL     1       1.845   7.561  21.029  0.00  0.00    +0.000 OA
ATOM      9  N   UNL     1       2.228   7.914  18.785  0.00  0.00    +0.000 N 
ATOM     10  C   UNL     1       2.455   9.360  18.834  0.00  0.00    +0.000 C 
ATOM     11  C   UNL     1       1.358   9.544  17.785  0.00  0.00    +0.000 C 
ATOM     12  C   UNL     1       1.295   8.015  17.656  0.00  0.00    +0.000 C 
BRANCH  11  13
ATOM     13  N   UNL     1       0.124  10.094  18.287  0.00  0.00    +0.000 N 
ATOM     14  C   UNL     1      -0.072  10.763  19.466  0.00  0.00    +0.000 A 
ATOM     15  C   UNL     1      -1.403  11.104  19.505  0.00  0.00    +0.000 A 
ATOM     16  C   UNL     1      -1.931  10.583  18.311  0.00  0.00    +0.000 A 
ATOM     17  N   UNL     1      -1.010   9.975  17.565  0.00  0.00    +0.000 NA
ENDBRANCH  11  13
ENDBRANCH   5   7
BRANCH   1  18
ATOM     18  O   UNL     1       3.812   3.098  17.714  0.00  0.00    +0.000 OA
BRANCH  18  21
ATOM     19  C   UNL     1       6.357   4.565  15.470  0.00  0.00    +0.000 A 
ATOM     20  C   UNL     1       5.174   3.936  15.864  0.00  0.00    +0.000 A 
ATOM     21  C   UNL     1       4.907   3.778  17.220  0.00  0.00    +0.000 A 
ATOM     22  N   UNL     1       5.689   4.314  18.181  0.00  0.00    +0.000 NA
ATOM     23  C   UNL     1       6.816   4.981  17.800  0.00  0.00    +0.000 A 
ATOM     24  C   UNL     1       7.187   5.097  16.459  0.00  0.00    +0.000 A 
BRANCH  23  25
ATOM     25  C   UNL     1       7.696   5.629  18.860  0.00  0.00    +0.000 C 
ATOM     26  F   UNL     1       8.172   6.861  18.525  0.00  0.00    +0.000 F 
ATOM     27  F   UNL     1       7.047   5.794  20.051  0.00  0.00    +0.000 F 
ATOM     28  F   UNL     1       8.796   4.873  19.151  0.00  0.00    +0.000 F 
ENDBRANCH  23  25
BRANCH  19  29
ATOM     29  C   UNL     1       6.768   4.594  14.021  0.00  0.00    +0.000 C 
BRANCH  29  30
ATOM     30  N   UNL     1       6.284   3.405  13.332  0.00  0.00    +0.000 NA
ATOM     31  H   UNL     1       7.058   2.967  12.836  0.00  0.00    +0.000 HD
ATOM     32  H   UNL     1       5.610   3.676  12.619  0.00  0.00    +0.000 HD
ENDBRANCH  29  30
ENDBRANCH  19  29
ENDBRANCH  18  21
ENDBRANCH   1  18
TORSDOF 7
ENDMDL
MODEL 9
REMARK VINA RESULT:      -8.0      2.271      3.913
REMARK  Name = 
REMARK  7 active torsions:
REMARK  status: ('A' for Active; 'I' for Inactive)
REMARK    1  A    between atoms: N_1  and  C_2
REMARK    2  A    between atoms: C_2  and  C_3
REMARK    3  A    between atoms: C_5  and  O_6
REMARK    4  A    between atoms: O_6  and  C_7
REMARK    5  A    between atoms: C_11  and  C_12
REMARK    6  A    between atoms: C_16  and  N_17
REMARK    7  A    between atoms: C_25  and  C_26
REMARK                            x       y       z     vdW  Elec       q    Type
REMARK                         _______ _______ _______ _____ _____    ______ ____
ROOT
ATOM      1  C   UNL     1       2.917   3.975  18.541  0.00  0.00    +0.000 A 
ATOM      2  C   UNL     1       2.519   3.109  19.561  0.00  0.00    +0.000 A 
ATOM      3  C   UNL     1       1.858   3.603  20.687  0.00  0.00    +0.000 A 
ATOM      4  C   UNL     1       1.618   4.974  20.808  0.00  0.00    +0.000 A 
ATOM      5  C   UNL     1       1.981   5.838  19.770  0.00  0.00    +0.000 A 
ATOM      6  C   UNL     1       2.572   5.326  18.610  0.00  0.00    +0.000 A 
ENDROOT
BRANCH   5   7
ATOM      7  C   UNL     1       1.890   7.310  19.971  0.00  0.00    +0.000 C 
ATOM      8  O   UNL     1       1.652   7.765  21.086  0.00  0.00    +0.000 OA
ATOM      9  N   UNL     1       2.174   8.094  18.867  0.00  0.00    +0.000 N 
ATOM     10  C   UNL     1       2.305   9.553  18.895  0.00  0.00    +0.000 C 
ATOM     11  C   UNL     1       1.278   9.642  17.766  0.00  0.00    +0.000 C 
ATOM     12  C   UNL     1       1.321   8.111  17.672  0.00  0.00    +0.000 C 
BRANCH  11  13
ATOM     13  N   UNL     1      -0.021  10.122  18.164  0.00  0.00    +0.000 N 
ATOM     14  C   UNL     1      -1.207   9.966  17.497  0.00  0.00    +0.000 A 
ATOM     15  C   UNL     1      -2.170  10.580  18.264  0.00  0.00    +0.000 A 
ATOM     16  C   UNL     1      -1.464  11.091  19.366  0.00  0.00    +0.000 A 
ATOM     17  N   UNL     1      -0.162  10.811  19.316  0.00  0.00    +0.000 NA
ENDBRANCH  11  13
ENDBRANCH   5   7
BRANCH   1  18
ATOM     18  O   UNL     1       3.631   3.411  17.507  0.00  0.00    +0.000 OA
BRANCH  18  21
ATOM     19  C   UNL     1       6.380   4.677  15.384  0.00  0.00    +0.000 A 
ATOM     20  C   UNL     1       5.133   4.145  15.723  0.00  0.00    +0.000 A 
ATOM     21  C   UNL     1       4.798   4.001  17.065  0.00  0.00    +0.000 A 
ATOM     22  N   UNL     1       5.580   4.463  18.063  0.00  0.00    +0.000 NA
ATOM     23  C   UNL     1       6.773   5.037  17.735  0.00  0.00    +0.000 A 
ATOM     24  C   UNL     1       7.209   5.131  16.412  0.00  0.00    +0.000 A 
BRANCH  23  25
ATOM     25  C   UNL     1       7.660   5.603  18.837  0.00  0.00    +0.000 C 
ATOM     26  F   UNL     1       7.045   5.733  20.046  0.00  0.00    +0.000 F 
ATOM     27  F   UNL     1       8.766   4.834  19.065  0.00  0.00    +0.000 F 
ATOM     28  F   UNL     1       8.139   6.844  18.529  0.00  0.00    +0.000 F 
ENDBRANCH  23  25
BRANCH  19  29
ATOM     29  C   UNL     1       6.851   4.681  13.954  0.00  0.00    +0.000 C 
BRANCH  29  30
ATOM     30  N   UNL     1       8.025   5.531  13.808  0.00  0.00    +0.000 NA
ATOM     31  H   UNL     1       8.780   5.162  14.383  0.00  0.00    +0.000 HD
ATOM     32  H   UNL     1       7.820   6.459  14.174  0.00  0.00    +0.000 HD
ENDBRANCH  29  30
ENDBRANCH  19  29
ENDBRANCH  18  21
ENDBRANCH   1  18
TORSDOF 7
ENDMDL
