MODEL 1
REMARK VINA RESULT:      -8.4      0.000      0.000
REMARK  Name = 
REMARK  1 active torsions:
REMARK  status: ('A' for Active; 'I' for Inactive)
REMARK    1  A    between atoms: O_1  and  C_2
REMARK                            x       y       z     vdW  Elec       q    Type
REMARK                         _______ _______ _______ _____ _____    ______ ____
ROOT
ATOM      1  C   UNL     1       3.537   6.403  17.782  0.00  0.00    +0.000 C 
ATOM      2  C   UNL     1       2.598   6.396  19.021  0.00  0.00    +0.000 C 
ATOM      3  C   UNL     1       2.265   4.941  19.458  0.00  0.00    +0.000 C 
ATOM      4  C   UNL     1       1.334   4.829  20.644  0.00  0.00    +0.000 C 
ATOM      5  C   UNL     1       1.129   3.337  20.969  0.00  0.00    +0.000 C 
ATOM      6  C   UNL     1       2.469   2.658  21.269  0.00  0.00    +0.000 C 
ATOM      7  N   UNL     1       3.429   2.814  20.181  0.00  0.00    +0.000 NA
ATOM      8  C   UNL     1       3.382   1.762  19.143  0.00  0.00    +0.000 C 
ATOM      9  C   UNL     1       3.556   2.136  17.641  0.00  0.00    +0.000 C 
ATOM     10  C   UNL     1       4.347   3.377  17.482  0.00  0.00    +0.000 A 
ATOM     11  C   UNL     1       4.384   4.283  18.524  0.00  0.00    +0.000 A 
ATOM     12  N   UNL     1       4.708   5.499  17.948  0.00  0.00    +0.000 N 
ATOM     13  C   UNL     1       5.583   5.166  16.924  0.00  0.00    +0.000 A 
ATOM     14  C   UNL     1       6.692   5.816  16.385  0.00  0.00    +0.000 A 
ATOM     15  C   UNL     1       7.189   5.308  15.182  0.00  0.00    +0.000 A 
ATOM     16  C   UNL     1       6.538   4.266  14.518  0.00  0.00    +0.000 A 
ATOM     17  C   UNL     1       5.489   3.566  15.130  0.00  0.00    +0.000 A 
ATOM     18  C   UNL     1       5.108   3.945  16.429  0.00  0.00    +0.000 A 
ATOM     19  C   UNL     1       3.598   4.208  19.770  0.00  0.00    +0.000 C 
ENDROOT
BRANCH   1  20
ATOM     20  O   UNL     1       3.942   7.727  17.486  0.00  0.00    +0.000 OA
ATOM     21  H   UNL     1       3.126   8.258  17.408  0.00  0.00    +0.000 HD
ENDBRANCH   1  20
TORSDOF 1
ENDMDL
MODEL 2
REMARK VINA RESULT:      -7.0      1.876      4.718
REMARK  Name = 
REMARK  1 active torsions:
REMARK  status: ('A' for Active; 'I' for Inactive)
REMARK    1  A    between atoms: O_1  and  C_2
REMARK                            x       y       z     vdW  Elec       q    Type
REMARK                         _______ _______ _______ _____ _____    ______ ____
ROOT
ATOM      1  C   UNL     1       4.234   6.421  17.810  0.00  0.00    +0.000 C 
ATOM      2  C   UNL     1       4.670   5.002  17.348  0.00  0.00    +0.000 C 
ATOM      3  C   UNL     1       3.917   3.901  18.149  0.00  0.00    +0.000 C 
ATOM      4  C   UNL     1       4.294   2.482  17.789  0.00  0.00    +0.000 C 
ATOM      5  C   UNL     1       3.446   1.518  18.641  0.00  0.00    +0.000 C 
ATOM      6  C   UNL     1       1.951   1.756  18.404  0.00  0.00    +0.000 C 
ATOM      7  N   UNL     1       1.561   3.139  18.661  0.00  0.00    +0.000 NA
ATOM      8  C   UNL     1       1.160   3.433  20.053  0.00  0.00    +0.000 C 
ATOM      9  C   UNL     1       1.583   4.775  20.722  0.00  0.00    +0.000 C 
ATOM     10  C   UNL     1       1.799   5.836  19.714  0.00  0.00    +0.000 A 
ATOM     11  C   UNL     1       2.114   5.474  18.420  0.00  0.00    +0.000 A 
ATOM     12  N   UNL     1       2.754   6.571  17.871  0.00  0.00    +0.000 N 
ATOM     13  C   UNL     1       2.108   7.659  18.440  0.00  0.00    +0.000 A 
ATOM     14  C   UNL     1       1.796   8.928  17.955  0.00  0.00    +0.000 A 
ATOM     15  C   UNL     1       1.362   9.866  18.895  0.00  0.00    +0.000 A 
ATOM     16  C   UNL     1       1.342   9.561  20.259  0.00  0.00    +0.000 A 
ATOM     17  C   UNL     1       1.562   8.251  20.707  0.00  0.00    +0.000 A 
ATOM     18  C   UNL     1       1.807   7.254  19.747  0.00  0.00    +0.000 A 
ATOM     19  C   UNL     1       2.392   4.105  17.943  0.00  0.00    +0.000 C 
ENDROOT
BRANCH   1  20
ATOM     20  O   UNL     1       4.821   7.405  16.977  0.00  0.00    +0.000 OA
ATOM     21  H   UNL     1       5.114   6.946  16.166  0.00  0.00    +0.000 HD
ENDBRANCH   1  20
TORSDOF 1
ENDMDL
MODEL 3
REMARK VINA RESULT:      -6.9      2.221      5.546
REMARK  Name = 
REMARK  1 active torsions:
REMARK  status: ('A' for Active; 'I' for Inactive)
REMARK    1  A    between atoms: O_1  and  C_2
REMARK                            x       y       z     vdW  Elec       q    Type
REMARK                         _______ _______ _______ _____ _____    ______ ____
ROOT
ATOM      1  C   UNL     1       1.684   4.793  19.176  0.00  0.00    +0.000 C 
ATOM      2  C   UNL     1       2.522   3.582  18.678  0.00  0.00    +0.000 C 
ATOM      3  C   UNL     1       3.627   4.042  17.685  0.00  0.00    +0.000 C 
ATOM      4  C   UNL     1       4.482   2.928  17.122  0.00  0.00    +0.000 C 
ATOM      5  C   UNL     1       5.539   3.545  16.187  0.00  0.00    +0.000 C 
ATOM      6  C   UNL     1       6.404   4.561  16.941  0.00  0.00    +0.000 C 
ATOM      7  N   UNL     1       5.608   5.610  17.571  0.00  0.00    +0.000 NA
ATOM      8  C   UNL     1       5.345   6.796  16.727  0.00  0.00    +0.000 C 
ATOM      9  C   UNL     1       3.951   7.489  16.765  0.00  0.00    +0.000 C 
ATOM     10  C   UNL     1       3.275   7.269  18.062  0.00  0.00    +0.000 A 
ATOM     11  C   UNL     1       3.620   6.167  18.817  0.00  0.00    +0.000 A 
ATOM     12  N   UNL     1       2.535   5.923  19.641  0.00  0.00    +0.000 N 
ATOM     13  C   UNL     1       2.049   7.187  19.942  0.00  0.00    +0.000 A 
ATOM     14  C   UNL     1       1.451   7.718  21.084  0.00  0.00    +0.000 A 
ATOM     15  C   UNL     1       0.849   8.972  20.947  0.00  0.00    +0.000 A 
ATOM     16  C   UNL     1       0.774   9.602  19.701  0.00  0.00    +0.000 A 
ATOM     17  C   UNL     1       1.469   9.095  18.595  0.00  0.00    +0.000 A 
ATOM     18  C   UNL     1       2.242   7.934  18.773  0.00  0.00    +0.000 A 
ATOM     19  C   UNL     1       4.530   5.080  18.405  0.00  0.00    +0.000 C 
ENDROOT
BRANCH   1  20
ATOM     20  O   UNL     1       0.780   4.377  20.184  0.00  0.00    +0.000 OA
ATOM     21  H   UNL     1      -0.111   4.393  19.783  0.00  0.00    +0.000 HD
ENDBRANCH   1  20
TORSDOF 1
ENDMDL
MODEL 4
REMARK VINA RESULT:      -6.9      1.854      5.743
REMARK  Name = 
REMARK  1 active torsions:
REMARK  status: ('A' for Active; 'I' for Inactive)
REMARK    1  A    between atoms: O_1  and  C_2
REMARK                            x       y       z     vdW  Elec       q    Type
REMARK                         _______ _______ _______ _____ _____    ______ ____
ROOT
ATOM      1  C   UNL     1       4.004   2.284  17.814  0.00  0.00    +0.000 C 
ATOM      2  C   UNL     1       4.948   2.743  16.667  0.00  0.00    +0.000 C 
ATOM      3  C   UNL     1       4.782   4.264  16.387  0.00  0.00    +0.000 C 
ATOM      4  C   UNL     1       5.642   4.803  15.266  0.00  0.00    +0.000 C 
ATOM      5  C   UNL     1       5.386   6.317  15.135  0.00  0.00    +0.000 C 
ATOM      6  C   UNL     1       5.700   7.036  16.450  0.00  0.00    +0.000 C 
ATOM      7  N   UNL     1       4.950   6.490  17.577  0.00  0.00    +0.000 NA
ATOM      8  C   UNL     1       3.628   7.108  17.814  0.00  0.00    +0.000 C 
ATOM      9  C   UNL     1       2.415   6.223  18.229  0.00  0.00    +0.000 C 
ATOM     10  C   UNL     1       2.855   4.994  18.924  0.00  0.00    +0.000 A 
ATOM     11  C   UNL     1       4.129   4.515  18.691  0.00  0.00    +0.000 A 
ATOM     12  N   UNL     1       4.085   3.169  19.008  0.00  0.00    +0.000 N 
ATOM     13  C   UNL     1       3.209   3.104  20.083  0.00  0.00    +0.000 A 
ATOM     14  C   UNL     1       3.163   2.287  21.211  0.00  0.00    +0.000 A 
ATOM     15  C   UNL     1       1.987   2.329  21.964  0.00  0.00    +0.000 A 
ATOM     16  C   UNL     1       0.887   3.079  21.539  0.00  0.00    +0.000 A 
ATOM     17  C   UNL     1       0.995   3.967  20.460  0.00  0.00    +0.000 A 
ATOM     18  C   UNL     1       2.239   4.078  19.815  0.00  0.00    +0.000 A 
ATOM     19  C   UNL     1       5.087   5.039  17.698  0.00  0.00    +0.000 C 
ENDROOT
BRANCH   1  20
ATOM     20  O   UNL     1       4.270   0.934  18.151  0.00  0.00    +0.000 OA
ATOM     21  H   UNL     1       3.590   0.395  17.703  0.00  0.00    +0.000 HD
ENDBRANCH   1  20
TORSDOF 1
ENDMDL
MODEL 5
REMARK VINA RESULT:      -6.8      2.086      5.568
REMARK  Name = 
REMARK  1 active torsions:
REMARK  status: ('A' for Active; 'I' for Inactive)
REMARK    1  A    between atoms: O_1  and  C_2
REMARK                            x       y       z     vdW  Elec       q    Type
REMARK                         _______ _______ _______ _____ _____    ______ ____
ROOT
ATOM      1  C   UNL     1       2.128   4.298  17.926  0.00  0.00    +0.000 C 
ATOM      2  C   UNL     1       3.034   3.298  17.155  0.00  0.00    +0.000 C 
ATOM      3  C   UNL     1       4.277   4.019  16.558  0.00  0.00    +0.000 C 
ATOM      4  C   UNL     1       5.208   3.130  15.764  0.00  0.00    +0.000 C 
ATOM      5  C   UNL     1       6.394   3.980  15.270  0.00  0.00    +0.000 C 
ATOM      6  C   UNL     1       7.133   4.619  16.451  0.00  0.00    +0.000 C 
ATOM      7  N   UNL     1       6.249   5.421  17.292  0.00  0.00    +0.000 NA
ATOM      8  C   UNL     1       6.116   6.839  16.896  0.00  0.00    +0.000 C 
ATOM      9  C   UNL     1       4.731   7.547  16.980  0.00  0.00    +0.000 C 
ATOM     10  C   UNL     1       3.865   6.921  18.003  0.00  0.00    +0.000 A 
ATOM     11  C   UNL     1       4.094   5.607  18.358  0.00  0.00    +0.000 A 
ATOM     12  N   UNL     1       2.897   5.147  18.878  0.00  0.00    +0.000 N 
ATOM     13  C   UNL     1       2.369   6.248  19.536  0.00  0.00    +0.000 A 
ATOM     14  C   UNL     1       1.604   6.375  20.694  0.00  0.00    +0.000 A 
ATOM     15  C   UNL     1       1.028   7.626  20.927  0.00  0.00    +0.000 A 
ATOM     16  C   UNL     1       1.141   8.656  19.990  0.00  0.00    +0.000 A 
ATOM     17  C   UNL     1       1.997   8.535  18.887  0.00  0.00    +0.000 A 
ATOM     18  C   UNL     1       2.736   7.347  18.749  0.00  0.00    +0.000 A 
ATOM     19  C   UNL     1       5.058   4.689  17.720  0.00  0.00    +0.000 C 
ENDROOT
BRANCH   1  20
ATOM     20  O   UNL     1       1.082   3.603  18.580  0.00  0.00    +0.000 OA
ATOM     21  H   UNL     1       1.247   2.651  18.436  0.00  0.00    +0.000 HD
ENDBRANCH   1  20
TORSDOF 1
ENDMDL
MODEL 6
REMARK VINA RESULT:      -6.3      6.571      8.790
REMARK  Name = 
REMARK  1 active torsions:
REMARK  status: ('A' for Active; 'I' for Inactive)
REMARK    1  A    between atoms: O_1  and  C_2
REMARK                            x       y       z     vdW  Elec       q    Type
REMARK                         _______ _______ _______ _____ _____    ______ ____
ROOT
ATOM      1  C   UNL     1      -1.638  10.390  18.111  0.00  0.00    +0.000 C 
ATOM      2  C   UNL     1      -2.697  11.503  18.352  0.00  0.00    +0.000 C 
ATOM      3  C   UNL     1      -2.688  11.967  19.837  0.00  0.00    +0.000 C 
ATOM      4  C   UNL     1      -3.705  13.032  20.178  0.00  0.00    +0.000 C 
ATOM      5  C   UNL     1      -3.550  13.402  21.665  0.00  0.00    +0.000 C 
ATOM      6  C   UNL     1      -2.129  13.899  21.955  0.00  0.00    +0.000 C 
ATOM      7  N   UNL     1      -1.110  12.931  21.563  0.00  0.00    +0.000 NA
ATOM      8  C   UNL     1      -0.739  11.948  22.603  0.00  0.00    +0.000 C 
ATOM      9  C   UNL     1      -0.472  10.463  22.217  0.00  0.00    +0.000 C 
ATOM     10  C   UNL     1      -0.025  10.343  20.812  0.00  0.00    +0.000 A 
ATOM     11  C   UNL     1      -0.366  11.335  19.915  0.00  0.00    +0.000 A 
ATOM     12  N   UNL     1      -0.302  10.745  18.665  0.00  0.00    +0.000 N 
ATOM     13  C   UNL     1       0.757   9.855  18.765  0.00  0.00    +0.000 A 
ATOM     14  C   UNL     1       1.716   9.426  17.848  0.00  0.00    +0.000 A 
ATOM     15  C   UNL     1       2.484   8.320  18.221  0.00  0.00    +0.000 A 
ATOM     16  C   UNL     1       2.226   7.632  19.410  0.00  0.00    +0.000 A 
ATOM     17  C   UNL     1       1.327   8.143  20.357  0.00  0.00    +0.000 A 
ATOM     18  C   UNL     1       0.692   9.365  20.076  0.00  0.00    +0.000 A 
ATOM     19  C   UNL     1      -1.262  12.477  20.181  0.00  0.00    +0.000 C 
ENDROOT
BRANCH   1  20
ATOM     20  O   UNL     1      -1.562  10.082  16.731  0.00  0.00    +0.000 OA
ATOM     21  H   UNL     1      -1.194  10.871  16.289  0.00  0.00    +0.000 HD
ENDBRANCH   1  20
TORSDOF 1
ENDMDL
MODEL 7
REMARK VINA RESULT:      -6.1      1.812      5.724
REMARK  Name = 
REMARK  1 active torsions:
REMARK  status: ('A' for Active; 'I' for Inactive)
REMARK    1  A    between atoms: O_1  and  C_2
REMARK                            x       y       z     vdW  Elec       q    Type
REMARK                         _______ _______ _______ _____ _____    ______ ____
ROOT
ATOM      1  C   UNL     1       3.043   3.275  17.150  0.00  0.00    +0.000 C 
ATOM      2  C   UNL     1       4.008   2.864  16.002  0.00  0.00    +0.000 C 
ATOM      3  C   UNL     1       5.004   4.013  15.675  0.00  0.00    +0.000 C 
ATOM      4  C   UNL     1       5.969   3.718  14.549  0.00  0.00    +0.000 C 
ATOM      5  C   UNL     1       6.901   4.933  14.370  0.00  0.00    +0.000 C 
ATOM      6  C   UNL     1       7.659   5.231  15.668  0.00  0.00    +0.000 C 
ATOM      7  N   UNL     1       6.762   5.441  16.800  0.00  0.00    +0.000 NA
ATOM      8  C   UNL     1       6.316   6.835  17.002  0.00  0.00    +0.000 C 
ATOM      9  C   UNL     1       4.848   7.133  17.428  0.00  0.00    +0.000 C 
ATOM     10  C   UNL     1       4.258   5.994  18.165  0.00  0.00    +0.000 A 
ATOM     11  C   UNL     1       4.772   4.729  17.962  0.00  0.00    +0.000 A 
ATOM     12  N   UNL     1       3.762   3.854  18.318  0.00  0.00    +0.000 N 
ATOM     13  C   UNL     1       3.131   4.481  19.383  0.00  0.00    +0.000 A 
ATOM     14  C   UNL     1       2.517   3.991  20.535  0.00  0.00    +0.000 A 
ATOM     15  C   UNL     1       1.755   4.902  21.271  0.00  0.00    +0.000 A 
ATOM     16  C   UNL     1       1.549   6.206  20.810  0.00  0.00    +0.000 A 
ATOM     17  C   UNL     1       2.258   6.700  19.707  0.00  0.00    +0.000 A 
ATOM     18  C   UNL     1       3.179   5.847  19.074  0.00  0.00    +0.000 A 
ATOM     19  C   UNL     1       5.795   4.356  16.966  0.00  0.00    +0.000 C 
ENDROOT
BRANCH   1  20
ATOM     20  O   UNL     1       2.241   2.171  17.529  0.00  0.00    +0.000 OA
ATOM     21  H   UNL     1       2.312   2.094  18.500  0.00  0.00    +0.000 HD
ENDBRANCH   1  20
TORSDOF 1
ENDMDL
MODEL 8
REMARK VINA RESULT:      -6.1     10.463     12.103
REMARK  Name = 
REMARK  1 active torsions:
REMARK  status: ('A' for Active; 'I' for Inactive)
REMARK    1  A    between atoms: O_1  and  C_2
REMARK                            x       y       z     vdW  Elec       q    Type
REMARK                         _______ _______ _______ _____ _____    ______ ____
ROOT
ATOM      1  C   UNL     1       7.775  13.681  17.870  0.00  0.00    +0.000 C 
ATOM      2  C   UNL     1       6.722  14.823  17.841  0.00  0.00    +0.000 C 
ATOM      3  C   UNL     1       6.944  15.814  19.020  0.00  0.00    +0.000 C 
ATOM      4  C   UNL     1       5.949  16.950  19.093  0.00  0.00    +0.000 C 
ATOM      5  C   UNL     1       6.320  17.852  20.285  0.00  0.00    +0.000 C 
ATOM      6  C   UNL     1       7.746  18.392  20.134  0.00  0.00    +0.000 C 
ATOM      7  N   UNL     1       8.731  17.327  19.977  0.00  0.00    +0.000 NA
ATOM      8  C   UNL     1       9.301  16.804  21.236  0.00  0.00    +0.000 C 
ATOM      9  C   UNL     1       9.566  15.277  21.401  0.00  0.00    +0.000 C 
ATOM     10  C   UNL     1       9.793  14.625  20.093  0.00  0.00    +0.000 A 
ATOM     11  C   UNL     1       9.274  15.211  18.956  0.00  0.00    +0.000 A 
ATOM     12  N   UNL     1       9.165  14.190  18.027  0.00  0.00    +0.000 N 
ATOM     13  C   UNL     1      10.263  13.382  18.283  0.00  0.00    +0.000 A 
ATOM     14  C   UNL     1      11.084  12.618  17.454  0.00  0.00    +0.000 A 
ATOM     15  C   UNL     1      11.947  11.720  18.087  0.00  0.00    +0.000 A 
ATOM     16  C   UNL     1      11.907  11.539  19.473  0.00  0.00    +0.000 A 
ATOM     17  C   UNL     1      11.147  12.389  20.288  0.00  0.00    +0.000 A 
ATOM     18  C   UNL     1      10.425  13.426  19.674  0.00  0.00    +0.000 A 
ATOM     19  C   UNL     1       8.383  16.387  18.912  0.00  0.00    +0.000 C 
ENDROOT
BRANCH   1  20
ATOM     20  O   UNL     1       7.647  12.872  16.715  0.00  0.00    +0.000 OA
ATOM     21  H   UNL     1       6.858  12.312  16.852  0.00  0.00    +0.000 HD
ENDBRANCH   1  20
TORSDOF 1
ENDMDL
MODEL 9
REMARK VINA RESULT:      -6.1     10.066     12.245
REMARK  Name = 
REMARK  1 active torsions:
REMARK  status: ('A' for Active; 'I' for Inactive)
REMARK    1  A    between atoms: O_1  and  C_2
REMARK                            x       y       z     vdW  Elec       q    Type
REMARK                         _______ _______ _______ _____ _____    ______ ____
ROOT
ATOM      1  C   UNL     1      -6.304  10.925  19.460  0.00  0.00    +0.000 C 
ATOM      2  C   UNL     1      -7.112  11.617  20.593  0.00  0.00    +0.000 C 
ATOM      3  C   UNL     1      -6.180  12.478  21.494  0.00  0.00    +0.000 C 
ATOM      4  C   UNL     1      -6.872  13.173  22.645  0.00  0.00    +0.000 C 
ATOM      5  C   UNL     1      -5.827  14.002  23.417  0.00  0.00    +0.000 C 
ATOM      6  C   UNL     1      -5.156  15.024  22.493  0.00  0.00    +0.000 C 
ATOM      7  N   UNL     1      -4.546  14.401  21.323  0.00  0.00    +0.000 NA
ATOM      8  C   UNL     1      -3.143  13.970  21.497  0.00  0.00    +0.000 C 
ATOM      9  C   UNL     1      -2.655  12.627  20.876  0.00  0.00    +0.000 C 
ATOM     10  C   UNL     1      -3.462  12.254  19.693  0.00  0.00    +0.000 A 
ATOM     11  C   UNL     1      -4.746  12.747  19.579  0.00  0.00    +0.000 A 
ATOM     12  N   UNL     1      -5.408  11.871  18.738  0.00  0.00    +0.000 N 
ATOM     13  C   UNL     1      -4.439  11.478  17.827  0.00  0.00    +0.000 A 
ATOM     14  C   UNL     1      -4.496  11.156  16.472  0.00  0.00    +0.000 A 
ATOM     15  C   UNL     1      -3.360  10.553  15.926  0.00  0.00    +0.000 A 
ATOM     16  C   UNL     1      -2.271  10.208  16.731  0.00  0.00    +0.000 A 
ATOM     17  C   UNL     1      -2.198  10.634  18.065  0.00  0.00    +0.000 A 
ATOM     18  C   UNL     1      -3.253  11.414  18.570  0.00  0.00    +0.000 A 
ATOM     19  C   UNL     1      -5.471  13.530  20.599  0.00  0.00    +0.000 C 
ENDROOT
BRANCH   1  20
ATOM     20  O   UNL     1      -7.185  10.263  18.570  0.00  0.00    +0.000 OA
ATOM     21  H   UNL     1      -7.927  10.876  18.403  0.00  0.00    +0.000 HD
ENDBRANCH   1  20
TORSDOF 1
ENDMDL
