MODEL 1
REMARK VINA RESULT:      -7.0      0.000      0.000
REMARK  Name = 
REMARK  6 active torsions:
REMARK  status: ('A' for Active; 'I' for Inactive)
REMARK    1  A    between atoms: C_1  and  C_2
REMARK    2  A    between atoms: C_2  and  O_3
REMARK    3  A    between atoms: O_3  and  C_4
REMARK    4  A    between atoms: C_4  and  C_5
REMARK    5  A    between atoms: C_5  and  C_6
REMARK    6  A    between atoms: N_11  and  C_12
REMARK                            x       y       z     vdW  Elec       q    Type
REMARK                         _______ _______ _______ _____ _____    ______ ____
ROOT
ATOM      1  C   UNL     1       6.679   5.158  15.488  0.00  0.00    +0.000 C 
ATOM      2  O   UNL     1       7.682   5.828  15.746  0.00  0.00    +0.000 OA
ATOM      3  N   UNL     1       5.929   4.559  16.481  0.00  0.00    +0.000 N 
ATOM      4  C   UNL     1       6.292   4.775  17.887  0.00  0.00    +0.000 C 
ATOM      5  C   UNL     1       5.068   5.195  18.723  0.00  0.00    +0.000 C 
ATOM      6  N   UNL     1       3.993   4.206  18.533  0.00  0.00    +0.000 N 
ATOM      7  C   UNL     1       3.587   4.011  17.128  0.00  0.00    +0.000 C 
ATOM      8  C   UNL     1       4.813   3.621  16.279  0.00  0.00    +0.000 C 
ENDROOT
BRANCH   6   9
ATOM      9  C   UNL     1       3.197   3.776  19.576  0.00  0.00    +0.000 A 
ATOM     10  C   UNL     1       3.619   2.799  20.493  0.00  0.00    +0.000 A 
ATOM     11  C   UNL     1       2.775   2.326  21.502  0.00  0.00    +0.000 A 
ATOM     12  C   UNL     1       1.488   2.828  21.608  0.00  0.00    +0.000 A 
ATOM     13  F   UNL     1       0.668   2.365  22.561  0.00  0.00    +0.000 F 
ATOM     14  C   UNL     1       1.035   3.800  20.730  0.00  0.00    +0.000 A 
ATOM     15  C   UNL     1       1.889   4.267  19.727  0.00  0.00    +0.000 A 
ENDBRANCH   6   9
BRANCH   1  16
ATOM     16  C   UNL     1       6.195   4.992  14.064  0.00  0.00    +0.000 C 
BRANCH  16  17
ATOM     17  C   UNL     1       7.321   4.497  13.170  0.00  0.00    +0.000 C 
BRANCH  17  18
ATOM     18  O   UNL     1       6.759   3.984  11.961  0.00  0.00    +0.000 OA
BRANCH  18  20
ATOM     19  C   UNL     1       4.539   3.256  11.454  0.00  0.00    +0.000 C 
ATOM     20  C   UNL     1       5.801   2.963  12.239  0.00  0.00    +0.000 C 
ENDBRANCH  18  20
ENDBRANCH  17  18
ENDBRANCH  16  17
ENDBRANCH   1  16
TORSDOF 5
ENDMDL
MODEL 2
REMARK VINA RESULT:      -6.9      0.137      1.078
REMARK  Name = 
REMARK  6 active torsions:
REMARK  status: ('A' for Active; 'I' for Inactive)
REMARK    1  A    between atoms: C_1  and  C_2
REMARK    2  A    between atoms: C_2  and  O_3
REMARK    3  A    between atoms: O_3  and  C_4
REMARK    4  A    between atoms: C_4  and  C_5
REMARK    5  A    between atoms: C_5  and  C_6
REMARK    6  A    between atoms: N_11  and  C_12
REMARK                            x       y       z     vdW  Elec       q    Type
REMARK                         _______ _______ _______ _____ _____    ______ ____
ROOT
ATOM      1  C   UNL     1       6.693   5.148  15.533  0.00  0.00    +0.000 C 
ATOM      2  O   UNL     1       7.691   5.802  15.846  0.00  0.00    +0.000 OA
ATOM      3  N   UNL     1       5.911   4.517  16.480  0.00  0.00    +0.000 N 
ATOM      4  C   UNL     1       6.232   4.679  17.903  0.00  0.00    +0.000 C 
ATOM      5  C   UNL     1       4.984   5.075  18.717  0.00  0.00    +0.000 C 
ATOM      6  N   UNL     1       3.912   4.099  18.458  0.00  0.00    +0.000 N 
ATOM      7  C   UNL     1       3.547   3.958  17.035  0.00  0.00    +0.000 C 
ATOM      8  C   UNL     1       4.797   3.593  16.210  0.00  0.00    +0.000 C 
ENDROOT
BRANCH   6   9
ATOM      9  C   UNL     1       3.083   3.636  19.460  0.00  0.00    +0.000 A 
ATOM     10  C   UNL     1       1.735   4.016  19.559  0.00  0.00    +0.000 A 
ATOM     11  C   UNL     1       0.928   3.592  20.620  0.00  0.00    +0.000 A 
ATOM     12  C   UNL     1       1.464   2.775  21.602  0.00  0.00    +0.000 A 
ATOM     13  F   UNL     1       0.701   2.380  22.630  0.00  0.00    +0.000 F 
ATOM     14  C   UNL     1       2.787   2.368  21.536  0.00  0.00    +0.000 A 
ATOM     15  C   UNL     1       3.583   2.796  20.471  0.00  0.00    +0.000 A 
ENDBRANCH   6   9
BRANCH   1  16
ATOM     16  C   UNL     1       6.252   5.038  14.090  0.00  0.00    +0.000 C 
BRANCH  16  17
ATOM     17  C   UNL     1       7.386   4.515  13.222  0.00  0.00    +0.000 C 
BRANCH  17  18
ATOM     18  O   UNL     1       6.836   3.990  12.012  0.00  0.00    +0.000 OA
BRANCH  18  20
ATOM     19  C   UNL     1       4.614   3.264  11.511  0.00  0.00    +0.000 C 
ATOM     20  C   UNL     1       5.880   2.968  12.289  0.00  0.00    +0.000 C 
ENDBRANCH  18  20
ENDBRANCH  17  18
ENDBRANCH  16  17
ENDBRANCH   1  16
TORSDOF 5
ENDMDL
MODEL 3
REMARK VINA RESULT:      -6.4      1.055      1.248
REMARK  Name = 
REMARK  6 active torsions:
REMARK  status: ('A' for Active; 'I' for Inactive)
REMARK    1  A    between atoms: C_1  and  C_2
REMARK    2  A    between atoms: C_2  and  O_3
REMARK    3  A    between atoms: O_3  and  C_4
REMARK    4  A    between atoms: C_4  and  C_5
REMARK    5  A    between atoms: C_5  and  C_6
REMARK    6  A    between atoms: N_11  and  C_12
REMARK                            x       y       z     vdW  Elec       q    Type
REMARK                         _______ _______ _______ _____ _____    ______ ____
ROOT
ATOM      1  C   UNL     1       5.932   5.773  15.467  0.00  0.00    +0.000 C 
ATOM      2  O   UNL     1       5.569   6.807  14.901  0.00  0.00    +0.000 OA
ATOM      3  N   UNL     1       5.364   5.355  16.655  0.00  0.00    +0.000 N 
ATOM      4  C   UNL     1       4.252   6.123  17.230  0.00  0.00    +0.000 C 
ATOM      5  C   UNL     1       3.072   5.206  17.603  0.00  0.00    +0.000 C 
ATOM      6  N   UNL     1       3.560   4.124  18.475  0.00  0.00    +0.000 N 
ATOM      7  C   UNL     1       4.647   3.315  17.892  0.00  0.00    +0.000 C 
ATOM      8  C   UNL     1       5.820   4.231  17.487  0.00  0.00    +0.000 C 
ENDROOT
BRANCH   6   9
ATOM      9  C   UNL     1       2.840   3.678  19.566  0.00  0.00    +0.000 A 
ATOM     10  C   UNL     1       3.442   3.011  20.645  0.00  0.00    +0.000 A 
ATOM     11  C   UNL     1       2.688   2.505  21.709  0.00  0.00    +0.000 A 
ATOM     12  C   UNL     1       1.311   2.662  21.706  0.00  0.00    +0.000 A 
ATOM     13  F   UNL     1       0.582   2.164  22.713  0.00  0.00    +0.000 F 
ATOM     14  C   UNL     1       0.679   3.323  20.665  0.00  0.00    +0.000 A 
ATOM     15  C   UNL     1       1.443   3.826  19.609  0.00  0.00    +0.000 A 
ENDBRANCH   6   9
BRANCH   1  16
ATOM     16  C   UNL     1       6.997   4.884  14.863  0.00  0.00    +0.000 C 
BRANCH  16  17
ATOM     17  C   UNL     1       6.697   4.608  13.399  0.00  0.00    +0.000 C 
BRANCH  17  18
ATOM     18  O   UNL     1       5.701   3.586  13.317  0.00  0.00    +0.000 OA
BRANCH  18  20
ATOM     19  C   UNL     1       4.328   3.166  11.405  0.00  0.00    +0.000 C 
ATOM     20  C   UNL     1       5.698   2.981  12.024  0.00  0.00    +0.000 C 
ENDBRANCH  18  20
ENDBRANCH  17  18
ENDBRANCH  16  17
ENDBRANCH   1  16
TORSDOF 5
ENDMDL
MODEL 4
REMARK VINA RESULT:      -6.3      2.580      3.095
REMARK  Name = 
REMARK  6 active torsions:
REMARK  status: ('A' for Active; 'I' for Inactive)
REMARK    1  A    between atoms: C_1  and  C_2
REMARK    2  A    between atoms: C_2  and  O_3
REMARK    3  A    between atoms: O_3  and  C_4
REMARK    4  A    between atoms: C_4  and  C_5
REMARK    5  A    between atoms: C_5  and  C_6
REMARK    6  A    between atoms: N_11  and  C_12
REMARK                            x       y       z     vdW  Elec       q    Type
REMARK                         _______ _______ _______ _____ _____    ______ ____
ROOT
ATOM      1  C   UNL     1       6.625   4.955  15.445  0.00  0.00    +0.000 C 
ATOM      2  O   UNL     1       7.526   5.705  15.062  0.00  0.00    +0.000 OA
ATOM      3  N   UNL     1       5.794   5.294  16.496  0.00  0.00    +0.000 N 
ATOM      4  C   UNL     1       5.939   6.608  17.133  0.00  0.00    +0.000 C 
ATOM      5  C   UNL     1       4.581   7.325  17.252  0.00  0.00    +0.000 C 
ATOM      6  N   UNL     1       3.626   6.436  17.936  0.00  0.00    +0.000 N 
ATOM      7  C   UNL     1       3.436   5.128  17.281  0.00  0.00    +0.000 C 
ATOM      8  C   UNL     1       4.796   4.418  17.130  0.00  0.00    +0.000 C 
ENDROOT
BRANCH   6   9
ATOM      9  C   UNL     1       2.729   6.905  18.876  0.00  0.00    +0.000 A 
ATOM     10  C   UNL     1       2.199   8.204  18.830  0.00  0.00    +0.000 A 
ATOM     11  C   UNL     1       1.346   8.686  19.828  0.00  0.00    +0.000 A 
ATOM     12  C   UNL     1       1.009   7.866  20.893  0.00  0.00    +0.000 A 
ATOM     13  F   UNL     1       0.208   8.327  21.862  0.00  0.00    +0.000 F 
ATOM     14  C   UNL     1       1.503   6.573  20.972  0.00  0.00    +0.000 A 
ATOM     15  C   UNL     1       2.352   6.103  19.967  0.00  0.00    +0.000 A 
ENDBRANCH   6   9
BRANCH   1  16
ATOM     16  C   UNL     1       6.359   3.636  14.754  0.00  0.00    +0.000 C 
BRANCH  16  17
ATOM     17  C   UNL     1       5.670   3.861  13.418  0.00  0.00    +0.000 C 
BRANCH  17  18
ATOM     18  O   UNL     1       6.381   3.146  12.405  0.00  0.00    +0.000 OA
BRANCH  18  20
ATOM     19  C   UNL     1       4.231   3.209  11.361  0.00  0.00    +0.000 C 
ATOM     20  C   UNL     1       5.484   2.391  11.592  0.00  0.00    +0.000 C 
ENDBRANCH  18  20
ENDBRANCH  17  18
ENDBRANCH  16  17
ENDBRANCH   1  16
TORSDOF 5
ENDMDL
MODEL 5
REMARK VINA RESULT:      -6.2      4.208      7.490
REMARK  Name = 
REMARK  6 active torsions:
REMARK  status: ('A' for Active; 'I' for Inactive)
REMARK    1  A    between atoms: C_1  and  C_2
REMARK    2  A    between atoms: C_2  and  O_3
REMARK    3  A    between atoms: O_3  and  C_4
REMARK    4  A    between atoms: C_4  and  C_5
REMARK    5  A    between atoms: C_5  and  C_6
REMARK    6  A    between atoms: N_11  and  C_12
REMARK                            x       y       z     vdW  Elec       q    Type
REMARK                         _______ _______ _______ _____ _____    ______ ____
ROOT
ATOM      1  C   UNL     1       1.788   2.400  19.906  0.00  0.00    +0.000 C 
ATOM      2  O   UNL     1       0.645   2.103  19.548  0.00  0.00    +0.000 OA
ATOM      3  N   UNL     1       2.812   2.575  18.996  0.00  0.00    +0.000 N 
ATOM      4  C   UNL     1       2.525   2.472  17.560  0.00  0.00    +0.000 C 
ATOM      5  C   UNL     1       3.094   3.678  16.787  0.00  0.00    +0.000 C 
ATOM      6  N   UNL     1       4.527   3.815  17.098  0.00  0.00    +0.000 N 
ATOM      7  C   UNL     1       4.828   3.964  18.534  0.00  0.00    +0.000 C 
ATOM      8  C   UNL     1       4.234   2.777  19.318  0.00  0.00    +0.000 C 
ENDROOT
BRANCH   6   9
ATOM      9  C   UNL     1       5.461   4.138  16.132  0.00  0.00    +0.000 A 
ATOM     10  C   UNL     1       6.637   4.846  16.428  0.00  0.00    +0.000 A 
ATOM     11  C   UNL     1       7.537   5.225  15.427  0.00  0.00    +0.000 A 
ATOM     12  C   UNL     1       7.270   4.897  14.108  0.00  0.00    +0.000 A 
ATOM     13  F   UNL     1       8.119   5.273  13.143  0.00  0.00    +0.000 F 
ATOM     14  C   UNL     1       6.125   4.191  13.774  0.00  0.00    +0.000 A 
ATOM     15  C   UNL     1       5.235   3.815  14.783  0.00  0.00    +0.000 A 
ENDBRANCH   6   9
BRANCH   1  16
ATOM     16  C   UNL     1       2.116   2.626  21.365  0.00  0.00    +0.000 C 
BRANCH  16  17
ATOM     17  C   UNL     1       2.251   4.111  21.659  0.00  0.00    +0.000 C 
BRANCH  17  18
ATOM     18  O   UNL     1       1.371   4.835  20.797  0.00  0.00    +0.000 OA
BRANCH  18  20
ATOM     19  C   UNL     1       2.419   6.396  19.320  0.00  0.00    +0.000 C 
ATOM     20  C   UNL     1       1.780   6.197  20.679  0.00  0.00    +0.000 C 
ENDBRANCH  18  20
ENDBRANCH  17  18
ENDBRANCH  16  17
ENDBRANCH   1  16
TORSDOF 5
ENDMDL
MODEL 6
REMARK VINA RESULT:      -6.2      4.532      6.210
REMARK  Name = 
REMARK  6 active torsions:
REMARK  status: ('A' for Active; 'I' for Inactive)
REMARK    1  A    between atoms: C_1  and  C_2
REMARK    2  A    between atoms: C_2  and  O_3
REMARK    3  A    between atoms: O_3  and  C_4
REMARK    4  A    between atoms: C_4  and  C_5
REMARK    5  A    between atoms: C_5  and  C_6
REMARK    6  A    between atoms: N_11  and  C_12
REMARK                            x       y       z     vdW  Elec       q    Type
REMARK                         _______ _______ _______ _____ _____    ______ ____
ROOT
ATOM      1  C   UNL     1       4.166   4.648  17.496  0.00  0.00    +0.000 C 
ATOM      2  O   UNL     1       4.556   4.862  16.346  0.00  0.00    +0.000 OA
ATOM      3  N   UNL     1       3.735   5.670  18.321  0.00  0.00    +0.000 N 
ATOM      4  C   UNL     1       3.677   7.040  17.797  0.00  0.00    +0.000 C 
ATOM      5  C   UNL     1       2.312   7.694  18.092  0.00  0.00    +0.000 C 
ATOM      6  N   UNL     1       2.034   7.597  19.535  0.00  0.00    +0.000 N 
ATOM      7  C   UNL     1       2.046   6.221  20.066  0.00  0.00    +0.000 C 
ATOM      8  C   UNL     1       3.397   5.549  19.747  0.00  0.00    +0.000 C 
ENDROOT
BRANCH   6   9
ATOM      9  C   UNL     1       1.463   8.635  20.244  0.00  0.00    +0.000 A 
ATOM     10  C   UNL     1       1.213   8.557  21.624  0.00  0.00    +0.000 A 
ATOM     11  C   UNL     1       0.571   9.591  22.314  0.00  0.00    +0.000 A 
ATOM     12  C   UNL     1       0.169  10.725  21.626  0.00  0.00    +0.000 A 
ATOM     13  F   UNL     1      -0.463  11.710  22.277  0.00  0.00    +0.000 F 
ATOM     14  C   UNL     1       0.406  10.845  20.266  0.00  0.00    +0.000 A 
ATOM     15  C   UNL     1       1.050   9.807  19.588  0.00  0.00    +0.000 A 
ENDBRANCH   6   9
BRANCH   1  16
ATOM     16  C   UNL     1       4.101   3.242  18.051  0.00  0.00    +0.000 C 
BRANCH  16  17
ATOM     17  C   UNL     1       2.862   2.523  17.542  0.00  0.00    +0.000 C 
BRANCH  17  18
ATOM     18  O   UNL     1       1.801   2.709  18.482  0.00  0.00    +0.000 OA
BRANCH  18  20
ATOM     19  C   UNL     1       1.249   2.751  20.808  0.00  0.00    +0.000 C 
ATOM     20  C   UNL     1       2.134   2.133  19.744  0.00  0.00    +0.000 C 
ENDBRANCH  18  20
ENDBRANCH  17  18
ENDBRANCH  16  17
ENDBRANCH   1  16
TORSDOF 5
ENDMDL
MODEL 7
REMARK VINA RESULT:      -6.2      1.032      1.291
REMARK  Name = 
REMARK  6 active torsions:
REMARK  status: ('A' for Active; 'I' for Inactive)
REMARK    1  A    between atoms: C_1  and  C_2
REMARK    2  A    between atoms: C_2  and  O_3
REMARK    3  A    between atoms: O_3  and  C_4
REMARK    4  A    between atoms: C_4  and  C_5
REMARK    5  A    between atoms: C_5  and  C_6
REMARK    6  A    between atoms: N_11  and  C_12
REMARK                            x       y       z     vdW  Elec       q    Type
REMARK                         _______ _______ _______ _____ _____    ______ ____
ROOT
ATOM      1  C   UNL     1       6.899   4.757  15.019  0.00  0.00    +0.000 C 
ATOM      2  O   UNL     1       7.608   5.764  15.082  0.00  0.00    +0.000 OA
ATOM      3  N   UNL     1       6.157   4.320  16.100  0.00  0.00    +0.000 N 
ATOM      4  C   UNL     1       6.157   5.109  17.338  0.00  0.00    +0.000 C 
ATOM      5  C   UNL     1       4.722   5.361  17.841  0.00  0.00    +0.000 C 
ATOM      6  N   UNL     1       4.020   4.072  17.958  0.00  0.00    +0.000 N 
ATOM      7  C   UNL     1       3.973   3.289  16.709  0.00  0.00    +0.000 C 
ATOM      8  C   UNL     1       5.404   3.059  16.183  0.00  0.00    +0.000 C 
ENDROOT
BRANCH   6   9
ATOM      9  C   UNL     1       3.179   3.787  19.016  0.00  0.00    +0.000 A 
ATOM     10  C   UNL     1       3.084   4.613  20.147  0.00  0.00    +0.000 A 
ATOM     11  C   UNL     1       2.279   4.274  21.240  0.00  0.00    +0.000 A 
ATOM     12  C   UNL     1       1.553   3.094  21.213  0.00  0.00    +0.000 A 
ATOM     13  F   UNL     1       0.794   2.755  22.263  0.00  0.00    +0.000 F 
ATOM     14  C   UNL     1       1.611   2.255  20.111  0.00  0.00    +0.000 A 
ATOM     15  C   UNL     1       2.416   2.606  19.025  0.00  0.00    +0.000 A 
ENDBRANCH   6   9
BRANCH   1  16
ATOM     16  C   UNL     1       6.775   3.967  13.735  0.00  0.00    +0.000 C 
BRANCH  16  17
ATOM     17  C   UNL     1       5.366   4.074  13.175  0.00  0.00    +0.000 C 
BRANCH  17  18
ATOM     18  O   UNL     1       5.366   3.596  11.828  0.00  0.00    +0.000 OA
BRANCH  18  20
ATOM     19  C   UNL     1       3.522   3.834  10.326  0.00  0.00    +0.000 C 
ATOM     20  C   UNL     1       4.096   3.045  11.484  0.00  0.00    +0.000 C 
ENDBRANCH  18  20
ENDBRANCH  17  18
ENDBRANCH  16  17
ENDBRANCH   1  16
TORSDOF 5
ENDMDL
MODEL 8
REMARK VINA RESULT:      -6.1      4.489      6.070
REMARK  Name = 
REMARK  6 active torsions:
REMARK  status: ('A' for Active; 'I' for Inactive)
REMARK    1  A    between atoms: C_1  and  C_2
REMARK    2  A    between atoms: C_2  and  O_3
REMARK    3  A    between atoms: O_3  and  C_4
REMARK    4  A    between atoms: C_4  and  C_5
REMARK    5  A    between atoms: C_5  and  C_6
REMARK    6  A    between atoms: N_11  and  C_12
REMARK                            x       y       z     vdW  Elec       q    Type
REMARK                         _______ _______ _______ _____ _____    ______ ____
ROOT
ATOM      1  C   UNL     1       4.398   4.772  17.500  0.00  0.00    +0.000 C 
ATOM      2  O   UNL     1       4.739   4.992  16.336  0.00  0.00    +0.000 OA
ATOM      3  N   UNL     1       3.893   5.771  18.311  0.00  0.00    +0.000 N 
ATOM      4  C   UNL     1       3.692   7.115  17.757  0.00  0.00    +0.000 C 
ATOM      5  C   UNL     1       2.279   7.645  18.071  0.00  0.00    +0.000 C 
ATOM      6  N   UNL     1       2.046   7.560  19.523  0.00  0.00    +0.000 N 
ATOM      7  C   UNL     1       2.200   6.205  20.086  0.00  0.00    +0.000 C 
ATOM      8  C   UNL     1       3.601   5.656  19.749  0.00  0.00    +0.000 C 
ENDROOT
BRANCH   6   9
ATOM      9  C   UNL     1       1.396   8.558  20.222  0.00  0.00    +0.000 A 
ATOM     10  C   UNL     1       0.932   9.731  19.605  0.00  0.00    +0.000 A 
ATOM     11  C   UNL     1       0.337  10.762  20.340  0.00  0.00    +0.000 A 
ATOM     12  C   UNL     1       0.198  10.630  21.712  0.00  0.00    +0.000 A 
ATOM     13  F   UNL     1      -0.354  11.621  22.424  0.00  0.00    +0.000 F 
ATOM     14  C   UNL     1       0.633   9.484  22.359  0.00  0.00    +0.000 A 
ATOM     15  C   UNL     1       1.223   8.460  21.614  0.00  0.00    +0.000 A 
ENDBRANCH   6   9
BRANCH   1  16
ATOM     16  C   UNL     1       4.480   3.382  18.090  0.00  0.00    +0.000 C 
BRANCH  16  17
ATOM     17  C   UNL     1       3.349   2.511  17.567  0.00  0.00    +0.000 C 
BRANCH  17  18
ATOM     18  O   UNL     1       2.917   1.638  18.612  0.00  0.00    +0.000 OA
BRANCH  18  20
ATOM     19  C   UNL     1       0.817   2.660  19.124  0.00  0.00    +0.000 C 
ATOM     20  C   UNL     1       2.216   2.362  19.623  0.00  0.00    +0.000 C 
ENDBRANCH  18  20
ENDBRANCH  17  18
ENDBRANCH  16  17
ENDBRANCH   1  16
TORSDOF 5
ENDMDL
MODEL 9
REMARK VINA RESULT:      -6.1      3.822      5.470
REMARK  Name = 
REMARK  6 active torsions:
REMARK  status: ('A' for Active; 'I' for Inactive)
REMARK    1  A    between atoms: C_1  and  C_2
REMARK    2  A    between atoms: C_2  and  O_3
REMARK    3  A    between atoms: O_3  and  C_4
REMARK    4  A    between atoms: C_4  and  C_5
REMARK    5  A    between atoms: C_5  and  C_6
REMARK    6  A    between atoms: N_11  and  C_12
REMARK                            x       y       z     vdW  Elec       q    Type
REMARK                         _______ _______ _______ _____ _____    ______ ____
ROOT
ATOM      1  C   UNL     1       7.893   7.596  18.222  0.00  0.00    +0.000 C 
ATOM      2  O   UNL     1       8.827   7.360  18.992  0.00  0.00    +0.000 OA
ATOM      3  N   UNL     1       6.866   6.693  18.025  0.00  0.00    +0.000 N 
ATOM      4  C   UNL     1       6.846   5.447  18.801  0.00  0.00    +0.000 C 
ATOM      5  C   UNL     1       5.467   5.215  19.451  0.00  0.00    +0.000 C 
ATOM      6  N   UNL     1       4.427   5.284  18.410  0.00  0.00    +0.000 N 
ATOM      7  C   UNL     1       4.407   6.549  17.653  0.00  0.00    +0.000 C 
ATOM      8  C   UNL     1       5.792   6.804  17.025  0.00  0.00    +0.000 C 
ENDROOT
BRANCH   6   9
ATOM      9  C   UNL     1       3.353   4.417  18.387  0.00  0.00    +0.000 A 
ATOM     10  C   UNL     1       2.163   4.672  19.087  0.00  0.00    +0.000 A 
ATOM     11  C   UNL     1       1.111   3.750  19.109  0.00  0.00    +0.000 A 
ATOM     12  C   UNL     1       1.238   2.552  18.424  0.00  0.00    +0.000 A 
ATOM     13  F   UNL     1       0.241   1.658  18.455  0.00  0.00    +0.000 F 
ATOM     14  C   UNL     1       2.392   2.266  17.712  0.00  0.00    +0.000 A 
ATOM     15  C   UNL     1       3.435   3.195  17.696  0.00  0.00    +0.000 A 
ENDBRANCH   6   9
BRANCH   1  16
ATOM     16  C   UNL     1       7.806   8.911  17.479  0.00  0.00    +0.000 C 
BRANCH  16  17
ATOM     17  C   UNL     1       8.345  10.046  18.335  0.00  0.00    +0.000 C 
BRANCH  17  18
ATOM     18  O   UNL     1       9.581  10.498  17.778  0.00  0.00    +0.000 OA
BRANCH  18  20
ATOM     19  C   UNL     1      11.568  11.799  18.054  0.00  0.00    +0.000 C 
ATOM     20  C   UNL     1      10.283  11.327  18.703  0.00  0.00    +0.000 C 
ENDBRANCH  18  20
ENDBRANCH  17  18
ENDBRANCH  16  17
ENDBRANCH   1  16
TORSDOF 5
ENDMDL
