MODEL 1
REMARK VINA RESULT:      -6.8      0.000      0.000
REMARK  Name = 
REMARK  7 active torsions:
REMARK  status: ('A' for Active; 'I' for Inactive)
REMARK    1  A    between atoms: C_1  and  C_2
REMARK    2  A    between atoms: C_7  and  O_8
REMARK    3  A    between atoms: C_11  and  O_12
REMARK    4  A    between atoms: C_17  and  C_18
REMARK    5  A    between atoms: C_18  and  O_19
REMARK    6  A    between atoms: C_20  and  C_21
REMARK    7  A    between atoms: C_20  and  O_22
REMARK                            x       y       z     vdW  Elec       q    Type
REMARK                         _______ _______ _______ _____ _____    ______ ____
ROOT
ATOM      1  C   UNL     1       6.024   6.701  17.026  0.00  0.00    +0.000 C 
ATOM      2  C   UNL     1       5.666   5.207  17.234  0.00  0.00    +0.000 C 
ATOM      3  C   UNL     1       4.873   4.771  15.975  0.00  0.00    +0.000 C 
ATOM      4  C   UNL     1       4.065   3.568  16.383  0.00  0.00    +0.000 C 
ATOM      5  C   UNL     1       3.817   3.727  17.902  0.00  0.00    +0.000 C 
ATOM      6  O   UNL     1       4.628   2.561  18.294  0.00  0.00    +0.000 OA
ATOM      7  C   UNL     1       4.514   2.764  19.671  0.00  0.00    +0.000 C 
ATOM      8  C   UNL     1       5.237   4.141  19.699  0.00  0.00    +0.000 C 
ATOM      9  C   UNL     1       4.676   4.899  18.449  0.00  0.00    +0.000 C 
ATOM     10  C   UNL     1       3.935   6.232  18.711  0.00  0.00    +0.000 C 
ATOM     11  C   UNL     1       2.584   6.908  18.415  0.00  0.00    +0.000 C 
ATOM     12  O   UNL     1       2.462   8.127  18.532  0.00  0.00    +0.000 OA
ATOM     13  O   UNL     1       1.561   6.111  17.984  0.00  0.00    +0.000 OA
ATOM     14  C   UNL     1       1.643   4.669  17.657  0.00  0.00    +0.000 C 
ATOM     15  C   UNL     1       2.281   3.607  18.636  0.00  0.00    +0.000 C 
ATOM     16  C   UNL     1       2.946   2.565  19.656  0.00  0.00    +0.000 C 
ATOM     17  C   UNL     1       2.503   2.143  21.085  0.00  0.00    +0.000 C 
ENDROOT
BRANCH   7  18
ATOM     18  O   UNL     1       5.197   1.756  20.378  0.00  0.00    +0.000 OA
ATOM     19  H   UNL     1       4.760   1.624  21.234  0.00  0.00    +0.000 HD
ENDBRANCH   7  18
BRANCH  10  20
ATOM     20  O   UNL     1       3.596   6.075  20.075  0.00  0.00    +0.000 OA
ATOM     21  H   UNL     1       2.748   6.544  20.212  0.00  0.00    +0.000 HD
ENDBRANCH  10  20
BRANCH  16  22
ATOM     22  O   UNL     1       2.630   1.301  18.950  0.00  0.00    +0.000 OA
ATOM     23  H   UNL     1       3.233   1.296  18.176  0.00  0.00    +0.000 HD
ENDBRANCH  16  22
BRANCH  15  24
ATOM     24  C   UNL     1       1.457   4.336  19.854  0.00  0.00    +0.000 C 
BRANCH  24  25
ATOM     25  O   UNL     1       0.190   3.698  20.075  0.00  0.00    +0.000 OA
ATOM     26  H   UNL     1       0.018   3.078  19.348  0.00  0.00    +0.000 HD
ENDBRANCH  24  25
ENDBRANCH  15  24
TORSDOF 5
ENDMDL
MODEL 2
REMARK VINA RESULT:      -6.5      1.750      3.796
REMARK  Name = 
REMARK  7 active torsions:
REMARK  status: ('A' for Active; 'I' for Inactive)
REMARK    1  A    between atoms: C_1  and  C_2
REMARK    2  A    between atoms: C_7  and  O_8
REMARK    3  A    between atoms: C_11  and  O_12
REMARK    4  A    between atoms: C_17  and  C_18
REMARK    5  A    between atoms: C_18  and  O_19
REMARK    6  A    between atoms: C_20  and  C_21
REMARK    7  A    between atoms: C_20  and  O_22
REMARK                            x       y       z     vdW  Elec       q    Type
REMARK                         _______ _______ _______ _____ _____    ______ ____
ROOT
ATOM      1  C   UNL     1       2.939   7.810  17.340  0.00  0.00    +0.000 C 
ATOM      2  C   UNL     1       2.158   6.820  18.243  0.00  0.00    +0.000 C 
ATOM      3  C   UNL     1       2.509   7.198  19.705  0.00  0.00    +0.000 C 
ATOM      4  C   UNL     1       2.242   5.967  20.532  0.00  0.00    +0.000 C 
ATOM      5  C   UNL     1       2.439   4.769  19.573  0.00  0.00    +0.000 C 
ATOM      6  O   UNL     1       1.027   4.350  19.589  0.00  0.00    +0.000 OA
ATOM      7  C   UNL     1       1.165   3.342  18.631  0.00  0.00    +0.000 C 
ATOM      8  C   UNL     1       1.588   4.278  17.463  0.00  0.00    +0.000 C 
ATOM      9  C   UNL     1       2.590   5.287  18.117  0.00  0.00    +0.000 C 
ATOM     10  C   UNL     1       4.027   5.321  17.544  0.00  0.00    +0.000 C 
ATOM     11  C   UNL     1       5.488   5.190  18.014  0.00  0.00    +0.000 C 
ATOM     12  O   UNL     1       6.407   5.582  17.295  0.00  0.00    +0.000 OA
ATOM     13  O   UNL     1       5.706   4.670  19.258  0.00  0.00    +0.000 OA
ATOM     14  C   UNL     1       4.675   4.322  20.262  0.00  0.00    +0.000 C 
ATOM     15  C   UNL     1       3.423   3.420  19.921  0.00  0.00    +0.000 C 
ATOM     16  C   UNL     1       2.164   2.509  19.529  0.00  0.00    +0.000 C 
ATOM     17  C   UNL     1       2.108   1.028  19.061  0.00  0.00    +0.000 C 
ENDROOT
BRANCH   7  18
ATOM     18  O   UNL     1      -0.064   2.692  18.415  0.00  0.00    +0.000 OA
ATOM     19  H   UNL     1      -0.726   3.065  19.018  0.00  0.00    +0.000 HD
ENDBRANCH   7  18
BRANCH  10  20
ATOM     20  O   UNL     1       4.082   4.056  16.913  0.00  0.00    +0.000 OA
ATOM     21  H   UNL     1       4.819   3.564  17.329  0.00  0.00    +0.000 HD
ENDBRANCH  10  20
BRANCH  16  22
ATOM     22  O   UNL     1       1.566   2.332  20.875  0.00  0.00    +0.000 OA
ATOM     23  H   UNL     1       2.156   2.840  21.472  0.00  0.00    +0.000 HD
ENDBRANCH  16  22
BRANCH  15  24
ATOM     24  C   UNL     1       4.447   2.423  19.115  0.00  0.00    +0.000 C 
BRANCH  24  25
ATOM     25  O   UNL     1       5.314   1.726  20.024  0.00  0.00    +0.000 OA
ATOM     26  H   UNL     1       5.005   0.811  20.114  0.00  0.00    +0.000 HD
ENDBRANCH  24  25
ENDBRANCH  15  24
TORSDOF 5
ENDMDL
MODEL 3
REMARK VINA RESULT:      -6.3      1.874      3.857
REMARK  Name = 
REMARK  7 active torsions:
REMARK  status: ('A' for Active; 'I' for Inactive)
REMARK    1  A    between atoms: C_1  and  C_2
REMARK    2  A    between atoms: C_7  and  O_8
REMARK    3  A    between atoms: C_11  and  O_12
REMARK    4  A    between atoms: C_17  and  C_18
REMARK    5  A    between atoms: C_18  and  O_19
REMARK    6  A    between atoms: C_20  and  C_21
REMARK    7  A    between atoms: C_20  and  O_22
REMARK                            x       y       z     vdW  Elec       q    Type
REMARK                         _______ _______ _______ _____ _____    ______ ____
ROOT
ATOM      1  C   UNL     1       2.003   8.461  17.670  0.00  0.00    +0.000 C 
ATOM      2  C   UNL     1       1.718   7.188  18.508  0.00  0.00    +0.000 C 
ATOM      3  C   UNL     1       2.260   7.476  19.932  0.00  0.00    +0.000 C 
ATOM      4  C   UNL     1       2.505   6.133  20.568  0.00  0.00    +0.000 C 
ATOM      5  C   UNL     1       2.800   5.165  19.397  0.00  0.00    +0.000 C 
ATOM      6  O   UNL     1       1.583   4.355  19.582  0.00  0.00    +0.000 OA
ATOM      7  C   UNL     1       1.773   3.551  18.455  0.00  0.00    +0.000 C 
ATOM      8  C   UNL     1       1.679   4.700  17.411  0.00  0.00    +0.000 C 
ATOM      9  C   UNL     1       2.498   5.872  18.048  0.00  0.00    +0.000 C 
ATOM     10  C   UNL     1       3.721   6.388  17.253  0.00  0.00    +0.000 C 
ATOM     11  C   UNL     1       5.230   6.632  17.437  0.00  0.00    +0.000 C 
ATOM     12  O   UNL     1       5.842   7.355  16.650  0.00  0.00    +0.000 OA
ATOM     13  O   UNL     1       5.836   6.055  18.517  0.00  0.00    +0.000 OA
ATOM     14  C   UNL     1       5.169   5.306  19.607  0.00  0.00    +0.000 C 
ATOM     15  C   UNL     1       4.153   4.127  19.334  0.00  0.00    +0.000 C 
ATOM     16  C   UNL     1       3.122   2.943  19.012  0.00  0.00    +0.000 C 
ATOM     17  C   UNL     1       3.357   1.575  18.312  0.00  0.00    +0.000 C 
ENDROOT
BRANCH   7  18
ATOM     18  O   UNL     1       0.739   2.602  18.343  0.00  0.00    +0.000 OA
ATOM     19  H   UNL     1       0.758   2.027  19.123  0.00  0.00    +0.000 HD
ENDBRANCH   7  18
BRANCH  10  20
ATOM     20  O   UNL     1       3.969   5.277  16.413  0.00  0.00    +0.000 OA
ATOM     21  H   UNL     1       3.105   4.843  16.255  0.00  0.00    +0.000 HD
ENDBRANCH  10  20
BRANCH  16  22
ATOM     22  O   UNL     1       2.891   2.443  20.389  0.00  0.00    +0.000 OA
ATOM     23  H   UNL     1       3.668   1.875  20.576  0.00  0.00    +0.000 HD
ENDBRANCH  16  22
BRANCH  15  24
ATOM     24  C   UNL     1       5.207   3.572  18.206  0.00  0.00    +0.000 C 
BRANCH  24  25
ATOM     25  O   UNL     1       6.566   3.767  18.625  0.00  0.00    +0.000 OA
ATOM     26  H   UNL     1       6.738   4.719  18.701  0.00  0.00    +0.000 HD
ENDBRANCH  24  25
ENDBRANCH  15  24
TORSDOF 5
ENDMDL
MODEL 4
REMARK VINA RESULT:      -6.2      5.710      8.922
REMARK  Name = 
REMARK  7 active torsions:
REMARK  status: ('A' for Active; 'I' for Inactive)
REMARK    1  A    between atoms: C_1  and  C_2
REMARK    2  A    between atoms: C_7  and  O_8
REMARK    3  A    between atoms: C_11  and  O_12
REMARK    4  A    between atoms: C_17  and  C_18
REMARK    5  A    between atoms: C_18  and  O_19
REMARK    6  A    between atoms: C_20  and  C_21
REMARK    7  A    between atoms: C_20  and  O_22
REMARK                            x       y       z     vdW  Elec       q    Type
REMARK                         _______ _______ _______ _____ _____    ______ ____
ROOT
ATOM      1  C   UNL     1       2.047   8.844  17.981  0.00  0.00    +0.000 C 
ATOM      2  C   UNL     1       1.253  10.165  17.812  0.00  0.00    +0.000 C 
ATOM      3  C   UNL     1       2.250  11.313  18.116  0.00  0.00    +0.000 C 
ATOM      4  C   UNL     1       1.414  12.503  18.503  0.00  0.00    +0.000 C 
ATOM      5  C   UNL     1       0.110  11.922  19.100  0.00  0.00    +0.000 C 
ATOM      6  O   UNL     1      -0.765  12.419  18.024  0.00  0.00    +0.000 OA
ATOM      7  C   UNL     1      -1.928  11.797  18.485  0.00  0.00    +0.000 C 
ATOM      8  C   UNL     1      -1.411  10.338  18.330  0.00  0.00    +0.000 C 
ATOM      9  C   UNL     1       0.063  10.390  18.854  0.00  0.00    +0.000 C 
ATOM     10  C   UNL     1       0.411   9.488  20.061  0.00  0.00    +0.000 C 
ATOM     11  C   UNL     1       1.018   9.588  21.473  0.00  0.00    +0.000 C 
ATOM     12  O   UNL     1       1.423   8.578  22.047  0.00  0.00    +0.000 OA
ATOM     13  O   UNL     1       1.121  10.833  22.028  0.00  0.00    +0.000 OA
ATOM     14  C   UNL     1       0.817  12.122  21.366  0.00  0.00    +0.000 C 
ATOM     15  C   UNL     1      -0.542  12.390  20.606  0.00  0.00    +0.000 C 
ATOM     16  C   UNL     1      -1.930  12.616  19.837  0.00  0.00    +0.000 C 
ATOM     17  C   UNL     1      -3.385  12.634  20.384  0.00  0.00    +0.000 C 
ENDROOT
BRANCH   7  18
ATOM     18  O   UNL     1      -3.017  12.101  17.648  0.00  0.00    +0.000 OA
ATOM     19  H   UNL     1      -2.709  12.675  16.930  0.00  0.00    +0.000 HD
ENDBRANCH   7  18
BRANCH  10  20
ATOM     20  O   UNL     1      -0.880   9.264  20.596  0.00  0.00    +0.000 OA
ATOM     21  H   UNL     1      -1.502   9.806  20.069  0.00  0.00    +0.000 HD
ENDBRANCH  10  20
BRANCH  16  22
ATOM     22  O   UNL     1      -1.800  14.060  19.524  0.00  0.00    +0.000 OA
ATOM     23  H   UNL     1      -2.362  14.189  18.730  0.00  0.00    +0.000 HD
ENDBRANCH  16  22
BRANCH  15  24
ATOM     24  C   UNL     1      -1.310  11.681  21.870  0.00  0.00    +0.000 C 
BRANCH  24  25
ATOM     25  O   UNL     1      -0.947  12.303  23.112  0.00  0.00    +0.000 OA
ATOM     26  H   UNL     1      -1.675  12.874  23.403  0.00  0.00    +0.000 HD
ENDBRANCH  24  25
ENDBRANCH  15  24
TORSDOF 5
ENDMDL
MODEL 5
REMARK VINA RESULT:      -6.2      1.992      4.843
REMARK  Name = 
REMARK  7 active torsions:
REMARK  status: ('A' for Active; 'I' for Inactive)
REMARK    1  A    between atoms: C_1  and  C_2
REMARK    2  A    between atoms: C_7  and  O_8
REMARK    3  A    between atoms: C_11  and  O_12
REMARK    4  A    between atoms: C_17  and  C_18
REMARK    5  A    between atoms: C_18  and  O_19
REMARK    6  A    between atoms: C_20  and  C_21
REMARK    7  A    between atoms: C_20  and  O_22
REMARK                            x       y       z     vdW  Elec       q    Type
REMARK                         _______ _______ _______ _____ _____    ______ ____
ROOT
ATOM      1  C   UNL     1       2.557   4.576  21.173  0.00  0.00    +0.000 C 
ATOM      2  C   UNL     1       3.060   5.532  20.061  0.00  0.00    +0.000 C 
ATOM      3  C   UNL     1       1.879   5.704  19.070  0.00  0.00    +0.000 C 
ATOM      4  C   UNL     1       2.488   6.133  17.762  0.00  0.00    +0.000 C 
ATOM      5  C   UNL     1       3.920   5.546  17.755  0.00  0.00    +0.000 C 
ATOM      6  O   UNL     1       4.601   6.851  17.806  0.00  0.00    +0.000 OA
ATOM      7  C   UNL     1       5.893   6.335  17.925  0.00  0.00    +0.000 C 
ATOM      8  C   UNL     1       5.667   5.626  19.291  0.00  0.00    +0.000 C 
ATOM      9  C   UNL     1       4.252   4.969  19.158  0.00  0.00    +0.000 C 
ATOM     10  C   UNL     1       4.176   3.431  19.306  0.00  0.00    +0.000 C 
ATOM     11  C   UNL     1       3.662   2.197  18.541  0.00  0.00    +0.000 C 
ATOM     12  O   UNL     1       3.506   1.125  19.127  0.00  0.00    +0.000 OA
ATOM     13  O   UNL     1       3.353   2.356  17.220  0.00  0.00    +0.000 OA
ATOM     14  C   UNL     1       3.349   3.629  16.462  0.00  0.00    +0.000 C 
ATOM     15  C   UNL     1       4.570   4.630  16.471  0.00  0.00    +0.000 C 
ATOM     16  C   UNL     1       5.829   5.622  16.515  0.00  0.00    +0.000 C 
ATOM     17  C   UNL     1       7.286   5.412  16.017  0.00  0.00    +0.000 C 
ENDROOT
BRANCH   7  18
ATOM     18  O   UNL     1       6.840   7.375  17.980  0.00  0.00    +0.000 OA
ATOM     19  H   UNL     1       6.624   7.954  18.728  0.00  0.00    +0.000 HD
ENDBRANCH   7  18
BRANCH  10  20
ATOM     20  O   UNL     1       5.519   3.080  19.036  0.00  0.00    +0.000 OA
ATOM     21  H   UNL     1       5.574   2.104  19.096  0.00  0.00    +0.000 HD
ENDBRANCH  10  20
BRANCH  16  22
ATOM     22  O   UNL     1       5.393   6.609  15.498  0.00  0.00    +0.000 OA
ATOM     23  H   UNL     1       5.718   6.243  14.648  0.00  0.00    +0.000 HD
ENDBRANCH  16  22
BRANCH  15  24
ATOM     24  C   UNL     1       5.551   3.329  16.282  0.00  0.00    +0.000 C 
BRANCH  24  25
ATOM     25  O   UNL     1       5.820   3.080  14.894  0.00  0.00    +0.000 OA
ATOM     26  H   UNL     1       6.186   3.885  14.495  0.00  0.00    +0.000 HD
ENDBRANCH  24  25
ENDBRANCH  15  24
TORSDOF 5
ENDMDL
MODEL 6
REMARK VINA RESULT:      -6.1      1.833      4.381
REMARK  Name = 
REMARK  7 active torsions:
REMARK  status: ('A' for Active; 'I' for Inactive)
REMARK    1  A    between atoms: C_1  and  C_2
REMARK    2  A    between atoms: C_7  and  O_8
REMARK    3  A    between atoms: C_11  and  O_12
REMARK    4  A    between atoms: C_17  and  C_18
REMARK    5  A    between atoms: C_18  and  O_19
REMARK    6  A    between atoms: C_20  and  C_21
REMARK    7  A    between atoms: C_20  and  O_22
REMARK                            x       y       z     vdW  Elec       q    Type
REMARK                         _______ _______ _______ _____ _____    ______ ____
ROOT
ATOM      1  C   UNL     1       5.118   1.649  20.202  0.00  0.00    +0.000 C 
ATOM      2  C   UNL     1       3.839   2.394  19.742  0.00  0.00    +0.000 C 
ATOM      3  C   UNL     1       3.471   1.808  18.353  0.00  0.00    +0.000 C 
ATOM      4  C   UNL     1       2.627   2.850  17.669  0.00  0.00    +0.000 C 
ATOM      5  C   UNL     1       3.072   4.207  18.265  0.00  0.00    +0.000 C 
ATOM      6  O   UNL     1       1.792   4.484  18.941  0.00  0.00    +0.000 OA
ATOM      7  C   UNL     1       2.218   5.648  19.585  0.00  0.00    +0.000 C 
ATOM      8  C   UNL     1       3.317   4.967  20.451  0.00  0.00    +0.000 C 
ATOM      9  C   UNL     1       4.012   3.959  19.475  0.00  0.00    +0.000 C 
ATOM     10  C   UNL     1       5.526   4.158  19.223  0.00  0.00    +0.000 C 
ATOM     11  C   UNL     1       6.512   4.343  18.055  0.00  0.00    +0.000 C 
ATOM     12  O   UNL     1       7.718   4.167  18.229  0.00  0.00    +0.000 OA
ATOM     13  O   UNL     1       5.991   4.663  16.833  0.00  0.00    +0.000 OA
ATOM     14  C   UNL     1       4.555   4.738  16.479  0.00  0.00    +0.000 C 
ATOM     15  C   UNL     1       3.510   5.564  17.328  0.00  0.00    +0.000 C 
ATOM     16  C   UNL     1       2.482   6.406  18.224  0.00  0.00    +0.000 C 
ATOM     17  C   UNL     1       2.419   7.933  18.506  0.00  0.00    +0.000 C 
ENDROOT
BRANCH   7  18
ATOM     18  O   UNL     1       1.172   6.207  20.341  0.00  0.00    +0.000 OA
ATOM     19  H   UNL     1       0.750   5.504  20.860  0.00  0.00    +0.000 HD
ENDBRANCH   7  18
BRANCH  10  20
ATOM     20  O   UNL     1       5.675   5.511  19.607  0.00  0.00    +0.000 OA
ATOM     21  H   UNL     1       5.357   5.580  20.531  0.00  0.00    +0.000 HD
ENDBRANCH  10  20
BRANCH  16  22
ATOM     22  O   UNL     1       1.273   6.296  17.372  0.00  0.00    +0.000 OA
ATOM     23  H   UNL     1       1.162   5.331  17.229  0.00  0.00    +0.000 HD
ENDBRANCH  16  22
BRANCH  15  24
ATOM     24  C   UNL     1       4.616   6.774  17.386  0.00  0.00    +0.000 C 
BRANCH  24  25
ATOM     25  O   UNL     1       5.100   7.097  16.074  0.00  0.00    +0.000 OA
ATOM     26  H   UNL     1       4.504   7.747  15.669  0.00  0.00    +0.000 HD
ENDBRANCH  24  25
ENDBRANCH  15  24
TORSDOF 5
ENDMDL
MODEL 7
REMARK VINA RESULT:      -6.0      1.887      4.552
REMARK  Name = 
REMARK  7 active torsions:
REMARK  status: ('A' for Active; 'I' for Inactive)
REMARK    1  A    between atoms: C_1  and  C_2
REMARK    2  A    between atoms: C_7  and  O_8
REMARK    3  A    between atoms: C_11  and  O_12
REMARK    4  A    between atoms: C_17  and  C_18
REMARK    5  A    between atoms: C_18  and  O_19
REMARK    6  A    between atoms: C_20  and  C_21
REMARK    7  A    between atoms: C_20  and  O_22
REMARK                            x       y       z     vdW  Elec       q    Type
REMARK                         _______ _______ _______ _____ _____    ______ ____
ROOT
ATOM      1  C   UNL     1       1.753   3.255  21.309  0.00  0.00    +0.000 C 
ATOM      2  C   UNL     1       2.786   4.343  20.920  0.00  0.00    +0.000 C 
ATOM      3  C   UNL     1       1.973   5.520  20.322  0.00  0.00    +0.000 C 
ATOM      4  C   UNL     1       2.932   6.297  19.459  0.00  0.00    +0.000 C 
ATOM      5  C   UNL     1       3.993   5.274  18.988  0.00  0.00    +0.000 C 
ATOM      6  O   UNL     1       5.110   5.887  19.730  0.00  0.00    +0.000 OA
ATOM      7  C   UNL     1       6.050   4.904  19.413  0.00  0.00    +0.000 C 
ATOM      8  C   UNL     1       5.315   3.732  20.126  0.00  0.00    +0.000 C 
ATOM      9  C   UNL     1       3.807   3.939  19.760  0.00  0.00    +0.000 C 
ATOM     10  C   UNL     1       3.108   2.793  18.991  0.00  0.00    +0.000 C 
ATOM     11  C   UNL     1       2.302   2.557  17.700  0.00  0.00    +0.000 C 
ATOM     12  O   UNL     1       1.633   1.533  17.565  0.00  0.00    +0.000 OA
ATOM     13  O   UNL     1       2.331   3.539  16.751  0.00  0.00    +0.000 OA
ATOM     14  C   UNL     1       2.966   4.871  16.878  0.00  0.00    +0.000 C 
ATOM     15  C   UNL     1       4.458   5.061  17.361  0.00  0.00    +0.000 C 
ATOM     16  C   UNL     1       5.973   5.209  17.864  0.00  0.00    +0.000 C 
ATOM     17  C   UNL     1       7.296   4.718  17.212  0.00  0.00    +0.000 C 
ENDROOT
BRANCH   7  18
ATOM     18  O   UNL     1       7.300   5.212  19.980  0.00  0.00    +0.000 OA
ATOM     19  H   UNL     1       7.914   4.484  19.799  0.00  0.00    +0.000 HD
ENDBRANCH   7  18
BRANCH  10  20
ATOM     20  O   UNL     1       4.231   2.122  18.453  0.00  0.00    +0.000 OA
ATOM     21  H   UNL     1       4.334   1.291  18.960  0.00  0.00    +0.000 HD
ENDBRANCH  10  20
BRANCH  16  22
ATOM     22  O   UNL     1       6.156   6.665  17.653  0.00  0.00    +0.000 OA
ATOM     23  H   UNL     1       5.420   7.079  18.152  0.00  0.00    +0.000 HD
ENDBRANCH  16  22
BRANCH  15  24
ATOM     24  C   UNL     1       4.867   3.822  16.366  0.00  0.00    +0.000 C 
BRANCH  24  25
ATOM     25  O   UNL     1       4.871   4.240  14.993  0.00  0.00    +0.000 OA
ATOM     26  H   UNL     1       4.126   4.845  14.846  0.00  0.00    +0.000 HD
ENDBRANCH  24  25
ENDBRANCH  15  24
TORSDOF 5
ENDMDL
MODEL 8
REMARK VINA RESULT:      -6.0      9.765     12.956
REMARK  Name = 
REMARK  7 active torsions:
REMARK  status: ('A' for Active; 'I' for Inactive)
REMARK    1  A    between atoms: C_1  and  C_2
REMARK    2  A    between atoms: C_7  and  O_8
REMARK    3  A    between atoms: C_11  and  O_12
REMARK    4  A    between atoms: C_17  and  C_18
REMARK    5  A    between atoms: C_18  and  O_19
REMARK    6  A    between atoms: C_20  and  C_21
REMARK    7  A    between atoms: C_20  and  O_22
REMARK                            x       y       z     vdW  Elec       q    Type
REMARK                         _______ _______ _______ _____ _____    ______ ____
ROOT
ATOM      1  C   UNL     1       9.476  10.764  19.284  0.00  0.00    +0.000 C 
ATOM      2  C   UNL     1      10.446  11.841  18.732  0.00  0.00    +0.000 C 
ATOM      3  C   UNL     1      11.680  11.836  19.673  0.00  0.00    +0.000 C 
ATOM      4  C   UNL     1      12.333  13.183  19.514  0.00  0.00    +0.000 C 
ATOM      5  C   UNL     1      11.198  14.153  19.109  0.00  0.00    +0.000 C 
ATOM      6  O   UNL     1      11.720  14.414  17.756  0.00  0.00    +0.000 OA
ATOM      7  C   UNL     1      10.640  15.194  17.334  0.00  0.00    +0.000 C 
ATOM      8  C   UNL     1       9.568  14.072  17.450  0.00  0.00    +0.000 C 
ATOM      9  C   UNL     1       9.911  13.344  18.793  0.00  0.00    +0.000 C 
ATOM     10  C   UNL     1       8.816  13.337  19.886  0.00  0.00    +0.000 C 
ATOM     11  C   UNL     1       8.624  13.722  21.365  0.00  0.00    +0.000 C 
ATOM     12  O   UNL     1       7.666  13.281  22.001  0.00  0.00    +0.000 OA
ATOM     13  O   UNL     1       9.570  14.525  21.937  0.00  0.00    +0.000 OA
ATOM     14  C   UNL     1      10.836  14.976  21.315  0.00  0.00    +0.000 C 
ATOM     15  C   UNL     1      10.893  15.643  19.884  0.00  0.00    +0.000 C 
ATOM     16  C   UNL     1      10.906  16.306  18.425  0.00  0.00    +0.000 C 
ATOM     17  C   UNL     1      10.269  17.632  17.923  0.00  0.00    +0.000 C 
ENDROOT
BRANCH   7  18
ATOM     18  O   UNL     1      10.841  15.646  16.016  0.00  0.00    +0.000 OA
ATOM     19  H   UNL     1      11.499  15.078  15.588  0.00  0.00    +0.000 HD
ENDBRANCH   7  18
BRANCH  10  20
ATOM     20  O   UNL     1       8.023  14.429  19.464  0.00  0.00    +0.000 OA
ATOM     21  H   UNL     1       7.827  14.287  18.516  0.00  0.00    +0.000 HD
ENDBRANCH  10  20
BRANCH  16  22
ATOM     22  O   UNL     1      12.331  16.712  18.357  0.00  0.00    +0.000 OA
ATOM     23  H   UNL     1      12.825  15.923  18.668  0.00  0.00    +0.000 HD
ENDBRANCH  16  22
BRANCH  15  24
ATOM     24  C   UNL     1       9.591  16.539  20.324  0.00  0.00    +0.000 C 
BRANCH  24  25
ATOM     25  O   UNL     1       9.883  17.344  21.477  0.00  0.00    +0.000 OA
ATOM     26  H   UNL     1       9.762  16.806  22.275  0.00  0.00    +0.000 HD
ENDBRANCH  24  25
ENDBRANCH  15  24
TORSDOF 5
ENDMDL
MODEL 9
REMARK VINA RESULT:      -6.0      1.600      3.754
REMARK  Name = 
REMARK  7 active torsions:
REMARK  status: ('A' for Active; 'I' for Inactive)
REMARK    1  A    between atoms: C_1  and  C_2
REMARK    2  A    between atoms: C_7  and  O_8
REMARK    3  A    between atoms: C_11  and  O_12
REMARK    4  A    between atoms: C_17  and  C_18
REMARK    5  A    between atoms: C_18  and  O_19
REMARK    6  A    between atoms: C_20  and  C_21
REMARK    7  A    between atoms: C_20  and  O_22
REMARK                            x       y       z     vdW  Elec       q    Type
REMARK                         _______ _______ _______ _____ _____    ______ ____
ROOT
ATOM      1  C   UNL     1       4.855   6.941  15.739  0.00  0.00    +0.000 C 
ATOM      2  C   UNL     1       3.721   6.533  16.714  0.00  0.00    +0.000 C 
ATOM      3  C   UNL     1       3.911   7.399  17.987  0.00  0.00    +0.000 C 
ATOM      4  C   UNL     1       3.222   6.660  19.103  0.00  0.00    +0.000 C 
ATOM      5  C   UNL     1       3.275   5.165  18.710  0.00  0.00    +0.000 C 
ATOM      6  O   UNL     1       1.820   5.021  18.530  0.00  0.00    +0.000 OA
ATOM      7  C   UNL     1       1.863   3.708  18.055  0.00  0.00    +0.000 C 
ATOM      8  C   UNL     1       2.685   4.020  16.771  0.00  0.00    +0.000 C 
ATOM      9  C   UNL     1       3.782   5.029  17.248  0.00  0.00    +0.000 C 
ATOM     10  C   UNL     1       5.257   4.598  17.069  0.00  0.00    +0.000 C 
ATOM     11  C   UNL     1       6.546   4.431  17.895  0.00  0.00    +0.000 C 
ATOM     12  O   UNL     1       7.638   4.350  17.331  0.00  0.00    +0.000 OA
ATOM     13  O   UNL     1       6.426   4.422  19.256  0.00  0.00    +0.000 OA
ATOM     14  C   UNL     1       5.192   4.673  20.035  0.00  0.00    +0.000 C 
ATOM     15  C   UNL     1       3.832   3.925  19.742  0.00  0.00    +0.000 C 
ATOM     16  C   UNL     1       2.470   3.151  19.404  0.00  0.00    +0.000 C 
ATOM     17  C   UNL     1       2.133   1.636  19.492  0.00  0.00    +0.000 C 
ENDROOT
BRANCH   7  18
ATOM     18  O   UNL     1       0.564   3.233  17.791  0.00  0.00    +0.000 OA
ATOM     19  H   UNL     1       0.621   2.307  17.511  0.00  0.00    +0.000 HD
ENDBRANCH   7  18
BRANCH  10  20
ATOM     20  O   UNL     1       5.105   3.197  16.961  0.00  0.00    +0.000 OA
ATOM     21  H   UNL     1       4.903   3.005  16.022  0.00  0.00    +0.000 HD
ENDBRANCH  10  20
BRANCH  16  22
ATOM     22  O   UNL     1       1.637   3.623  20.536  0.00  0.00    +0.000 OA
ATOM     23  H   UNL     1       1.646   2.877  21.174  0.00  0.00    +0.000 HD
ENDBRANCH  16  22
BRANCH  15  24
ATOM     24  C   UNL     1       4.700   2.538  19.617  0.00  0.00    +0.000 C 
BRANCH  24  25
ATOM     25  O   UNL     1       5.166   2.101  20.902  0.00  0.00    +0.000 OA
ATOM     26  H   UNL     1       4.770   2.662  21.588  0.00  0.00    +0.000 HD
ENDBRANCH  24  25
ENDBRANCH  15  24
TORSDOF 5
ENDMDL
