MODEL 1
REMARK VINA RESULT:      -8.4      0.000      0.000
REMARK  Name = 
REMARK  6 active torsions:
REMARK  status: ('A' for Active; 'I' for Inactive)
REMARK    1  A    between atoms: N_1  and  C_2
REMARK    2  A    between atoms: C_3  and  C_4
REMARK    3  A    between atoms: N_6  and  C_7
REMARK    4  A    between atoms: C_7  and  C_8
REMARK    5  A    between atoms: C_8  and  C_9
REMARK    6  A    between atoms: C_12  and  N_13
REMARK                            x       y       z     vdW  Elec       q    Type
REMARK                         _______ _______ _______ _____ _____    ______ ____
ROOT
ATOM      1  C   UNL     1       6.997   7.180  17.209  0.00  0.00    +0.000 C 
ATOM      2  O   UNL     1       7.847   6.745  16.449  0.00  0.00    +0.000 OA
ATOM      3  N   UNL     1       7.212   8.364  17.856  0.00  0.00    +0.000 N 
ATOM      4  H   UNL     1       6.502   8.740  18.500  0.00  0.00    +0.000 HD
ENDROOT
BRANCH   1   6
ATOM      5  C   UNL     1       5.624   5.042  17.847  0.00  0.00    +0.000 A 
ATOM      6  C   UNL     1       5.751   6.398  17.449  0.00  0.00    +0.000 A 
ATOM      7  S   UNL     1       4.206   7.077  17.317  0.00  0.00    +0.000 S 
ATOM      8  C   UNL     1       3.385   5.703  17.773  0.00  0.00    +0.000 A 
ATOM      9  N   UNL     1       2.037   5.601  17.912  0.00  0.00    +0.000 NA
ATOM     10  C   UNL     1       1.488   4.435  18.353  0.00  0.00    +0.000 A 
ATOM     11  C   UNL     1       2.322   3.349  18.639  0.00  0.00    +0.000 A 
ATOM     12  C   UNL     1       3.702   3.441  18.492  0.00  0.00    +0.000 A 
ATOM     13  C   UNL     1       4.269   4.661  18.049  0.00  0.00    +0.000 A 
ATOM     14  C   UNL     1       4.340   2.182  18.991  0.00  0.00    +0.000 C 
ATOM     15  C   UNL     1       3.159   1.210  19.006  0.00  0.00    +0.000 C 
ATOM     16  C   UNL     1       1.909   2.054  19.232  0.00  0.00    +0.000 C 
BRANCH   5  17
ATOM     17  N   UNL     1       6.733   4.168  18.025  0.00  0.00    +0.000 N 
ATOM     18  H   UNL     1       6.892   3.648  18.894  0.00  0.00    +0.000 HD
ATOM     19  H   UNL     1       7.459   4.057  17.317  0.00  0.00    +0.000 HD
ENDBRANCH   5  17
ENDBRANCH   1   6
BRANCH   3  20
ATOM     20  C   UNL     1       8.439   9.124  17.709  0.00  0.00    +0.000 C 
BRANCH  20  21
ATOM     21  C   UNL     1       8.920   9.645  19.069  0.00  0.00    +0.000 C 
BRANCH  21  22
ATOM     22  C   UNL     1       9.505  11.024  18.903  0.00  0.00    +0.000 A 
ATOM     23  C   UNL     1      10.498  11.473  19.785  0.00  0.00    +0.000 A 
ATOM     24  C   UNL     1      10.999  12.769  19.690  0.00  0.00    +0.000 A 
ATOM     25  C   UNL     1      10.514  13.661  18.714  0.00  0.00    +0.000 A 
ATOM     26  C   UNL     1       9.540  13.188  17.804  0.00  0.00    +0.000 A 
ATOM     27  C   UNL     1       9.049  11.883  17.895  0.00  0.00    +0.000 A 
BRANCH  25  28
ATOM     28  N   UNL     1      10.957  15.030  18.698  0.00  0.00    +0.000 N 
ATOM     29  C   UNL     1      12.333  15.410  18.402  0.00  0.00    +0.000 C 
ATOM     30  C   UNL     1      12.320  16.506  17.325  0.00  0.00    +0.000 C 
ATOM     31  N   UNL     1      11.485  17.634  17.765  0.00  0.00    +0.000 NA
ATOM     32  C   UNL     1      10.098  17.195  17.985  0.00  0.00    +0.000 C 
ATOM     33  C   UNL     1      10.072  16.126  19.074  0.00  0.00    +0.000 C 
ATOM     34  H   UNL     1      11.492  18.374  17.028  0.00  0.00    +0.000 HD
ENDBRANCH  25  28
ENDBRANCH  21  22
ENDBRANCH  20  21
ENDBRANCH   3  20
TORSDOF 6
ENDMDL
MODEL 2
REMARK VINA RESULT:      -8.4      0.711      1.075
REMARK  Name = 
REMARK  6 active torsions:
REMARK  status: ('A' for Active; 'I' for Inactive)
REMARK    1  A    between atoms: N_1  and  C_2
REMARK    2  A    between atoms: C_3  and  C_4
REMARK    3  A    between atoms: N_6  and  C_7
REMARK    4  A    between atoms: C_7  and  C_8
REMARK    5  A    between atoms: C_8  and  C_9
REMARK    6  A    between atoms: C_12  and  N_13
REMARK                            x       y       z     vdW  Elec       q    Type
REMARK                         _______ _______ _______ _____ _____    ______ ____
ROOT
ATOM      1  C   UNL     1       7.006   7.226  17.248  0.00  0.00    +0.000 C 
ATOM      2  O   UNL     1       7.834   6.829  16.443  0.00  0.00    +0.000 OA
ATOM      3  N   UNL     1       7.249   8.366  17.959  0.00  0.00    +0.000 N 
ATOM      4  H   UNL     1       6.558   8.709  18.642  0.00  0.00    +0.000 HD
ENDROOT
BRANCH   1   6
ATOM      5  C   UNL     1       5.630   5.100  17.921  0.00  0.00    +0.000 A 
ATOM      6  C   UNL     1       5.759   6.441  17.472  0.00  0.00    +0.000 A 
ATOM      7  S   UNL     1       4.215   7.096  17.253  0.00  0.00    +0.000 S 
ATOM      8  C   UNL     1       3.389   5.734  17.734  0.00  0.00    +0.000 A 
ATOM      9  N   UNL     1       2.038   5.623  17.825  0.00  0.00    +0.000 NA
ATOM     10  C   UNL     1       1.483   4.470  18.293  0.00  0.00    +0.000 A 
ATOM     11  C   UNL     1       2.315   3.405  18.655  0.00  0.00    +0.000 A 
ATOM     12  C   UNL     1       3.699   3.506  18.558  0.00  0.00    +0.000 A 
ATOM     13  C   UNL     1       4.272   4.713  18.086  0.00  0.00    +0.000 A 
ATOM     14  C   UNL     1       4.330   2.276  19.132  0.00  0.00    +0.000 C 
ATOM     15  C   UNL     1       3.157   1.292  19.142  0.00  0.00    +0.000 C 
ATOM     16  C   UNL     1       1.892   2.131  19.285  0.00  0.00    +0.000 C 
BRANCH   5  17
ATOM     17  N   UNL     1       6.739   4.247  18.177  0.00  0.00    +0.000 N 
ATOM     18  H   UNL     1       7.688   4.463  17.853  0.00  0.00    +0.000 HD
ATOM     19  H   UNL     1       6.638   3.348  18.647  0.00  0.00    +0.000 HD
ENDBRANCH   5  17
ENDBRANCH   1   6
BRANCH   3  20
ATOM     20  C   UNL     1       8.479   9.125  17.827  0.00  0.00    +0.000 C 
BRANCH  20  21
ATOM     21  C   UNL     1       8.965   9.611  19.197  0.00  0.00    +0.000 C 
BRANCH  21  22
ATOM     22  C   UNL     1       9.601  10.970  19.054  0.00  0.00    +0.000 A 
ATOM     23  C   UNL     1       9.993  11.429  17.789  0.00  0.00    +0.000 A 
ATOM     24  C   UNL     1      10.645  12.652  17.648  0.00  0.00    +0.000 A 
ATOM     25  C   UNL     1      10.937  13.449  18.771  0.00  0.00    +0.000 A 
ATOM     26  C   UNL     1      10.505  12.996  20.039  0.00  0.00    +0.000 A 
ATOM     27  C   UNL     1       9.838  11.775  20.176  0.00  0.00    +0.000 A 
BRANCH  25  28
ATOM     28  N   UNL     1      11.711  14.653  18.626  0.00  0.00    +0.000 N 
ATOM     29  C   UNL     1      12.203  15.122  17.336  0.00  0.00    +0.000 C 
ATOM     30  C   UNL     1      11.823  16.601  17.172  0.00  0.00    +0.000 C 
ATOM     31  N   UNL     1      12.333  17.380  18.310  0.00  0.00    +0.000 NA
ATOM     32  C   UNL     1      11.750  16.898  19.571  0.00  0.00    +0.000 C 
ATOM     33  C   UNL     1      12.136  15.435  19.779  0.00  0.00    +0.000 C 
ATOM     34  H   UNL     1      12.075  18.385  18.182  0.00  0.00    +0.000 HD
ENDBRANCH  25  28
ENDBRANCH  21  22
ENDBRANCH  20  21
ENDBRANCH   3  20
TORSDOF 6
ENDMDL
MODEL 3
REMARK VINA RESULT:      -8.1      1.606      2.198
REMARK  Name = 
REMARK  6 active torsions:
REMARK  status: ('A' for Active; 'I' for Inactive)
REMARK    1  A    between atoms: N_1  and  C_2
REMARK    2  A    between atoms: C_3  and  C_4
REMARK    3  A    between atoms: N_6  and  C_7
REMARK    4  A    between atoms: C_7  and  C_8
REMARK    5  A    between atoms: C_8  and  C_9
REMARK    6  A    between atoms: C_12  and  N_13
REMARK                            x       y       z     vdW  Elec       q    Type
REMARK                         _______ _______ _______ _____ _____    ______ ____
ROOT
ATOM      1  C   UNL     1       6.611   6.229  17.031  0.00  0.00    +0.000 C 
ATOM      2  O   UNL     1       7.469   5.874  16.238  0.00  0.00    +0.000 OA
ATOM      3  N   UNL     1       6.712   7.453  17.629  0.00  0.00    +0.000 N 
ATOM      4  H   UNL     1       5.994   7.763  18.300  0.00  0.00    +0.000 HD
ENDROOT
BRANCH   1   6
ATOM      5  C   UNL     1       4.821   5.146  18.607  0.00  0.00    +0.000 A 
ATOM      6  C   UNL     1       5.487   5.310  17.364  0.00  0.00    +0.000 A 
ATOM      7  S   UNL     1       4.765   4.296  16.218  0.00  0.00    +0.000 S 
ATOM      8  C   UNL     1       3.618   3.673  17.251  0.00  0.00    +0.000 A 
ATOM      9  N   UNL     1       2.650   2.783  16.908  0.00  0.00    +0.000 NA
ATOM     10  C   UNL     1       1.727   2.395  17.833  0.00  0.00    +0.000 A 
ATOM     11  C   UNL     1       1.804   2.906  19.133  0.00  0.00    +0.000 A 
ATOM     12  C   UNL     1       2.796   3.811  19.496  0.00  0.00    +0.000 A 
ATOM     13  C   UNL     1       3.742   4.224  18.526  0.00  0.00    +0.000 A 
ATOM     14  C   UNL     1       2.553   4.281  20.897  0.00  0.00    +0.000 C 
ATOM     15  C   UNL     1       1.597   3.211  21.431  0.00  0.00    +0.000 C 
ATOM     16  C   UNL     1       0.825   2.683  20.226  0.00  0.00    +0.000 C 
BRANCH   5  17
ATOM     17  N   UNL     1       5.195   5.834  19.796  0.00  0.00    +0.000 N 
ATOM     18  H   UNL     1       5.748   5.392  20.537  0.00  0.00    +0.000 HD
ATOM     19  H   UNL     1       4.884   6.784  19.997  0.00  0.00    +0.000 HD
ENDBRANCH   5  17
ENDBRANCH   1   6
BRANCH   3  20
ATOM     20  C   UNL     1       7.825   8.353  17.390  0.00  0.00    +0.000 C 
BRANCH  20  21
ATOM     21  C   UNL     1       8.619   8.586  18.681  0.00  0.00    +0.000 C 
BRANCH  21  22
ATOM     22  C   UNL     1       8.989  10.043  18.789  0.00  0.00    +0.000 A 
ATOM     23  C   UNL     1       8.600  10.940  17.784  0.00  0.00    +0.000 A 
ATOM     24  C   UNL     1       8.994  12.276  17.833  0.00  0.00    +0.000 A 
ATOM     25  C   UNL     1       9.801  12.753  18.884  0.00  0.00    +0.000 A 
ATOM     26  C   UNL     1      10.158  11.850  19.912  0.00  0.00    +0.000 A 
ATOM     27  C   UNL     1       9.750  10.514  19.867  0.00  0.00    +0.000 A 
BRANCH  25  28
ATOM     28  N   UNL     1      10.295  14.104  18.863  0.00  0.00    +0.000 N 
ATOM     29  C   UNL     1       9.594  15.189  18.187  0.00  0.00    +0.000 C 
ATOM     30  C   UNL     1       9.462  16.371  19.160  0.00  0.00    +0.000 C 
ATOM     31  N   UNL     1      10.789  16.757  19.664  0.00  0.00    +0.000 NA
ATOM     32  C   UNL     1      11.413  15.639  20.388  0.00  0.00    +0.000 C 
ATOM     33  C   UNL     1      11.587  14.456  19.438  0.00  0.00    +0.000 C 
ATOM     34  H   UNL     1      10.686  17.567  20.317  0.00  0.00    +0.000 HD
ENDBRANCH  25  28
ENDBRANCH  21  22
ENDBRANCH  20  21
ENDBRANCH   3  20
TORSDOF 6
ENDMDL
MODEL 4
REMARK VINA RESULT:      -8.0      2.555     12.113
REMARK  Name = 
REMARK  6 active torsions:
REMARK  status: ('A' for Active; 'I' for Inactive)
REMARK    1  A    between atoms: N_1  and  C_2
REMARK    2  A    between atoms: C_3  and  C_4
REMARK    3  A    between atoms: N_6  and  C_7
REMARK    4  A    between atoms: C_7  and  C_8
REMARK    5  A    between atoms: C_8  and  C_9
REMARK    6  A    between atoms: C_12  and  N_13
REMARK                            x       y       z     vdW  Elec       q    Type
REMARK                         _______ _______ _______ _____ _____    ______ ____
ROOT
ATOM      1  C   UNL     1       9.394  10.907  19.480  0.00  0.00    +0.000 C 
ATOM      2  O   UNL     1       9.316  10.513  20.632  0.00  0.00    +0.000 OA
ATOM      3  N   UNL     1       9.005  10.087  18.458  0.00  0.00    +0.000 N 
ATOM      4  H   UNL     1       9.068  10.409  17.482  0.00  0.00    +0.000 HD
ENDROOT
BRANCH   1   6
ATOM      5  C   UNL     1      10.163  13.332  20.105  0.00  0.00    +0.000 A 
ATOM      6  C   UNL     1       9.947  12.262  19.198  0.00  0.00    +0.000 A 
ATOM      7  S   UNL     1      10.473  12.733  17.660  0.00  0.00    +0.000 S 
ATOM      8  C   UNL     1      10.988  14.247  18.120  0.00  0.00    +0.000 A 
ATOM      9  N   UNL     1      11.581  15.158  17.305  0.00  0.00    +0.000 NA
ATOM     10  C   UNL     1      12.016  16.343  17.817  0.00  0.00    +0.000 A 
ATOM     11  C   UNL     1      11.826  16.614  19.177  0.00  0.00    +0.000 A 
ATOM     12  C   UNL     1      11.212  15.691  20.017  0.00  0.00    +0.000 A 
ATOM     13  C   UNL     1      10.777  14.454  19.483  0.00  0.00    +0.000 A 
ATOM     14  C   UNL     1      11.263  16.191  21.427  0.00  0.00    +0.000 C 
ATOM     15  C   UNL     1      11.557  17.680  21.227  0.00  0.00    +0.000 C 
ATOM     16  C   UNL     1      12.333  17.794  19.919  0.00  0.00    +0.000 C 
BRANCH   5  17
ATOM     17  N   UNL     1       9.806  13.280  21.482  0.00  0.00    +0.000 N 
ATOM     18  H   UNL     1       8.873  13.537  21.819  0.00  0.00    +0.000 HD
ATOM     19  H   UNL     1      10.477  13.038  22.210  0.00  0.00    +0.000 HD
ENDBRANCH   5  17
ENDBRANCH   1   6
BRANCH   3  20
ATOM     20  C   UNL     1       8.528   8.734  18.679  0.00  0.00    +0.000 C 
BRANCH  20  21
ATOM     21  C   UNL     1       8.045   8.110  17.364  0.00  0.00    +0.000 C 
BRANCH  21  22
ATOM     22  C   UNL     1       7.070   7.000  17.662  0.00  0.00    +0.000 A 
ATOM     23  C   UNL     1       5.877   6.903  16.932  0.00  0.00    +0.000 A 
ATOM     24  C   UNL     1       4.932   5.926  17.241  0.00  0.00    +0.000 A 
ATOM     25  C   UNL     1       5.148   5.022  18.299  0.00  0.00    +0.000 A 
ATOM     26  C   UNL     1       6.370   5.104  19.006  0.00  0.00    +0.000 A 
ATOM     27  C   UNL     1       7.321   6.077  18.685  0.00  0.00    +0.000 A 
BRANCH  25  28
ATOM     28  N   UNL     1       4.118   4.094  18.682  0.00  0.00    +0.000 N 
ATOM     29  C   UNL     1       2.715   4.287  18.334  0.00  0.00    +0.000 C 
ATOM     30  C   UNL     1       2.182   2.991  17.703  0.00  0.00    +0.000 C 
ATOM     31  N   UNL     1       2.407   1.859  18.614  0.00  0.00    +0.000 NA
ATOM     32  C   UNL     1       3.844   1.681  18.872  0.00  0.00    +0.000 C 
ATOM     33  C   UNL     1       4.400   2.942  19.529  0.00  0.00    +0.000 C 
ATOM     34  H   UNL     1       2.032   0.986  18.176  0.00  0.00    +0.000 HD
ENDBRANCH  25  28
ENDBRANCH  21  22
ENDBRANCH  20  21
ENDBRANCH   3  20
TORSDOF 6
ENDMDL
MODEL 5
REMARK VINA RESULT:      -8.0      2.424     11.909
REMARK  Name = 
REMARK  6 active torsions:
REMARK  status: ('A' for Active; 'I' for Inactive)
REMARK    1  A    between atoms: N_1  and  C_2
REMARK    2  A    between atoms: C_3  and  C_4
REMARK    3  A    between atoms: N_6  and  C_7
REMARK    4  A    between atoms: C_7  and  C_8
REMARK    5  A    between atoms: C_8  and  C_9
REMARK    6  A    between atoms: C_12  and  N_13
REMARK                            x       y       z     vdW  Elec       q    Type
REMARK                         _______ _______ _______ _____ _____    ______ ____
ROOT
ATOM      1  C   UNL     1       9.310  10.791  19.099  0.00  0.00    +0.000 C 
ATOM      2  O   UNL     1       9.524  10.436  20.247  0.00  0.00    +0.000 OA
ATOM      3  N   UNL     1       8.755   9.912  18.212  0.00  0.00    +0.000 N 
ATOM      4  H   UNL     1       8.571  10.202  17.241  0.00  0.00    +0.000 HD
ENDROOT
BRANCH   1   6
ATOM      5  C   UNL     1       9.253  13.409  19.197  0.00  0.00    +0.000 A 
ATOM      6  C   UNL     1       9.690  12.166  18.668  0.00  0.00    +0.000 A 
ATOM      7  S   UNL     1      10.810  12.460  17.433  0.00  0.00    +0.000 S 
ATOM      8  C   UNL     1      10.770  14.119  17.568  0.00  0.00    +0.000 A 
ATOM      9  N   UNL     1      11.521  14.986  16.840  0.00  0.00    +0.000 NA
ATOM     10  C   UNL     1      11.443  16.323  17.089  0.00  0.00    +0.000 A 
ATOM     11  C   UNL     1      10.573  16.787  18.081  0.00  0.00    +0.000 A 
ATOM     12  C   UNL     1       9.795  15.907  18.827  0.00  0.00    +0.000 A 
ATOM     13  C   UNL     1       9.892  14.517  18.576  0.00  0.00    +0.000 A 
ATOM     14  C   UNL     1       9.068  16.667  19.893  0.00  0.00    +0.000 C 
ATOM     15  C   UNL     1       9.165  18.106  19.381  0.00  0.00    +0.000 C 
ATOM     16  C   UNL     1      10.447  18.186  18.558  0.00  0.00    +0.000 C 
BRANCH   5  17
ATOM     17  N   UNL     1       8.286  13.525  20.235  0.00  0.00    +0.000 N 
ATOM     18  H   UNL     1       7.890  14.426  20.521  0.00  0.00    +0.000 HD
ATOM     19  H   UNL     1       7.979  12.723  20.786  0.00  0.00    +0.000 HD
ENDBRANCH   5  17
ENDBRANCH   1   6
BRANCH   3  20
ATOM     20  C   UNL     1       8.433   8.542  18.566  0.00  0.00    +0.000 C 
BRANCH  20  21
ATOM     21  C   UNL     1       7.986   7.755  17.328  0.00  0.00    +0.000 C 
BRANCH  21  22
ATOM     22  C   UNL     1       6.789   6.907  17.676  0.00  0.00    +0.000 A 
ATOM     23  C   UNL     1       6.905   5.896  18.640  0.00  0.00    +0.000 A 
ATOM     24  C   UNL     1       5.829   5.056  18.922  0.00  0.00    +0.000 A 
ATOM     25  C   UNL     1       4.605   5.197  18.239  0.00  0.00    +0.000 A 
ATOM     26  C   UNL     1       4.486   6.243  17.295  0.00  0.00    +0.000 A 
ATOM     27  C   UNL     1       5.563   7.091  17.024  0.00  0.00    +0.000 A 
BRANCH  25  28
ATOM     28  N   UNL     1       3.541   4.253  18.457  0.00  0.00    +0.000 N 
ATOM     29  C   UNL     1       2.905   3.518  17.370  0.00  0.00    +0.000 C 
ATOM     30  C   UNL     1       2.883   2.025  17.733  0.00  0.00    +0.000 C 
ATOM     31  N   UNL     1       2.222   1.834  19.033  0.00  0.00    +0.000 NA
ATOM     32  C   UNL     1       2.949   2.548  20.093  0.00  0.00    +0.000 C 
ATOM     33  C   UNL     1       2.962   4.042  19.777  0.00  0.00    +0.000 C 
ATOM     34  H   UNL     1       2.206   0.814  19.262  0.00  0.00    +0.000 HD
ENDBRANCH  25  28
ENDBRANCH  21  22
ENDBRANCH  20  21
ENDBRANCH   3  20
TORSDOF 6
ENDMDL
MODEL 6
REMARK VINA RESULT:      -7.9      8.026     12.440
REMARK  Name = 
REMARK  6 active torsions:
REMARK  status: ('A' for Active; 'I' for Inactive)
REMARK    1  A    between atoms: N_1  and  C_2
REMARK    2  A    between atoms: C_3  and  C_4
REMARK    3  A    between atoms: N_6  and  C_7
REMARK    4  A    between atoms: C_7  and  C_8
REMARK    5  A    between atoms: C_8  and  C_9
REMARK    6  A    between atoms: C_12  and  N_13
REMARK                            x       y       z     vdW  Elec       q    Type
REMARK                         _______ _______ _______ _____ _____    ______ ____
ROOT
ATOM      1  C   UNL     1      -1.352  11.535  19.012  0.00  0.00    +0.000 C 
ATOM      2  O   UNL     1      -1.473  12.075  17.924  0.00  0.00    +0.000 OA
ATOM      3  N   UNL     1      -0.497  10.479  19.150  0.00  0.00    +0.000 N 
ATOM      4  H   UNL     1      -0.388  10.015  20.063  0.00  0.00    +0.000 HD
ENDROOT
BRANCH   1   6
ATOM      5  C   UNL     1      -3.513  12.457  20.172  0.00  0.00    +0.000 A 
ATOM      6  C   UNL     1      -2.166  12.009  20.167  0.00  0.00    +0.000 A 
ATOM      7  S   UNL     1      -1.574  12.038  21.752  0.00  0.00    +0.000 S 
ATOM      8  C   UNL     1      -2.986  12.582  22.445  0.00  0.00    +0.000 A 
ATOM      9  N   UNL     1      -3.185  12.783  23.773  0.00  0.00    +0.000 NA
ATOM     10  C   UNL     1      -4.411  13.172  24.224  0.00  0.00    +0.000 A 
ATOM     11  C   UNL     1      -5.445  13.378  23.305  0.00  0.00    +0.000 A 
ATOM     12  C   UNL     1      -5.249  13.182  21.942  0.00  0.00    +0.000 A 
ATOM     13  C   UNL     1      -3.978  12.762  21.481  0.00  0.00    +0.000 A 
ATOM     14  C   UNL     1      -6.552  13.348  21.223  0.00  0.00    +0.000 C 
ATOM     15  C   UNL     1      -7.394  14.098  22.258  0.00  0.00    +0.000 C 
ATOM     16  C   UNL     1      -6.860  13.689  23.626  0.00  0.00    +0.000 C 
BRANCH   5  17
ATOM     17  N   UNL     1      -4.304  12.581  18.995  0.00  0.00    +0.000 N 
ATOM     18  H   UNL     1      -4.749  11.777  18.543  0.00  0.00    +0.000 HD
ATOM     19  H   UNL     1      -4.422  13.470  18.510  0.00  0.00    +0.000 HD
ENDBRANCH   5  17
ENDBRANCH   1   6
BRANCH   3  20
ATOM     20  C   UNL     1       0.263   9.937  18.038  0.00  0.00    +0.000 C 
BRANCH  20  21
ATOM     21  C   UNL     1       1.756   9.874  18.383  0.00  0.00    +0.000 C 
BRANCH  21  22
ATOM     22  C   UNL     1       2.151   8.444  18.651  0.00  0.00    +0.000 A 
ATOM     23  C   UNL     1       2.849   7.717  17.676  0.00  0.00    +0.000 A 
ATOM     24  C   UNL     1       3.160   6.374  17.878  0.00  0.00    +0.000 A 
ATOM     25  C   UNL     1       2.773   5.713  19.059  0.00  0.00    +0.000 A 
ATOM     26  C   UNL     1       2.103   6.464  20.053  0.00  0.00    +0.000 A 
ATOM     27  C   UNL     1       1.803   7.814  19.853  0.00  0.00    +0.000 A 
BRANCH  25  28
ATOM     28  N   UNL     1       2.999   4.300  19.208  0.00  0.00    +0.000 N 
ATOM     29  C   UNL     1       2.210   3.466  20.107  0.00  0.00    +0.000 C 
ATOM     30  C   UNL     1       1.716   2.236  19.330  0.00  0.00    +0.000 C 
ATOM     31  N   UNL     1       2.856   1.530  18.727  0.00  0.00    +0.000 NA
ATOM     32  C   UNL     1       3.569   2.406  17.786  0.00  0.00    +0.000 C 
ATOM     33  C   UNL     1       4.101   3.626  18.534  0.00  0.00    +0.000 C 
ATOM     34  H   UNL     1       2.506   0.691  18.210  0.00  0.00    +0.000 HD
ENDBRANCH  25  28
ENDBRANCH  21  22
ENDBRANCH  20  21
ENDBRANCH   3  20
TORSDOF 6
ENDMDL
MODEL 7
REMARK VINA RESULT:      -7.8      1.322      2.326
REMARK  Name = 
REMARK  6 active torsions:
REMARK  status: ('A' for Active; 'I' for Inactive)
REMARK    1  A    between atoms: N_1  and  C_2
REMARK    2  A    between atoms: C_3  and  C_4
REMARK    3  A    between atoms: N_6  and  C_7
REMARK    4  A    between atoms: C_7  and  C_8
REMARK    5  A    between atoms: C_8  and  C_9
REMARK    6  A    between atoms: C_12  and  N_13
REMARK                            x       y       z     vdW  Elec       q    Type
REMARK                         _______ _______ _______ _____ _____    ______ ____
ROOT
ATOM      1  C   UNL     1       7.168   7.207  17.505  0.00  0.00    +0.000 C 
ATOM      2  O   UNL     1       7.840   7.017  16.503  0.00  0.00    +0.000 OA
ATOM      3  N   UNL     1       7.263   8.399  18.165  0.00  0.00    +0.000 N 
ATOM      4  H   UNL     1       6.701   8.569  19.011  0.00  0.00    +0.000 HD
ENDROOT
BRANCH   1   6
ATOM      5  C   UNL     1       4.891   5.943  17.796  0.00  0.00    +0.000 A 
ATOM      6  C   UNL     1       6.282   6.123  18.016  0.00  0.00    +0.000 A 
ATOM      7  S   UNL     1       6.857   4.841  18.959  0.00  0.00    +0.000 S 
ATOM      8  C   UNL     1       5.395   4.054  19.074  0.00  0.00    +0.000 A 
ATOM      9  N   UNL     1       5.186   2.870  19.706  0.00  0.00    +0.000 NA
ATOM     10  C   UNL     1       3.951   2.295  19.677  0.00  0.00    +0.000 A 
ATOM     11  C   UNL     1       2.907   2.946  19.011  0.00  0.00    +0.000 A 
ATOM     12  C   UNL     1       3.109   4.163  18.368  0.00  0.00    +0.000 A 
ATOM     13  C   UNL     1       4.399   4.748  18.387  0.00  0.00    +0.000 A 
ATOM     14  C   UNL     1       1.862   4.553  17.638  0.00  0.00    +0.000 C 
ATOM     15  C   UNL     1       0.809   3.666  18.307  0.00  0.00    +0.000 C 
ATOM     16  C   UNL     1       1.541   2.415  18.784  0.00  0.00    +0.000 C 
BRANCH   5  17
ATOM     17  N   UNL     1       4.087   6.860  17.061  0.00  0.00    +0.000 N 
ATOM     18  H   UNL     1       3.198   6.589  16.629  0.00  0.00    +0.000 HD
ATOM     19  H   UNL     1       4.381   7.818  16.879  0.00  0.00    +0.000 HD
ENDBRANCH   5  17
ENDBRANCH   1   6
BRANCH   3  20
ATOM     20  C   UNL     1       8.164   9.456  17.746  0.00  0.00    +0.000 C 
BRANCH  20  21
ATOM     21  C   UNL     1       9.248   9.693  18.803  0.00  0.00    +0.000 C 
BRANCH  21  22
ATOM     22  C   UNL     1       9.555  11.166  18.890  0.00  0.00    +0.000 A 
ATOM     23  C   UNL     1       9.297  12.000  17.793  0.00  0.00    +0.000 A 
ATOM     24  C   UNL     1       9.640  13.350  17.830  0.00  0.00    +0.000 A 
ATOM     25  C   UNL     1      10.262  13.906  18.965  0.00  0.00    +0.000 A 
ATOM     26  C   UNL     1      10.485  13.066  20.080  0.00  0.00    +0.000 A 
ATOM     27  C   UNL     1      10.128  11.715  20.044  0.00  0.00    +0.000 A 
BRANCH  25  28
ATOM     28  N   UNL     1      10.714  15.272  18.948  0.00  0.00    +0.000 N 
ATOM     29  C   UNL     1       9.884  16.371  18.469  0.00  0.00    +0.000 C 
ATOM     30  C   UNL     1       9.890  17.488  19.524  0.00  0.00    +0.000 C 
ATOM     31  N   UNL     1      11.273  17.888  19.824  0.00  0.00    +0.000 NA
ATOM     32  C   UNL     1      12.036  16.752  20.361  0.00  0.00    +0.000 C 
ATOM     33  C   UNL     1      12.075  15.633  19.322  0.00  0.00    +0.000 C 
ATOM     34  H   UNL     1      11.262  18.654  20.536  0.00  0.00    +0.000 HD
ENDBRANCH  25  28
ENDBRANCH  21  22
ENDBRANCH  20  21
ENDBRANCH   3  20
TORSDOF 6
ENDMDL
MODEL 8
REMARK VINA RESULT:      -7.8      7.367      9.696
REMARK  Name = 
REMARK  6 active torsions:
REMARK  status: ('A' for Active; 'I' for Inactive)
REMARK    1  A    between atoms: N_1  and  C_2
REMARK    2  A    between atoms: C_3  and  C_4
REMARK    3  A    between atoms: N_6  and  C_7
REMARK    4  A    between atoms: C_7  and  C_8
REMARK    5  A    between atoms: C_8  and  C_9
REMARK    6  A    between atoms: C_12  and  N_13
REMARK                            x       y       z     vdW  Elec       q    Type
REMARK                         _______ _______ _______ _____ _____    ______ ____
ROOT
ATOM      1  C   UNL     1       1.761   8.082  20.156  0.00  0.00    +0.000 C 
ATOM      2  O   UNL     1       1.314   9.035  19.538  0.00  0.00    +0.000 OA
ATOM      3  N   UNL     1       1.741   8.095  21.522  0.00  0.00    +0.000 N 
ATOM      4  H   UNL     1       2.116   7.297  22.054  0.00  0.00    +0.000 HD
ENDROOT
BRANCH   1   6
ATOM      5  C   UNL     1       3.151   6.959  18.240  0.00  0.00    +0.000 A 
ATOM      6  C   UNL     1       2.355   6.934  19.416  0.00  0.00    +0.000 A 
ATOM      7  S   UNL     1       2.194   5.330  19.932  0.00  0.00    +0.000 S 
ATOM      8  C   UNL     1       3.124   4.672  18.719  0.00  0.00    +0.000 A 
ATOM      9  N   UNL     1       3.431   3.356  18.588  0.00  0.00    +0.000 NA
ATOM     10  C   UNL     1       4.256   2.949  17.583  0.00  0.00    +0.000 A 
ATOM     11  C   UNL     1       4.761   3.895  16.685  0.00  0.00    +0.000 A 
ATOM     12  C   UNL     1       4.446   5.245  16.806  0.00  0.00    +0.000 A 
ATOM     13  C   UNL     1       3.602   5.664  17.863  0.00  0.00    +0.000 A 
ATOM     14  C   UNL     1       5.226   6.030  15.798  0.00  0.00    +0.000 C 
ATOM     15  C   UNL     1       5.657   4.943  14.811  0.00  0.00    +0.000 C 
ATOM     16  C   UNL     1       5.754   3.648  15.612  0.00  0.00    +0.000 C 
BRANCH   5  17
ATOM     17  N   UNL     1       3.461   8.151  17.527  0.00  0.00    +0.000 N 
ATOM     18  H   UNL     1       3.059   9.061  17.773  0.00  0.00    +0.000 HD
ATOM     19  H   UNL     1       4.056   8.151  16.699  0.00  0.00    +0.000 HD
ENDBRANCH   5  17
ENDBRANCH   1   6
BRANCH   3  20
ATOM     20  C   UNL     1       1.238   9.220  22.287  0.00  0.00    +0.000 C 
BRANCH  20  21
ATOM     21  C   UNL     1      -0.289   9.151  22.411  0.00  0.00    +0.000 C 
BRANCH  21  22
ATOM     22  C   UNL     1      -0.873  10.526  22.212  0.00  0.00    +0.000 A 
ATOM     23  C   UNL     1      -1.570  11.148  23.258  0.00  0.00    +0.000 A 
ATOM     24  C   UNL     1      -2.177  12.387  23.070  0.00  0.00    +0.000 A 
ATOM     25  C   UNL     1      -2.116  13.039  21.823  0.00  0.00    +0.000 A 
ATOM     26  C   UNL     1      -1.380  12.423  20.785  0.00  0.00    +0.000 A 
ATOM     27  C   UNL     1      -0.761  11.185  20.981  0.00  0.00    +0.000 A 
BRANCH  25  28
ATOM     28  N   UNL     1      -2.842  14.263  21.608  0.00  0.00    +0.000 N 
ATOM     29  C   UNL     1      -4.113  14.310  20.894  0.00  0.00    +0.000 C 
ATOM     30  C   UNL     1      -5.126  15.092  21.743  0.00  0.00    +0.000 C 
ATOM     31  N   UNL     1      -4.588  16.423  22.067  0.00  0.00    +0.000 NA
ATOM     32  C   UNL     1      -3.343  16.303  22.840  0.00  0.00    +0.000 C 
ATOM     33  C   UNL     1      -2.302  15.555  22.010  0.00  0.00    +0.000 C 
ATOM     34  H   UNL     1      -5.291  16.947  22.637  0.00  0.00    +0.000 HD
ENDBRANCH  25  28
ENDBRANCH  21  22
ENDBRANCH  20  21
ENDBRANCH   3  20
TORSDOF 6
ENDMDL
MODEL 9
REMARK VINA RESULT:      -7.7      7.569      9.407
REMARK  Name = 
REMARK  6 active torsions:
REMARK  status: ('A' for Active; 'I' for Inactive)
REMARK    1  A    between atoms: N_1  and  C_2
REMARK    2  A    between atoms: C_3  and  C_4
REMARK    3  A    between atoms: N_6  and  C_7
REMARK    4  A    between atoms: C_7  and  C_8
REMARK    5  A    between atoms: C_8  and  C_9
REMARK    6  A    between atoms: C_12  and  N_13
REMARK                            x       y       z     vdW  Elec       q    Type
REMARK                         _______ _______ _______ _____ _____    ______ ____
ROOT
ATOM      1  C   UNL     1       1.676   8.211  20.384  0.00  0.00    +0.000 C 
ATOM      2  O   UNL     1       1.184   9.143  19.768  0.00  0.00    +0.000 OA
ATOM      3  N   UNL     1       1.725   8.255  21.748  0.00  0.00    +0.000 N 
ATOM      4  H   UNL     1       2.139   7.475  22.278  0.00  0.00    +0.000 HD
ENDROOT
BRANCH   1   6
ATOM      5  C   UNL     1       3.032   7.070  18.455  0.00  0.00    +0.000 A 
ATOM      6  C   UNL     1       2.251   7.056  19.640  0.00  0.00    +0.000 A 
ATOM      7  S   UNL     1       2.081   5.455  20.163  0.00  0.00    +0.000 S 
ATOM      8  C   UNL     1       2.989   4.785  18.941  0.00  0.00    +0.000 A 
ATOM      9  N   UNL     1       3.282   3.465  18.810  0.00  0.00    +0.000 NA
ATOM     10  C   UNL     1       4.092   3.048  17.796  0.00  0.00    +0.000 A 
ATOM     11  C   UNL     1       4.594   3.987  16.889  0.00  0.00    +0.000 A 
ATOM     12  C   UNL     1       4.294   5.339  17.010  0.00  0.00    +0.000 A 
ATOM     13  C   UNL     1       3.466   5.770  18.075  0.00  0.00    +0.000 A 
ATOM     14  C   UNL     1       5.068   6.114  15.990  0.00  0.00    +0.000 C 
ATOM     15  C   UNL     1       5.477   5.020  15.001  0.00  0.00    +0.000 C 
ATOM     16  C   UNL     1       5.572   3.727  15.805  0.00  0.00    +0.000 C 
BRANCH   5  17
ATOM     17  N   UNL     1       3.344   8.257  17.734  0.00  0.00    +0.000 N 
ATOM     18  H   UNL     1       3.794   8.240  16.813  0.00  0.00    +0.000 HD
ATOM     19  H   UNL     1       3.187   9.187  18.121  0.00  0.00    +0.000 HD
ENDBRANCH   5  17
ENDBRANCH   1   6
BRANCH   3  20
ATOM     20  C   UNL     1       1.243   9.390  22.513  0.00  0.00    +0.000 C 
BRANCH  20  21
ATOM     21  C   UNL     1      -0.288   9.376  22.596  0.00  0.00    +0.000 C 
BRANCH  21  22
ATOM     22  C   UNL     1      -0.812  10.785  22.477  0.00  0.00    +0.000 A 
ATOM     23  C   UNL     1      -0.188  11.693  21.611  0.00  0.00    +0.000 A 
ATOM     24  C   UNL     1      -0.614  13.018  21.542  0.00  0.00    +0.000 A 
ATOM     25  C   UNL     1      -1.675  13.477  22.347  0.00  0.00    +0.000 A 
ATOM     26  C   UNL     1      -2.323  12.545  23.190  0.00  0.00    +0.000 A 
ATOM     27  C   UNL     1      -1.901  11.214  23.247  0.00  0.00    +0.000 A 
BRANCH  25  28
ATOM     28  N   UNL     1      -2.031  14.871  22.351  0.00  0.00    +0.000 N 
ATOM     29  C   UNL     1      -1.726  15.766  21.241  0.00  0.00    +0.000 C 
ATOM     30  C   UNL     1      -3.005  16.523  20.853  0.00  0.00    +0.000 C 
ATOM     31  N   UNL     1      -3.553  17.217  22.028  0.00  0.00    +0.000 NA
ATOM     32  C   UNL     1      -3.898  16.254  23.084  0.00  0.00    +0.000 C 
ATOM     33  C   UNL     1      -2.639  15.503  23.514  0.00  0.00    +0.000 C 
ATOM     34  H   UNL     1      -4.417  17.735  21.748  0.00  0.00    +0.000 HD
ENDBRANCH  25  28
ENDBRANCH  21  22
ENDBRANCH  20  21
ENDBRANCH   3  20
TORSDOF 6
ENDMDL
