MODEL 1
REMARK VINA RESULT:      -7.9      0.000      0.000
REMARK  Name = 
REMARK  8 active torsions:
REMARK  status: ('A' for Active; 'I' for Inactive)
REMARK    1  A    between atoms: C_1  and  C_2
REMARK    2  A    between atoms: C_2  and  C_3
REMARK    3  A    between atoms: C_2  and  C_4
REMARK    4  A    between atoms: C_7  and  C_8
REMARK    5  A    between atoms: C_8  and  C_9
REMARK    6  A    between atoms: C_12  and  N_13
REMARK    7  A    between atoms: C_14  and  C_16
REMARK    8  A    between atoms: C_16  and  C_17
REMARK                            x       y       z     vdW  Elec       q    Type
REMARK                         _______ _______ _______ _____ _____    ______ ____
ROOT
ATOM      1  C   UNL     1       6.091   5.473  16.389  0.00  0.00    +0.000 A 
ATOM      2  C   UNL     1       5.023   6.366  16.483  0.00  0.00    +0.000 A 
ATOM      3  C   UNL     1       4.009   6.154  17.417  0.00  0.00    +0.000 A 
ATOM      4  C   UNL     1       4.025   5.060  18.282  0.00  0.00    +0.000 A 
ATOM      5  C   UNL     1       5.123   4.191  18.226  0.00  0.00    +0.000 A 
ATOM      6  C   UNL     1       6.152   4.405  17.293  0.00  0.00    +0.000 A 
ENDROOT
BRANCH   4   7
ATOM      7  N   UNL     1       2.972   4.790  19.196  0.00  0.00    +0.000 N 
ATOM      8  C   UNL     1       1.739   4.245  18.861  0.00  0.00    +0.000 C 
ATOM      9  O   UNL     1       1.349   3.953  17.733  0.00  0.00    +0.000 OA
ATOM     10  H   UNL     1       3.165   4.967  20.168  0.00  0.00    +0.000 HD
BRANCH   8  11
ATOM     11  C   UNL     1       0.827   3.952  20.046  0.00  0.00    +0.000 C 
BRANCH  11  12
ATOM     12  C   UNL     1       1.641   3.695  21.284  0.00  0.00    +0.000 C 
ATOM     13  C   UNL     1       1.356   2.456  22.096  0.00  0.00    +0.000 C 
ATOM     14  C   UNL     1       2.664   2.592  21.366  0.00  0.00    +0.000 C 
ENDBRANCH  11  12
ENDBRANCH   8  11
ENDBRANCH   4   7
BRANCH   1  15
ATOM     15  C   UNL     1       7.157   5.665  15.337  0.00  0.00    +0.000 C 
BRANCH  15  19
ATOM     16  C   UNL     1       6.325   3.558  12.598  0.00  0.00    +0.000 A 
ATOM     17  N   UNL     1       7.280   4.289  12.009  0.00  0.00    +0.000 NA
ATOM     18  O   UNL     1       7.678   5.168  13.019  0.00  0.00    +0.000 OA
ATOM     19  C   UNL     1       6.918   4.869  14.114  0.00  0.00    +0.000 A 
ATOM     20  N   UNL     1       6.057   3.899  13.901  0.00  0.00    +0.000 NA
BRANCH  16  22
ATOM     21  C   UNL     1       4.365   2.970  11.177  0.00  0.00    +0.000 C 
ATOM     22  C   UNL     1       5.612   2.452  11.897  0.00  0.00    +0.000 C 
ATOM     23  C   UNL     1       6.538   1.729  10.917  0.00  0.00    +0.000 C 
ENDBRANCH  16  22
ENDBRANCH  15  19
ENDBRANCH   1  15
TORSDOF 6
ENDMDL
MODEL 2
REMARK VINA RESULT:      -7.7      3.927      7.902
REMARK  Name = 
REMARK  8 active torsions:
REMARK  status: ('A' for Active; 'I' for Inactive)
REMARK    1  A    between atoms: C_1  and  C_2
REMARK    2  A    between atoms: C_2  and  C_3
REMARK    3  A    between atoms: C_2  and  C_4
REMARK    4  A    between atoms: C_7  and  C_8
REMARK    5  A    between atoms: C_8  and  C_9
REMARK    6  A    between atoms: C_12  and  N_13
REMARK    7  A    between atoms: C_14  and  C_16
REMARK    8  A    between atoms: C_16  and  C_17
REMARK                            x       y       z     vdW  Elec       q    Type
REMARK                         _______ _______ _______ _____ _____    ______ ____
ROOT
ATOM      1  C   UNL     1       5.734   4.634  17.264  0.00  0.00    +0.000 A 
ATOM      2  C   UNL     1       6.330   5.521  16.365  0.00  0.00    +0.000 A 
ATOM      3  C   UNL     1       7.227   6.487  16.821  0.00  0.00    +0.000 A 
ATOM      4  C   UNL     1       7.562   6.600  18.169  0.00  0.00    +0.000 A 
ATOM      5  C   UNL     1       7.007   5.677  19.066  0.00  0.00    +0.000 A 
ATOM      6  C   UNL     1       6.109   4.696  18.612  0.00  0.00    +0.000 A 
ENDROOT
BRANCH   4   7
ATOM      7  N   UNL     1       8.423   7.616  18.663  0.00  0.00    +0.000 N 
ATOM      8  C   UNL     1       8.337   8.965  18.345  0.00  0.00    +0.000 C 
ATOM      9  O   UNL     1       7.543   9.485  17.565  0.00  0.00    +0.000 OA
ATOM     10  H   UNL     1       9.116   7.329  19.335  0.00  0.00    +0.000 HD
BRANCH   8  11
ATOM     11  C   UNL     1       9.312   9.863  19.097  0.00  0.00    +0.000 C 
BRANCH  11  12
ATOM     12  C   UNL     1       9.775  10.989  18.215  0.00  0.00    +0.000 C 
ATOM     13  C   UNL     1       9.756  12.394  18.762  0.00  0.00    +0.000 C 
ATOM     14  C   UNL     1      11.067  11.726  18.453  0.00  0.00    +0.000 C 
ENDBRANCH  11  12
ENDBRANCH   8  11
ENDBRANCH   4   7
BRANCH   1  15
ATOM     15  C   UNL     1       4.716   3.629  16.783  0.00  0.00    +0.000 C 
BRANCH  15  19
ATOM     16  C   UNL     1       1.875   3.856  18.907  0.00  0.00    +0.000 A 
ATOM     17  N   UNL     1       1.266   3.412  17.800  0.00  0.00    +0.000 NA
ATOM     18  O   UNL     1       2.314   3.292  16.885  0.00  0.00    +0.000 OA
ATOM     19  C   UNL     1       3.448   3.676  17.544  0.00  0.00    +0.000 A 
ATOM     20  N   UNL     1       3.230   4.050  18.784  0.00  0.00    +0.000 NA
BRANCH  16  22
ATOM     21  C   UNL     1       1.320   2.949  21.160  0.00  0.00    +0.000 C 
ATOM     22  C   UNL     1       1.143   4.112  20.181  0.00  0.00    +0.000 C 
ATOM     23  C   UNL     1       1.588   5.427  20.821  0.00  0.00    +0.000 C 
ENDBRANCH  16  22
ENDBRANCH  15  19
ENDBRANCH   1  15
TORSDOF 6
ENDMDL
MODEL 3
REMARK VINA RESULT:      -7.5      4.159      8.113
REMARK  Name = 
REMARK  8 active torsions:
REMARK  status: ('A' for Active; 'I' for Inactive)
REMARK    1  A    between atoms: C_1  and  C_2
REMARK    2  A    between atoms: C_2  and  C_3
REMARK    3  A    between atoms: C_2  and  C_4
REMARK    4  A    between atoms: C_7  and  C_8
REMARK    5  A    between atoms: C_8  and  C_9
REMARK    6  A    between atoms: C_12  and  N_13
REMARK    7  A    between atoms: C_14  and  C_16
REMARK    8  A    between atoms: C_16  and  C_17
REMARK                            x       y       z     vdW  Elec       q    Type
REMARK                         _______ _______ _______ _____ _____    ______ ____
ROOT
ATOM      1  C   UNL     1       5.909   5.061  17.300  0.00  0.00    +0.000 A 
ATOM      2  C   UNL     1       6.867   4.746  18.265  0.00  0.00    +0.000 A 
ATOM      3  C   UNL     1       7.740   5.727  18.736  0.00  0.00    +0.000 A 
ATOM      4  C   UNL     1       7.688   7.040  18.271  0.00  0.00    +0.000 A 
ATOM      5  C   UNL     1       6.693   7.372  17.341  0.00  0.00    +0.000 A 
ATOM      6  C   UNL     1       5.805   6.390  16.870  0.00  0.00    +0.000 A 
ENDROOT
BRANCH   4   7
ATOM      7  N   UNL     1       8.607   8.039  18.689  0.00  0.00    +0.000 N 
ATOM      8  C   UNL     1       8.528   9.388  18.364  0.00  0.00    +0.000 C 
ATOM      9  O   UNL     1       7.690   9.920  17.641  0.00  0.00    +0.000 OA
ATOM     10  H   UNL     1       9.342   7.742  19.309  0.00  0.00    +0.000 HD
BRANCH   8  11
ATOM     11  C   UNL     1       9.577  10.268  19.032  0.00  0.00    +0.000 C 
BRANCH  11  12
ATOM     12  C   UNL     1      10.187  11.210  18.030  0.00  0.00    +0.000 C 
ATOM     13  C   UNL     1      10.369  12.657  18.412  0.00  0.00    +0.000 C 
ATOM     14  C   UNL     1      11.571  11.781  18.193  0.00  0.00    +0.000 C 
ENDBRANCH  11  12
ENDBRANCH   8  11
ENDBRANCH   4   7
BRANCH   1  15
ATOM     15  C   UNL     1       5.006   3.988  16.743  0.00  0.00    +0.000 C 
BRANCH  15  19
ATOM     16  C   UNL     1       2.399   3.374  19.079  0.00  0.00    +0.000 A 
ATOM     17  N   UNL     1       2.669   2.108  18.739  0.00  0.00    +0.000 NA
ATOM     18  O   UNL     1       3.697   2.240  17.802  0.00  0.00    +0.000 OA
ATOM     19  C   UNL     1       3.939   3.579  17.682  0.00  0.00    +0.000 A 
ATOM     20  N   UNL     1       3.154   4.321  18.431  0.00  0.00    +0.000 NA
BRANCH  16  22
ATOM     21  C   UNL     1       1.409   2.777  21.286  0.00  0.00    +0.000 C 
ATOM     22  C   UNL     1       1.365   3.732  20.092  0.00  0.00    +0.000 C 
ATOM     23  C   UNL     1       1.521   5.181  20.556  0.00  0.00    +0.000 C 
ENDBRANCH  16  22
ENDBRANCH  15  19
ENDBRANCH   1  15
TORSDOF 6
ENDMDL
MODEL 4
REMARK VINA RESULT:      -7.3      3.579      4.583
REMARK  Name = 
REMARK  8 active torsions:
REMARK  status: ('A' for Active; 'I' for Inactive)
REMARK    1  A    between atoms: C_1  and  C_2
REMARK    2  A    between atoms: C_2  and  C_3
REMARK    3  A    between atoms: C_2  and  C_4
REMARK    4  A    between atoms: C_7  and  C_8
REMARK    5  A    between atoms: C_8  and  C_9
REMARK    6  A    between atoms: C_12  and  N_13
REMARK    7  A    between atoms: C_14  and  C_16
REMARK    8  A    between atoms: C_16  and  C_17
REMARK                            x       y       z     vdW  Elec       q    Type
REMARK                         _______ _______ _______ _____ _____    ______ ____
ROOT
ATOM      1  C   UNL     1       5.006   5.589  18.072  0.00  0.00    +0.000 A 
ATOM      2  C   UNL     1       4.220   5.282  19.183  0.00  0.00    +0.000 A 
ATOM      3  C   UNL     1       3.140   6.094  19.527  0.00  0.00    +0.000 A 
ATOM      4  C   UNL     1       2.807   7.226  18.784  0.00  0.00    +0.000 A 
ATOM      5  C   UNL     1       3.562   7.508  17.638  0.00  0.00    +0.000 A 
ATOM      6  C   UNL     1       4.646   6.688  17.281  0.00  0.00    +0.000 A 
ENDROOT
BRANCH   4   7
ATOM      7  N   UNL     1       1.751   8.102  19.152  0.00  0.00    +0.000 N 
ATOM      8  C   UNL     1       1.398   9.262  18.474  0.00  0.00    +0.000 C 
ATOM      9  O   UNL     1       1.956   9.732  17.486  0.00  0.00    +0.000 OA
ATOM     10  H   UNL     1       1.192   7.825  19.942  0.00  0.00    +0.000 HD
BRANCH   8  11
ATOM     11  C   UNL     1       0.157   9.964  19.011  0.00  0.00    +0.000 C 
BRANCH  11  12
ATOM     12  C   UNL     1      -0.743  10.379  17.880  0.00  0.00    +0.000 C 
ATOM     13  C   UNL     1      -2.218  10.083  17.980  0.00  0.00    +0.000 C 
ATOM     14  C   UNL     1      -1.734  11.506  18.005  0.00  0.00    +0.000 C 
ENDBRANCH  11  12
ENDBRANCH   8  11
ENDBRANCH   4   7
BRANCH   1  15
ATOM     15  C   UNL     1       6.213   4.748  17.734  0.00  0.00    +0.000 C 
BRANCH  15  19
ATOM     16  C   UNL     1       6.642   4.303  14.234  0.00  0.00    +0.000 A 
ATOM     17  N   UNL     1       7.491   5.323  14.414  0.00  0.00    +0.000 NA
ATOM     18  O   UNL     1       7.392   5.583  15.783  0.00  0.00    +0.000 OA
ATOM     19  C   UNL     1       6.491   4.685  16.283  0.00  0.00    +0.000 A 
ATOM     20  N   UNL     1       5.986   3.889  15.367  0.00  0.00    +0.000 NA
BRANCH  16  22
ATOM     21  C   UNL     1       4.944   3.641  12.534  0.00  0.00    +0.000 C 
ATOM     22  C   UNL     1       6.429   3.659  12.906  0.00  0.00    +0.000 C 
ATOM     23  C   UNL     1       7.248   4.352  11.816  0.00  0.00    +0.000 C 
ENDBRANCH  16  22
ENDBRANCH  15  19
ENDBRANCH   1  15
TORSDOF 6
ENDMDL
MODEL 5
REMARK VINA RESULT:      -7.3      0.372      1.038
REMARK  Name = 
REMARK  8 active torsions:
REMARK  status: ('A' for Active; 'I' for Inactive)
REMARK    1  A    between atoms: C_1  and  C_2
REMARK    2  A    between atoms: C_2  and  C_3
REMARK    3  A    between atoms: C_2  and  C_4
REMARK    4  A    between atoms: C_7  and  C_8
REMARK    5  A    between atoms: C_8  and  C_9
REMARK    6  A    between atoms: C_12  and  N_13
REMARK    7  A    between atoms: C_14  and  C_16
REMARK    8  A    between atoms: C_16  and  C_17
REMARK                            x       y       z     vdW  Elec       q    Type
REMARK                         _______ _______ _______ _____ _____    ______ ____
ROOT
ATOM      1  C   UNL     1       5.902   5.442  16.102  0.00  0.00    +0.000 A 
ATOM      2  C   UNL     1       5.582   4.181  16.609  0.00  0.00    +0.000 A 
ATOM      3  C   UNL     1       4.581   4.043  17.570  0.00  0.00    +0.000 A 
ATOM      4  C   UNL     1       3.871   5.141  18.053  0.00  0.00    +0.000 A 
ATOM      5  C   UNL     1       4.153   6.401  17.508  0.00  0.00    +0.000 A 
ATOM      6  C   UNL     1       5.154   6.545  16.532  0.00  0.00    +0.000 A 
ENDROOT
BRANCH   4   7
ATOM      7  N   UNL     1       2.893   5.032  19.077  0.00  0.00    +0.000 N 
ATOM      8  C   UNL     1       1.716   4.300  18.988  0.00  0.00    +0.000 C 
ATOM      9  O   UNL     1       1.315   3.672  18.011  0.00  0.00    +0.000 OA
ATOM     10  H   UNL     1       3.105   5.488  19.950  0.00  0.00    +0.000 HD
BRANCH   8  11
ATOM     11  C   UNL     1       0.891   4.257  20.269  0.00  0.00    +0.000 C 
BRANCH  11  12
ATOM     12  C   UNL     1       1.725   3.747  21.412  0.00  0.00    +0.000 C 
ATOM     13  C   UNL     1       1.332   2.452  22.076  0.00  0.00    +0.000 C 
ATOM     14  C   UNL     1       2.612   2.536  21.292  0.00  0.00    +0.000 C 
ENDBRANCH  11  12
ENDBRANCH   8  11
ENDBRANCH   4   7
BRANCH   1  15
ATOM     15  C   UNL     1       7.027   5.602  15.108  0.00  0.00    +0.000 C 
BRANCH  15  19
ATOM     16  C   UNL     1       6.352   3.421  12.384  0.00  0.00    +0.000 A 
ATOM     17  N   UNL     1       7.293   4.180  11.808  0.00  0.00    +0.000 NA
ATOM     18  O   UNL     1       7.629   5.090  12.813  0.00  0.00    +0.000 OA
ATOM     19  C   UNL     1       6.852   4.778  13.893  0.00  0.00    +0.000 A 
ATOM     20  N   UNL     1       6.036   3.772  13.674  0.00  0.00    +0.000 NA
BRANCH  16  22
ATOM     21  C   UNL     1       4.464   2.736  10.910  0.00  0.00    +0.000 C 
ATOM     22  C   UNL     1       5.702   2.277  11.684  0.00  0.00    +0.000 C 
ATOM     23  C   UNL     1       6.685   1.566  10.753  0.00  0.00    +0.000 C 
ENDBRANCH  16  22
ENDBRANCH  15  19
ENDBRANCH   1  15
TORSDOF 6
ENDMDL
MODEL 6
REMARK VINA RESULT:      -7.3      3.876      7.872
REMARK  Name = 
REMARK  8 active torsions:
REMARK  status: ('A' for Active; 'I' for Inactive)
REMARK    1  A    between atoms: C_1  and  C_2
REMARK    2  A    between atoms: C_2  and  C_3
REMARK    3  A    between atoms: C_2  and  C_4
REMARK    4  A    between atoms: C_7  and  C_8
REMARK    5  A    between atoms: C_8  and  C_9
REMARK    6  A    between atoms: C_12  and  N_13
REMARK    7  A    between atoms: C_14  and  C_16
REMARK    8  A    between atoms: C_16  and  C_17
REMARK                            x       y       z     vdW  Elec       q    Type
REMARK                         _______ _______ _______ _____ _____    ______ ____
ROOT
ATOM      1  C   UNL     1       5.266   4.722  16.942  0.00  0.00    +0.000 A 
ATOM      2  C   UNL     1       6.655   4.747  16.809  0.00  0.00    +0.000 A 
ATOM      3  C   UNL     1       7.350   5.951  16.920  0.00  0.00    +0.000 A 
ATOM      4  C   UNL     1       6.696   7.157  17.168  0.00  0.00    +0.000 A 
ATOM      5  C   UNL     1       5.307   7.127  17.354  0.00  0.00    +0.000 A 
ATOM      6  C   UNL     1       4.602   5.915  17.252  0.00  0.00    +0.000 A 
ENDROOT
BRANCH   4   7
ATOM      7  N   UNL     1       7.376   8.403  17.221  0.00  0.00    +0.000 N 
ATOM      8  C   UNL     1       8.335   8.753  18.163  0.00  0.00    +0.000 C 
ATOM      9  O   UNL     1       8.714   8.071  19.112  0.00  0.00    +0.000 OA
ATOM     10  H   UNL     1       7.173   9.057  16.483  0.00  0.00    +0.000 HD
BRANCH   8  11
ATOM     11  C   UNL     1       8.992  10.108  17.932  0.00  0.00    +0.000 C 
BRANCH  11  12
ATOM     12  C   UNL     1       9.506  10.670  19.229  0.00  0.00    +0.000 C 
ATOM     13  C   UNL     1      10.766  11.499  19.212  0.00  0.00    +0.000 C 
ATOM     14  C   UNL     1       9.449  12.140  19.554  0.00  0.00    +0.000 C 
ENDBRANCH  11  12
ENDBRANCH   8  11
ENDBRANCH   4   7
BRANCH   1  15
ATOM     15  C   UNL     1       4.505   3.431  16.759  0.00  0.00    +0.000 C 
BRANCH  15  19
ATOM     16  C   UNL     1       1.713   3.389  18.959  0.00  0.00    +0.000 A 
ATOM     17  N   UNL     1       1.088   3.030  17.830  0.00  0.00    +0.000 NA
ATOM     18  O   UNL     1       2.116   3.021  16.885  0.00  0.00    +0.000 OA
ATOM     19  C   UNL     1       3.256   3.375  17.549  0.00  0.00    +0.000 A 
ATOM     20  N   UNL     1       3.059   3.631  18.823  0.00  0.00    +0.000 NA
BRANCH  16  22
ATOM     21  C   UNL     1       1.591   2.544  21.299  0.00  0.00    +0.000 C 
ATOM     22  C   UNL     1       1.007   3.510  20.266  0.00  0.00    +0.000 C 
ATOM     23  C   UNL     1       1.049   4.947  20.789  0.00  0.00    +0.000 C 
ENDBRANCH  16  22
ENDBRANCH  15  19
ENDBRANCH   1  15
TORSDOF 6
ENDMDL
MODEL 7
REMARK VINA RESULT:      -7.2      0.512      1.336
REMARK  Name = 
REMARK  8 active torsions:
REMARK  status: ('A' for Active; 'I' for Inactive)
REMARK    1  A    between atoms: C_1  and  C_2
REMARK    2  A    between atoms: C_2  and  C_3
REMARK    3  A    between atoms: C_2  and  C_4
REMARK    4  A    between atoms: C_7  and  C_8
REMARK    5  A    between atoms: C_8  and  C_9
REMARK    6  A    between atoms: C_12  and  N_13
REMARK    7  A    between atoms: C_14  and  C_16
REMARK    8  A    between atoms: C_16  and  C_17
REMARK                            x       y       z     vdW  Elec       q    Type
REMARK                         _______ _______ _______ _____ _____    ______ ____
ROOT
ATOM      1  C   UNL     1       6.433   5.135  16.327  0.00  0.00    +0.000 A 
ATOM      2  C   UNL     1       6.599   4.421  17.515  0.00  0.00    +0.000 A 
ATOM      3  C   UNL     1       5.565   4.360  18.449  0.00  0.00    +0.000 A 
ATOM      4  C   UNL     1       4.343   4.996  18.235  0.00  0.00    +0.000 A 
ATOM      5  C   UNL     1       4.155   5.669  17.020  0.00  0.00    +0.000 A 
ATOM      6  C   UNL     1       5.190   5.727  16.071  0.00  0.00    +0.000 A 
ENDROOT
BRANCH   4   7
ATOM      7  N   UNL     1       3.301   5.000  19.199  0.00  0.00    +0.000 N 
ATOM      8  C   UNL     1       2.064   4.388  19.045  0.00  0.00    +0.000 C 
ATOM      9  O   UNL     1       1.660   3.789  18.051  0.00  0.00    +0.000 OA
ATOM     10  H   UNL     1       3.505   5.445  20.079  0.00  0.00    +0.000 HD
BRANCH   8  11
ATOM     11  C   UNL     1       1.165   4.446  20.274  0.00  0.00    +0.000 C 
BRANCH  11  12
ATOM     12  C   UNL     1       1.848   3.812  21.455  0.00  0.00    +0.000 C 
ATOM     13  C   UNL     1       1.398   2.445  21.905  0.00  0.00    +0.000 C 
ATOM     14  C   UNL     1       2.770   2.628  21.318  0.00  0.00    +0.000 C 
ENDBRANCH  11  12
ENDBRANCH   8  11
ENDBRANCH   4   7
BRANCH   1  15
ATOM     15  C   UNL     1       7.571   5.255  15.343  0.00  0.00    +0.000 C 
BRANCH  15  19
ATOM     16  C   UNL     1       6.482   3.903  12.242  0.00  0.00    +0.000 A 
ATOM     17  N   UNL     1       7.384   4.776  11.777  0.00  0.00    +0.000 NA
ATOM     18  O   UNL     1       7.878   5.375  12.938  0.00  0.00    +0.000 OA
ATOM     19  C   UNL     1       7.217   4.793  13.983  0.00  0.00    +0.000 A 
ATOM     20  N   UNL     1       6.334   3.896  13.608  0.00  0.00    +0.000 NA
BRANCH  16  22
ATOM     21  C   UNL     1       6.073   1.535  11.585  0.00  0.00    +0.000 C 
ATOM     22  C   UNL     1       5.701   3.000  11.348  0.00  0.00    +0.000 C 
ATOM     23  C   UNL     1       4.197   3.209  11.527  0.00  0.00    +0.000 C 
ENDBRANCH  16  22
ENDBRANCH  15  19
ENDBRANCH   1  15
TORSDOF 6
ENDMDL
MODEL 8
REMARK VINA RESULT:      -7.2      4.142      7.809
REMARK  Name = 
REMARK  8 active torsions:
REMARK  status: ('A' for Active; 'I' for Inactive)
REMARK    1  A    between atoms: C_1  and  C_2
REMARK    2  A    between atoms: C_2  and  C_3
REMARK    3  A    between atoms: C_2  and  C_4
REMARK    4  A    between atoms: C_7  and  C_8
REMARK    5  A    between atoms: C_8  and  C_9
REMARK    6  A    between atoms: C_12  and  N_13
REMARK    7  A    between atoms: C_14  and  C_16
REMARK    8  A    between atoms: C_16  and  C_17
REMARK                            x       y       z     vdW  Elec       q    Type
REMARK                         _______ _______ _______ _____ _____    ______ ____
ROOT
ATOM      1  C   UNL     1       5.655   5.115  17.182  0.00  0.00    +0.000 A 
ATOM      2  C   UNL     1       6.622   4.695  18.097  0.00  0.00    +0.000 A 
ATOM      3  C   UNL     1       7.557   5.600  18.598  0.00  0.00    +0.000 A 
ATOM      4  C   UNL     1       7.560   6.940  18.215  0.00  0.00    +0.000 A 
ATOM      5  C   UNL     1       6.558   7.377  17.337  0.00  0.00    +0.000 A 
ATOM      6  C   UNL     1       5.608   6.471  16.835  0.00  0.00    +0.000 A 
ENDROOT
BRANCH   4   7
ATOM      7  N   UNL     1       8.540   7.865  18.663  0.00  0.00    +0.000 N 
ATOM      8  C   UNL     1       8.554   9.223  18.374  0.00  0.00    +0.000 C 
ATOM      9  O   UNL     1       7.758   9.829  17.660  0.00  0.00    +0.000 OA
ATOM     10  H   UNL     1       9.250   7.503  19.279  0.00  0.00    +0.000 HD
BRANCH   8  11
ATOM     11  C   UNL     1       9.654  10.014  19.070  0.00  0.00    +0.000 C 
BRANCH  11  12
ATOM     12  C   UNL     1       9.086  11.247  19.718  0.00  0.00    +0.000 C 
ATOM     13  C   UNL     1       9.364  11.493  21.179  0.00  0.00    +0.000 C 
ATOM     14  C   UNL     1       9.944  12.410  20.139  0.00  0.00    +0.000 C 
ENDBRANCH  11  12
ENDBRANCH   8  11
ENDBRANCH   4   7
BRANCH   1  15
ATOM     15  C   UNL     1       4.683   4.125  16.589  0.00  0.00    +0.000 C 
BRANCH  15  19
ATOM     16  C   UNL     1       1.930   3.892  18.824  0.00  0.00    +0.000 A 
ATOM     17  N   UNL     1       1.433   3.167  17.814  0.00  0.00    +0.000 NA
ATOM     18  O   UNL     1       2.455   3.201  16.863  0.00  0.00    +0.000 OA
ATOM     19  C   UNL     1       3.464   3.944  17.407  0.00  0.00    +0.000 A 
ATOM     20  N   UNL     1       3.183   4.409  18.603  0.00  0.00    +0.000 NA
BRANCH  16  22
ATOM     21  C   UNL     1       1.374   2.943  21.059  0.00  0.00    +0.000 C 
ATOM     22  C   UNL     1       1.184   4.117  20.096  0.00  0.00    +0.000 C 
ATOM     23  C   UNL     1       1.601   5.430  20.758  0.00  0.00    +0.000 C 
ENDBRANCH  16  22
ENDBRANCH  15  19
ENDBRANCH   1  15
TORSDOF 6
ENDMDL
MODEL 9
REMARK VINA RESULT:      -7.1      5.444      8.783
REMARK  Name = 
REMARK  8 active torsions:
REMARK  status: ('A' for Active; 'I' for Inactive)
REMARK    1  A    between atoms: C_1  and  C_2
REMARK    2  A    between atoms: C_2  and  C_3
REMARK    3  A    between atoms: C_2  and  C_4
REMARK    4  A    between atoms: C_7  and  C_8
REMARK    5  A    between atoms: C_8  and  C_9
REMARK    6  A    between atoms: C_12  and  N_13
REMARK    7  A    between atoms: C_14  and  C_16
REMARK    8  A    between atoms: C_16  and  C_17
REMARK                            x       y       z     vdW  Elec       q    Type
REMARK                         _______ _______ _______ _____ _____    ______ ____
ROOT
ATOM      1  C   UNL     1       1.294   9.055  19.619  0.00  0.00    +0.000 A 
ATOM      2  C   UNL     1       1.724   9.090  18.291  0.00  0.00    +0.000 A 
ATOM      3  C   UNL     1       2.482   8.042  17.769  0.00  0.00    +0.000 A 
ATOM      4  C   UNL     1       2.831   6.933  18.540  0.00  0.00    +0.000 A 
ATOM      5  C   UNL     1       2.356   6.870  19.857  0.00  0.00    +0.000 A 
ATOM      6  C   UNL     1       1.585   7.919  20.386  0.00  0.00    +0.000 A 
ENDROOT
BRANCH   4   7
ATOM      7  N   UNL     1       3.654   5.886  18.048  0.00  0.00    +0.000 N 
ATOM      8  C   UNL     1       3.199   4.658  17.585  0.00  0.00    +0.000 C 
ATOM      9  O   UNL     1       2.034   4.268  17.565  0.00  0.00    +0.000 OA
ATOM     10  H   UNL     1       4.641   6.080  17.991  0.00  0.00    +0.000 HD
BRANCH   8  11
ATOM     11  C   UNL     1       4.280   3.752  17.009  0.00  0.00    +0.000 C 
BRANCH  11  12
ATOM     12  C   UNL     1       5.422   4.572  16.474  0.00  0.00    +0.000 C 
ATOM     13  C   UNL     1       6.396   3.925  15.523  0.00  0.00    +0.000 C 
ATOM     14  C   UNL     1       5.492   5.025  15.039  0.00  0.00    +0.000 C 
ENDBRANCH  11  12
ENDBRANCH   8  11
ENDBRANCH   4   7
BRANCH   1  15
ATOM     15  C   UNL     1       0.528  10.216  20.204  0.00  0.00    +0.000 C 
BRANCH  15  19
ATOM     16  C   UNL     1      -1.891  11.360  17.866  0.00  0.00    +0.000 A 
ATOM     17  N   UNL     1      -1.231  12.510  18.054  0.00  0.00    +0.000 NA
ATOM     18  O   UNL     1      -0.243  12.164  18.978  0.00  0.00    +0.000 OA
ATOM     19  C   UNL     1      -0.414  10.835  19.247  0.00  0.00    +0.000 A 
ATOM     20  N   UNL     1      -1.426  10.298  18.603  0.00  0.00    +0.000 NA
BRANCH  16  22
ATOM     21  C   UNL     1      -3.015   9.888  16.199  0.00  0.00    +0.000 C 
ATOM     22  C   UNL     1      -3.039  11.236  16.922  0.00  0.00    +0.000 C 
ATOM     23  C   UNL     1      -4.373  11.436  17.643  0.00  0.00    +0.000 C 
ENDBRANCH  16  22
ENDBRANCH  15  19
ENDBRANCH   1  15
TORSDOF 6
ENDMDL
