MODEL 1
REMARK VINA RESULT:      -8.0      0.000      0.000
REMARK  Name = 
REMARK  9 active torsions:
REMARK  status: ('A' for Active; 'I' for Inactive)
REMARK    1  A    between atoms: C_1  and  C_2
REMARK    2  A    between atoms: C_2  and  N_3
REMARK    3  A    between atoms: C_2  and  C_19
REMARK    4  A    between atoms: C_8  and  N_9
REMARK    5  A    between atoms: C_14  and  C_15
REMARK    6  A    between atoms: C_15  and  C_16
REMARK    7  A    between atoms: C_15  and  O_17
REMARK    8  A    between atoms: C_22  and  C_23
REMARK    9  A    between atoms: C_27  and  C_28
REMARK                            x       y       z     vdW  Elec       q    Type
REMARK                         _______ _______ _______ _____ _____    ______ ____
ROOT
ATOM      1  C   UNL     1       0.644   9.177  22.571  0.00  0.00    +0.000 C 
ATOM      2  C   UNL     1       0.851   9.592  21.109  0.00  0.00    +0.000 C 
ENDROOT
BRANCH   2   3
ATOM      3  N   UNL     1      -0.431  10.040  20.572  0.00  0.00    +0.000 N 
ATOM      4  C   UNL     1      -0.394  11.167  19.773  0.00  0.00    +0.000 A 
ATOM      5  N   UNL     1      -1.303  11.233  18.794  0.00  0.00    +0.000 NA
ATOM      6  C   UNL     1      -1.304  12.342  18.038  0.00  0.00    +0.000 A 
ATOM      7  C   UNL     1      -0.445  13.397  18.234  0.00  0.00    +0.000 A 
ATOM      8  C   UNL     1       0.461  13.230  19.251  0.00  0.00    +0.000 A 
ATOM      9  N   UNL     1       0.512  12.125  20.010  0.00  0.00    +0.000 NA
ATOM     10  H   UNL     1      -0.940   9.322  20.068  0.00  0.00    +0.000 HD
BRANCH   8  11
ATOM     11  N   UNL     1       1.389  14.236  19.550  0.00  0.00    +0.000 N 
ATOM     12  C   UNL     1       2.646  14.242  18.991  0.00  0.00    +0.000 C 
ATOM     13  O   UNL     1       3.154  13.401  18.272  0.00  0.00    +0.000 OA
ATOM     14  O   UNL     1       3.257  15.434  19.277  0.00  0.00    +0.000 OA
ATOM     15  C   UNL     1       2.460  16.129  20.239  0.00  0.00    +0.000 C 
ATOM     16  C   UNL     1       1.084  15.482  20.183  0.00  0.00    +0.000 C 
BRANCH  16  17
ATOM     17  C   UNL     1       0.463  15.336  21.596  0.00  0.00    +0.000 C 
ATOM     18  C   UNL     1      -1.058  15.223  21.580  0.00  0.00    +0.000 C 
BRANCH  17  19
ATOM     19  O   UNL     1       0.958  14.192  22.292  0.00  0.00    +0.000 OA
ATOM     20  H   UNL     1       1.031  14.389  23.240  0.00  0.00    +0.000 HD
ENDBRANCH  17  19
ENDBRANCH  16  17
ENDBRANCH   8  11
ENDBRANCH   2   3
BRANCH   2  21
ATOM     21  C   UNL     1       1.412   8.433  20.290  0.00  0.00    +0.000 A 
ATOM     22  C   UNL     1       1.836   8.647  18.982  0.00  0.00    +0.000 A 
ATOM     23  C   UNL     1       2.384   7.583  18.263  0.00  0.00    +0.000 A 
ATOM     24  C   UNL     1       2.523   6.317  18.849  0.00  0.00    +0.000 A 
ATOM     25  C   UNL     1       2.030   6.203  20.148  0.00  0.00    +0.000 A 
ATOM     26  N   UNL     1       1.466   7.205  20.864  0.00  0.00    +0.000 NA
BRANCH  24  27
ATOM     27  C   UNL     1       3.185   5.193  18.156  0.00  0.00    +0.000 A 
ATOM     28  C   UNL     1       2.883   3.860  18.458  0.00  0.00    +0.000 A 
ATOM     29  C   UNL     1       3.568   2.842  17.815  0.00  0.00    +0.000 A 
ATOM     30  N   UNL     1       4.528   3.051  16.891  0.00  0.00    +0.000 NA
ATOM     31  C   UNL     1       4.831   4.339  16.580  0.00  0.00    +0.000 A 
ATOM     32  C   UNL     1       4.180   5.417  17.188  0.00  0.00    +0.000 A 
BRANCH  31  33
ATOM     33  C   UNL     1       5.923   4.633  15.558  0.00  0.00    +0.000 C 
ATOM     34  F   UNL     1       7.164   4.811  16.093  0.00  0.00    +0.000 F 
ATOM     35  F   UNL     1       6.057   3.634  14.636  0.00  0.00    +0.000 F 
ATOM     36  F   UNL     1       5.667   5.763  14.834  0.00  0.00    +0.000 F 
ENDBRANCH  31  33
ENDBRANCH  24  27
ENDBRANCH   2  21
TORSDOF 7
ENDMDL
MODEL 2
REMARK VINA RESULT:      -8.0      5.663     10.370
REMARK  Name = 
REMARK  9 active torsions:
REMARK  status: ('A' for Active; 'I' for Inactive)
REMARK    1  A    between atoms: C_1  and  C_2
REMARK    2  A    between atoms: C_2  and  N_3
REMARK    3  A    between atoms: C_2  and  C_19
REMARK    4  A    between atoms: C_8  and  N_9
REMARK    5  A    between atoms: C_14  and  C_15
REMARK    6  A    between atoms: C_15  and  C_16
REMARK    7  A    between atoms: C_15  and  O_17
REMARK    8  A    between atoms: C_22  and  C_23
REMARK    9  A    between atoms: C_27  and  C_28
REMARK                            x       y       z     vdW  Elec       q    Type
REMARK                         _______ _______ _______ _____ _____    ______ ____
ROOT
ATOM      1  C   UNL     1       2.339   8.229  17.994  0.00  0.00    +0.000 C 
ATOM      2  C   UNL     1       2.236   7.821  19.469  0.00  0.00    +0.000 C 
ENDROOT
BRANCH   2   3
ATOM      3  N   UNL     1       1.691   6.468  19.535  0.00  0.00    +0.000 N 
ATOM      4  C   UNL     1       2.616   5.442  19.566  0.00  0.00    +0.000 A 
ATOM      5  N   UNL     1       2.267   4.344  20.246  0.00  0.00    +0.000 NA
ATOM      6  C   UNL     1       3.140   3.325  20.247  0.00  0.00    +0.000 A 
ATOM      7  C   UNL     1       4.340   3.351  19.578  0.00  0.00    +0.000 A 
ATOM      8  C   UNL     1       4.617   4.524  18.922  0.00  0.00    +0.000 A 
ATOM      9  N   UNL     1       3.783   5.576  18.922  0.00  0.00    +0.000 NA
ATOM     10  H   UNL     1       1.044   6.322  20.302  0.00  0.00    +0.000 HD
BRANCH   8  11
ATOM     11  N   UNL     1       5.810   4.673  18.204  0.00  0.00    +0.000 N 
ATOM     12  C   UNL     1       6.980   5.048  18.823  0.00  0.00    +0.000 C 
ATOM     13  O   UNL     1       7.145   5.372  19.985  0.00  0.00    +0.000 OA
ATOM     14  O   UNL     1       8.019   4.906  17.942  0.00  0.00    +0.000 OA
ATOM     15  C   UNL     1       7.476   4.646  16.645  0.00  0.00    +0.000 C 
ATOM     16  C   UNL     1       6.044   4.189  16.878  0.00  0.00    +0.000 C 
BRANCH  16  17
ATOM     17  C   UNL     1       5.078   4.770  15.814  0.00  0.00    +0.000 C 
ATOM     18  C   UNL     1       5.156   6.289  15.691  0.00  0.00    +0.000 C 
BRANCH  17  19
ATOM     19  O   UNL     1       5.318   4.235  14.512  0.00  0.00    +0.000 OA
ATOM     20  H   UNL     1       6.220   3.879  14.464  0.00  0.00    +0.000 HD
ENDBRANCH  17  19
ENDBRANCH  16  17
ENDBRANCH   8  11
ENDBRANCH   2   3
BRANCH   2  21
ATOM     21  C   UNL     1       1.360   8.802  20.243  0.00  0.00    +0.000 A 
ATOM     22  C   UNL     1       1.064   8.565  21.581  0.00  0.00    +0.000 A 
ATOM     23  C   UNL     1       0.295   9.494  22.284  0.00  0.00    +0.000 A 
ATOM     24  C   UNL     1      -0.164  10.663  21.660  0.00  0.00    +0.000 A 
ATOM     25  C   UNL     1       0.155  10.783  20.308  0.00  0.00    +0.000 A 
ATOM     26  N   UNL     1       0.873   9.886  19.589  0.00  0.00    +0.000 NA
BRANCH  24  27
ATOM     27  C   UNL     1      -0.897  11.716  22.393  0.00  0.00    +0.000 A 
ATOM     28  C   UNL     1      -2.090  11.445  23.073  0.00  0.00    +0.000 A 
ATOM     29  C   UNL     1      -2.764  12.479  23.703  0.00  0.00    +0.000 A 
ATOM     30  N   UNL     1      -2.340  13.758  23.709  0.00  0.00    +0.000 NA
ATOM     31  C   UNL     1      -1.180  14.039  23.058  0.00  0.00    +0.000 A 
ATOM     32  C   UNL     1      -0.445  13.046  22.402  0.00  0.00    +0.000 A 
BRANCH  31  33
ATOM     33  C   UNL     1      -0.664  15.472  23.016  0.00  0.00    +0.000 C 
ATOM     34  F   UNL     1      -0.865  16.178  24.165  0.00  0.00    +0.000 F 
ATOM     35  F   UNL     1       0.678  15.537  22.771  0.00  0.00    +0.000 F 
ATOM     36  F   UNL     1      -1.250  16.206  22.024  0.00  0.00    +0.000 F 
ENDBRANCH  31  33
ENDBRANCH  24  27
ENDBRANCH   2  21
TORSDOF 7
ENDMDL
MODEL 3
REMARK VINA RESULT:      -8.0      3.697      5.294
REMARK  Name = 
REMARK  9 active torsions:
REMARK  status: ('A' for Active; 'I' for Inactive)
REMARK    1  A    between atoms: C_1  and  C_2
REMARK    2  A    between atoms: C_2  and  N_3
REMARK    3  A    between atoms: C_2  and  C_19
REMARK    4  A    between atoms: C_8  and  N_9
REMARK    5  A    between atoms: C_14  and  C_15
REMARK    6  A    between atoms: C_15  and  C_16
REMARK    7  A    between atoms: C_15  and  O_17
REMARK    8  A    between atoms: C_22  and  C_23
REMARK    9  A    between atoms: C_27  and  C_28
REMARK                            x       y       z     vdW  Elec       q    Type
REMARK                         _______ _______ _______ _____ _____    ______ ____
ROOT
ATOM      1  C   UNL     1       1.636  12.657  18.298  0.00  0.00    +0.000 C 
ATOM      2  C   UNL     1       0.768  11.746  19.174  0.00  0.00    +0.000 C 
ENDROOT
BRANCH   2   3
ATOM      3  N   UNL     1       0.802  12.254  20.543  0.00  0.00    +0.000 N 
ATOM      4  C   UNL     1      -0.379  12.161  21.255  0.00  0.00    +0.000 A 
ATOM      5  N   UNL     1      -0.266  11.983  22.576  0.00  0.00    +0.000 NA
ATOM      6  C   UNL     1      -1.406  11.935  23.283  0.00  0.00    +0.000 A 
ATOM      7  C   UNL     1      -2.654  12.077  22.725  0.00  0.00    +0.000 A 
ATOM      8  C   UNL     1      -2.668  12.241  21.363  0.00  0.00    +0.000 A 
ATOM      9  N   UNL     1      -1.552  12.266  20.618  0.00  0.00    +0.000 NA
ATOM     10  H   UNL     1       1.537  11.851  21.113  0.00  0.00    +0.000 HD
BRANCH   8  11
ATOM     11  N   UNL     1      -3.880  12.397  20.677  0.00  0.00    +0.000 N 
ATOM     12  C   UNL     1      -5.063  12.604  21.348  0.00  0.00    +0.000 C 
ATOM     13  O   UNL     1      -5.258  12.599  22.550  0.00  0.00    +0.000 OA
ATOM     14  O   UNL     1      -6.037  12.939  20.444  0.00  0.00    +0.000 OA
ATOM     15  C   UNL     1      -5.523  12.721  19.128  0.00  0.00    +0.000 C 
ATOM     16  C   UNL     1      -4.010  12.663  19.277  0.00  0.00    +0.000 C 
BRANCH  16  17
ATOM     17  C   UNL     1      -3.389  11.572  18.368  0.00  0.00    +0.000 C 
ATOM     18  C   UNL     1      -4.394  10.933  17.414  0.00  0.00    +0.000 C 
BRANCH  17  19
ATOM     19  O   UNL     1      -2.320  12.077  17.567  0.00  0.00    +0.000 OA
ATOM     20  H   UNL     1      -2.676  12.468  16.752  0.00  0.00    +0.000 HD
ENDBRANCH  17  19
ENDBRANCH  16  17
ENDBRANCH   8  11
ENDBRANCH   2   3
BRANCH   2  21
ATOM     21  C   UNL     1       1.263  10.303  19.114  0.00  0.00    +0.000 A 
ATOM     22  C   UNL     1       1.892   9.831  17.966  0.00  0.00    +0.000 A 
ATOM     23  C   UNL     1       2.374   8.521  17.945  0.00  0.00    +0.000 A 
ATOM     24  C   UNL     1       2.244   7.691  19.068  0.00  0.00    +0.000 A 
ATOM     25  C   UNL     1       1.563   8.250  20.149  0.00  0.00    +0.000 A 
ATOM     26  N   UNL     1       1.056   9.505  20.191  0.00  0.00    +0.000 NA
BRANCH  24  27
ATOM     27  C   UNL     1       2.825   6.334  19.120  0.00  0.00    +0.000 A 
ATOM     28  C   UNL     1       3.981   5.998  18.403  0.00  0.00    +0.000 A 
ATOM     29  C   UNL     1       4.456   4.698  18.446  0.00  0.00    +0.000 A 
ATOM     30  N   UNL     1       3.872   3.708  19.151  0.00  0.00    +0.000 NA
ATOM     31  C   UNL     1       2.752   4.016  19.858  0.00  0.00    +0.000 A 
ATOM     32  C   UNL     1       2.216   5.308  19.862  0.00  0.00    +0.000 A 
BRANCH  31  33
ATOM     33  C   UNL     1       2.040   2.931  20.655  0.00  0.00    +0.000 C 
ATOM     34  F   UNL     1       1.809   1.780  19.961  0.00  0.00    +0.000 F 
ATOM     35  F   UNL     1       2.738   2.558  21.768  0.00  0.00    +0.000 F 
ATOM     36  F   UNL     1       0.819   3.338  21.112  0.00  0.00    +0.000 F 
ENDBRANCH  31  33
ENDBRANCH  24  27
ENDBRANCH   2  21
TORSDOF 7
ENDMDL
MODEL 4
REMARK VINA RESULT:      -7.9      0.910      2.159
REMARK  Name = 
REMARK  9 active torsions:
REMARK  status: ('A' for Active; 'I' for Inactive)
REMARK    1  A    between atoms: C_1  and  C_2
REMARK    2  A    between atoms: C_2  and  N_3
REMARK    3  A    between atoms: C_2  and  C_19
REMARK    4  A    between atoms: C_8  and  N_9
REMARK    5  A    between atoms: C_14  and  C_15
REMARK    6  A    between atoms: C_15  and  C_16
REMARK    7  A    between atoms: C_15  and  O_17
REMARK    8  A    between atoms: C_22  and  C_23
REMARK    9  A    between atoms: C_27  and  C_28
REMARK                            x       y       z     vdW  Elec       q    Type
REMARK                         _______ _______ _______ _____ _____    ______ ____
ROOT
ATOM      1  C   UNL     1       0.330   9.270  22.690  0.00  0.00    +0.000 C 
ATOM      2  C   UNL     1       0.663   9.704  21.257  0.00  0.00    +0.000 C 
ENDROOT
BRANCH   2   3
ATOM      3  N   UNL     1      -0.575  10.115  20.602  0.00  0.00    +0.000 N 
ATOM      4  C   UNL     1      -0.501  11.257  19.826  0.00  0.00    +0.000 A 
ATOM      5  N   UNL     1      -1.310  11.309  18.762  0.00  0.00    +0.000 NA
ATOM      6  C   UNL     1      -1.277  12.432  18.027  0.00  0.00    +0.000 A 
ATOM      7  C   UNL     1      -0.482  13.513  18.323  0.00  0.00    +0.000 A 
ATOM      8  C   UNL     1       0.324  13.359  19.424  0.00  0.00    +0.000 A 
ATOM      9  N   UNL     1       0.340  12.242  20.168  0.00  0.00    +0.000 NA
ATOM     10  H   UNL     1      -1.004   9.389  20.039  0.00  0.00    +0.000 HD
BRANCH   8  11
ATOM     11  N   UNL     1       1.180  14.391  19.829  0.00  0.00    +0.000 N 
ATOM     12  C   UNL     1       0.767  15.361  20.713  0.00  0.00    +0.000 C 
ATOM     13  O   UNL     1      -0.342  15.525  21.187  0.00  0.00    +0.000 OA
ATOM     14  O   UNL     1       1.852  16.105  21.099  0.00  0.00    +0.000 OA
ATOM     15  C   UNL     1       2.959  15.750  20.267  0.00  0.00    +0.000 C 
ATOM     16  C   UNL     1       2.598  14.410  19.644  0.00  0.00    +0.000 C 
BRANCH  16  17
ATOM     17  C   UNL     1       3.042  14.332  18.161  0.00  0.00    +0.000 C 
ATOM     18  C   UNL     1       4.325  15.107  17.871  0.00  0.00    +0.000 C 
BRANCH  17  19
ATOM     19  O   UNL     1       3.263  12.989  17.729  0.00  0.00    +0.000 OA
ATOM     20  H   UNL     1       3.826  12.525  18.370  0.00  0.00    +0.000 HD
ENDBRANCH  17  19
ENDBRANCH  16  17
ENDBRANCH   8  11
ENDBRANCH   2   3
BRANCH   2  21
ATOM     21  C   UNL     1       1.337   8.569  20.490  0.00  0.00    +0.000 A 
ATOM     22  C   UNL     1       1.433   7.304  21.061  0.00  0.00    +0.000 A 
ATOM     23  C   UNL     1       2.016   6.269  20.328  0.00  0.00    +0.000 A 
ATOM     24  C   UNL     1       2.487   6.490  19.026  0.00  0.00    +0.000 A 
ATOM     25  C   UNL     1       2.379   7.802  18.565  0.00  0.00    +0.000 A 
ATOM     26  N   UNL     1       1.847   8.836  19.262  0.00  0.00    +0.000 NA
BRANCH  24  27
ATOM     27  C   UNL     1       3.022   5.401  18.182  0.00  0.00    +0.000 A 
ATOM     28  C   UNL     1       2.461   4.119  18.191  0.00  0.00    +0.000 A 
ATOM     29  C   UNL     1       3.032   3.120  17.419  0.00  0.00    +0.000 A 
ATOM     30  N   UNL     1       4.114   3.302  16.637  0.00  0.00    +0.000 NA
ATOM     31  C   UNL     1       4.669   4.543  16.611  0.00  0.00    +0.000 A 
ATOM     32  C   UNL     1       4.146   5.599  17.363  0.00  0.00    +0.000 A 
BRANCH  31  33
ATOM     33  C   UNL     1       5.907   4.799  15.760  0.00  0.00    +0.000 C 
ATOM     34  F   UNL     1       6.964   5.322  16.444  0.00  0.00    +0.000 F 
ATOM     35  F   UNL     1       6.376   3.663  15.165  0.00  0.00    +0.000 F 
ATOM     36  F   UNL     1       5.663   5.669  14.736  0.00  0.00    +0.000 F 
ENDBRANCH  31  33
ENDBRANCH  24  27
ENDBRANCH   2  21
TORSDOF 7
ENDMDL
MODEL 5
REMARK VINA RESULT:      -7.9      2.576      3.987
REMARK  Name = 
REMARK  9 active torsions:
REMARK  status: ('A' for Active; 'I' for Inactive)
REMARK    1  A    between atoms: C_1  and  C_2
REMARK    2  A    between atoms: C_2  and  N_3
REMARK    3  A    between atoms: C_2  and  C_19
REMARK    4  A    between atoms: C_8  and  N_9
REMARK    5  A    between atoms: C_14  and  C_15
REMARK    6  A    between atoms: C_15  and  C_16
REMARK    7  A    between atoms: C_15  and  O_17
REMARK    8  A    between atoms: C_22  and  C_23
REMARK    9  A    between atoms: C_27  and  C_28
REMARK                            x       y       z     vdW  Elec       q    Type
REMARK                         _______ _______ _______ _____ _____    ______ ____
ROOT
ATOM      1  C   UNL     1      -1.118  10.494  17.814  0.00  0.00    +0.000 C 
ATOM      2  C   UNL     1      -0.183  10.540  19.029  0.00  0.00    +0.000 C 
ENDROOT
BRANCH   2   3
ATOM      3  N   UNL     1       0.446  11.857  19.076  0.00  0.00    +0.000 N 
ATOM      4  C   UNL     1       0.185  12.613  20.203  0.00  0.00    +0.000 A 
ATOM      5  N   UNL     1       1.157  13.443  20.602  0.00  0.00    +0.000 NA
ATOM      6  C   UNL     1       0.899  14.213  21.670  0.00  0.00    +0.000 A 
ATOM      7  C   UNL     1      -0.299  14.203  22.344  0.00  0.00    +0.000 A 
ATOM      8  C   UNL     1      -1.227  13.310  21.870  0.00  0.00    +0.000 A 
ATOM      9  N   UNL     1      -0.996  12.503  20.823  0.00  0.00    +0.000 NA
ATOM     10  H   UNL     1       1.451  11.839  18.943  0.00  0.00    +0.000 HD
BRANCH   8  11
ATOM     11  N   UNL     1      -2.487  13.207  22.472  0.00  0.00    +0.000 N 
ATOM     12  C   UNL     1      -2.815  12.137  23.273  0.00  0.00    +0.000 C 
ATOM     13  O   UNL     1      -2.156  11.140  23.503  0.00  0.00    +0.000 OA
ATOM     14  O   UNL     1      -4.007  12.394  23.898  0.00  0.00    +0.000 OA
ATOM     15  C   UNL     1      -4.578  13.567  23.312  0.00  0.00    +0.000 C 
ATOM     16  C   UNL     1      -3.436  14.271  22.594  0.00  0.00    +0.000 C 
BRANCH  16  17
ATOM     17  C   UNL     1      -3.895  14.865  21.238  0.00  0.00    +0.000 C 
ATOM     18  C   UNL     1      -3.139  16.131  20.845  0.00  0.00    +0.000 C 
BRANCH  17  19
ATOM     19  O   UNL     1      -3.745  13.940  20.160  0.00  0.00    +0.000 OA
ATOM     20  H   UNL     1      -4.608  13.557  19.932  0.00  0.00    +0.000 HD
ENDBRANCH  17  19
ENDBRANCH  16  17
ENDBRANCH   8  11
ENDBRANCH   2   3
BRANCH   2  21
ATOM     21  C   UNL     1       0.867   9.435  18.947  0.00  0.00    +0.000 A 
ATOM     22  C   UNL     1       1.138   8.649  20.063  0.00  0.00    +0.000 A 
ATOM     23  C   UNL     1       2.073   7.618  19.957  0.00  0.00    +0.000 A 
ATOM     24  C   UNL     1       2.723   7.360  18.742  0.00  0.00    +0.000 A 
ATOM     25  C   UNL     1       2.408   8.232  17.700  0.00  0.00    +0.000 A 
ATOM     26  N   UNL     1       1.529   9.261  17.776  0.00  0.00    +0.000 NA
BRANCH  24  27
ATOM     27  C   UNL     1       3.644   6.220  18.563  0.00  0.00    +0.000 A 
ATOM     28  C   UNL     1       3.448   5.002  19.226  0.00  0.00    +0.000 A 
ATOM     29  C   UNL     1       4.370   3.981  19.063  0.00  0.00    +0.000 A 
ATOM     30  N   UNL     1       5.468   4.078  18.288  0.00  0.00    +0.000 NA
ATOM     31  C   UNL     1       5.672   5.251  17.631  0.00  0.00    +0.000 A 
ATOM     32  C   UNL     1       4.784   6.324  17.747  0.00  0.00    +0.000 A 
BRANCH  31  33
ATOM     33  C   UNL     1       6.909   5.422  16.757  0.00  0.00    +0.000 C 
ATOM     34  F   UNL     1       7.599   6.578  16.975  0.00  0.00    +0.000 F 
ATOM     35  F   UNL     1       7.813   4.413  16.928  0.00  0.00    +0.000 F 
ATOM     36  F   UNL     1       6.609   5.417  15.425  0.00  0.00    +0.000 F 
ENDBRANCH  31  33
ENDBRANCH  24  27
ENDBRANCH   2  21
TORSDOF 7
ENDMDL
MODEL 6
REMARK VINA RESULT:      -7.9      2.939      4.157
REMARK  Name = 
REMARK  9 active torsions:
REMARK  status: ('A' for Active; 'I' for Inactive)
REMARK    1  A    between atoms: C_1  and  C_2
REMARK    2  A    between atoms: C_2  and  N_3
REMARK    3  A    between atoms: C_2  and  C_19
REMARK    4  A    between atoms: C_8  and  N_9
REMARK    5  A    between atoms: C_14  and  C_15
REMARK    6  A    between atoms: C_15  and  C_16
REMARK    7  A    between atoms: C_15  and  O_17
REMARK    8  A    between atoms: C_22  and  C_23
REMARK    9  A    between atoms: C_27  and  C_28
REMARK                            x       y       z     vdW  Elec       q    Type
REMARK                         _______ _______ _______ _____ _____    ______ ____
ROOT
ATOM      1  C   UNL     1      -0.847  11.620  18.448  0.00  0.00    +0.000 C 
ATOM      2  C   UNL     1       0.627  11.658  18.874  0.00  0.00    +0.000 C 
ENDROOT
BRANCH   2   3
ATOM      3  N   UNL     1       1.353  12.510  17.937  0.00  0.00    +0.000 N 
ATOM      4  C   UNL     1       1.814  13.712  18.442  0.00  0.00    +0.000 A 
ATOM      5  N   UNL     1       2.950  14.184  17.915  0.00  0.00    +0.000 NA
ATOM      6  C   UNL     1       3.383  15.371  18.367  0.00  0.00    +0.000 A 
ATOM      7  C   UNL     1       2.717  16.115  19.311  0.00  0.00    +0.000 A 
ATOM      8  C   UNL     1       1.571  15.542  19.803  0.00  0.00    +0.000 A 
ATOM      9  N   UNL     1       1.120  14.345  19.397  0.00  0.00    +0.000 NA
ATOM     10  H   UNL     1       2.133  12.050  17.481  0.00  0.00    +0.000 HD
BRANCH   8  11
ATOM     11  N   UNL     1       0.802  16.203  20.769  0.00  0.00    +0.000 N 
ATOM     12  C   UNL     1       1.020  16.012  22.114  0.00  0.00    +0.000 C 
ATOM     13  O   UNL     1       1.792  15.237  22.649  0.00  0.00    +0.000 OA
ATOM     14  O   UNL     1       0.290  16.931  22.821  0.00  0.00    +0.000 OA
ATOM     15  C   UNL     1      -0.601  17.589  21.917  0.00  0.00    +0.000 C 
ATOM     16  C   UNL     1      -0.046  17.329  20.524  0.00  0.00    +0.000 C 
BRANCH  16  17
ATOM     17  C   UNL     1      -1.177  17.056  19.501  0.00  0.00    +0.000 C 
ATOM     18  C   UNL     1      -0.788  17.391  18.064  0.00  0.00    +0.000 C 
BRANCH  17  19
ATOM     19  O   UNL     1      -1.599  15.691  19.508  0.00  0.00    +0.000 OA
ATOM     20  H   UNL     1      -1.763  15.392  18.599  0.00  0.00    +0.000 HD
ENDBRANCH  17  19
ENDBRANCH  16  17
ENDBRANCH   8  11
ENDBRANCH   2   3
BRANCH   2  21
ATOM     21  C   UNL     1       1.219  10.252  18.906  0.00  0.00    +0.000 A 
ATOM     22  C   UNL     1       1.088   9.468  20.048  0.00  0.00    +0.000 A 
ATOM     23  C   UNL     1       1.601   8.170  20.044  0.00  0.00    +0.000 A 
ATOM     24  C   UNL     1       2.227   7.649  18.902  0.00  0.00    +0.000 A 
ATOM     25  C   UNL     1       2.340   8.531  17.828  0.00  0.00    +0.000 A 
ATOM     26  N   UNL     1       1.881   9.806  17.809  0.00  0.00    +0.000 NA
BRANCH  24  27
ATOM     27  C   UNL     1       2.696   6.250  18.825  0.00  0.00    +0.000 A 
ATOM     28  C   UNL     1       3.636   5.839  17.872  0.00  0.00    +0.000 A 
ATOM     29  C   UNL     1       4.004   4.505  17.809  0.00  0.00    +0.000 A 
ATOM     30  N   UNL     1       3.512   3.552  18.625  0.00  0.00    +0.000 NA
ATOM     31  C   UNL     1       2.602   3.933  19.560  0.00  0.00    +0.000 A 
ATOM     32  C   UNL     1       2.184   5.262  19.683  0.00  0.00    +0.000 A 
BRANCH  31  33
ATOM     33  C   UNL     1       1.997   2.892  20.495  0.00  0.00    +0.000 C 
ATOM     34  F   UNL     1       0.854   3.292  21.120  0.00  0.00    +0.000 F 
ATOM     35  F   UNL     1       1.679   1.732  19.848  0.00  0.00    +0.000 F 
ATOM     36  F   UNL     1       2.856   2.527  21.492  0.00  0.00    +0.000 F 
ENDBRANCH  31  33
ENDBRANCH  24  27
ENDBRANCH   2  21
TORSDOF 7
ENDMDL
MODEL 7
REMARK VINA RESULT:      -7.8      1.327      1.638
REMARK  Name = 
REMARK  9 active torsions:
REMARK  status: ('A' for Active; 'I' for Inactive)
REMARK    1  A    between atoms: C_1  and  C_2
REMARK    2  A    between atoms: C_2  and  N_3
REMARK    3  A    between atoms: C_2  and  C_19
REMARK    4  A    between atoms: C_8  and  N_9
REMARK    5  A    between atoms: C_14  and  C_15
REMARK    6  A    between atoms: C_15  and  C_16
REMARK    7  A    between atoms: C_15  and  O_17
REMARK    8  A    between atoms: C_22  and  C_23
REMARK    9  A    between atoms: C_27  and  C_28
REMARK                            x       y       z     vdW  Elec       q    Type
REMARK                         _______ _______ _______ _____ _____    ______ ____
ROOT
ATOM      1  C   UNL     1       0.040   9.152  22.090  0.00  0.00    +0.000 C 
ATOM      2  C   UNL     1       0.701   9.731  20.833  0.00  0.00    +0.000 C 
ENDROOT
BRANCH   2   3
ATOM      3  N   UNL     1      -0.327  10.395  20.037  0.00  0.00    +0.000 N 
ATOM      4  C   UNL     1      -0.137  11.745  19.806  0.00  0.00    +0.000 A 
ATOM      5  N   UNL     1      -0.606  12.223  18.647  0.00  0.00    +0.000 NA
ATOM      6  C   UNL     1      -0.465  13.540  18.431  0.00  0.00    +0.000 A 
ATOM      7  C   UNL     1       0.107  14.403  19.335  0.00  0.00    +0.000 A 
ATOM      8  C   UNL     1       0.570  13.818  20.487  0.00  0.00    +0.000 A 
ATOM      9  N   UNL     1       0.474  12.501  20.727  0.00  0.00    +0.000 NA
ATOM     10  H   UNL     1      -0.506   9.953  19.142  0.00  0.00    +0.000 HD
BRANCH   8  11
ATOM     11  N   UNL     1       1.172  14.592  21.486  0.00  0.00    +0.000 N 
ATOM     12  C   UNL     1       2.541  14.678  21.601  0.00  0.00    +0.000 C 
ATOM     13  O   UNL     1       3.388  14.078  20.966  0.00  0.00    +0.000 OA
ATOM     14  O   UNL     1       2.853  15.658  22.506  0.00  0.00    +0.000 OA
ATOM     15  C   UNL     1       1.650  16.064  23.163  0.00  0.00    +0.000 C 
ATOM     16  C   UNL     1       0.510  15.585  22.276  0.00  0.00    +0.000 C 
BRANCH  16  17
ATOM     17  C   UNL     1      -0.674  15.038  23.113  0.00  0.00    +0.000 C 
ATOM     18  C   UNL     1      -2.020  15.148  22.402  0.00  0.00    +0.000 C 
BRANCH  17  19
ATOM     19  O   UNL     1      -0.502  13.665  23.466  0.00  0.00    +0.000 OA
ATOM     20  H   UNL     1      -0.925  13.099  22.799  0.00  0.00    +0.000 HD
ENDBRANCH  17  19
ENDBRANCH  16  17
ENDBRANCH   8  11
ENDBRANCH   2   3
BRANCH   2  21
ATOM     21  C   UNL     1       1.390   8.633  20.028  0.00  0.00    +0.000 A 
ATOM     22  C   UNL     1       1.743   8.859  18.701  0.00  0.00    +0.000 A 
ATOM     23  C   UNL     1       2.409   7.857  17.994  0.00  0.00    +0.000 A 
ATOM     24  C   UNL     1       2.737   6.641  18.610  0.00  0.00    +0.000 A 
ATOM     25  C   UNL     1       2.303   6.503  19.928  0.00  0.00    +0.000 A 
ATOM     26  N   UNL     1       1.628   7.442  20.634  0.00  0.00    +0.000 NA
BRANCH  24  27
ATOM     27  C   UNL     1       3.525   5.594  17.928  0.00  0.00    +0.000 A 
ATOM     28  C   UNL     1       2.978   4.344  17.617  0.00  0.00    +0.000 A 
ATOM     29  C   UNL     1       3.775   3.380  17.021  0.00  0.00    +0.000 A 
ATOM     30  N   UNL     1       5.072   3.568  16.708  0.00  0.00    +0.000 NA
ATOM     31  C   UNL     1       5.620   4.778  16.997  0.00  0.00    +0.000 A 
ATOM     32  C   UNL     1       4.876   5.799  17.597  0.00  0.00    +0.000 A 
BRANCH  31  33
ATOM     33  C   UNL     1       7.089   5.037  16.683  0.00  0.00    +0.000 C 
ATOM     34  F   UNL     1       7.455   6.349  16.743  0.00  0.00    +0.000 F 
ATOM     35  F   UNL     1       7.929   4.379  17.535  0.00  0.00    +0.000 F 
ATOM     36  F   UNL     1       7.435   4.614  15.432  0.00  0.00    +0.000 F 
ENDBRANCH  31  33
ENDBRANCH  24  27
ENDBRANCH   2  21
TORSDOF 7
ENDMDL
MODEL 8
REMARK VINA RESULT:      -7.8      5.828     10.508
REMARK  Name = 
REMARK  9 active torsions:
REMARK  status: ('A' for Active; 'I' for Inactive)
REMARK    1  A    between atoms: C_1  and  C_2
REMARK    2  A    between atoms: C_2  and  N_3
REMARK    3  A    between atoms: C_2  and  C_19
REMARK    4  A    between atoms: C_8  and  N_9
REMARK    5  A    between atoms: C_14  and  C_15
REMARK    6  A    between atoms: C_15  and  C_16
REMARK    7  A    between atoms: C_15  and  O_17
REMARK    8  A    between atoms: C_22  and  C_23
REMARK    9  A    between atoms: C_27  and  C_28
REMARK                            x       y       z     vdW  Elec       q    Type
REMARK                         _______ _______ _______ _____ _____    ______ ____
ROOT
ATOM      1  C   UNL     1       2.421   8.327  17.867  0.00  0.00    +0.000 C 
ATOM      2  C   UNL     1       2.230   8.012  19.356  0.00  0.00    +0.000 C 
ENDROOT
BRANCH   2   3
ATOM      3  N   UNL     1       1.658   6.674  19.474  0.00  0.00    +0.000 N 
ATOM      4  C   UNL     1       2.562   5.632  19.550  0.00  0.00    +0.000 A 
ATOM      5  N   UNL     1       2.188   4.569  20.272  0.00  0.00    +0.000 NA
ATOM      6  C   UNL     1       3.041   3.533  20.317  0.00  0.00    +0.000 A 
ATOM      7  C   UNL     1       4.244   3.509  19.653  0.00  0.00    +0.000 A 
ATOM      8  C   UNL     1       4.547   4.650  18.952  0.00  0.00    +0.000 A 
ATOM      9  N   UNL     1       3.734   5.716  18.906  0.00  0.00    +0.000 NA
ATOM     10  H   UNL     1       1.006   6.571  20.244  0.00  0.00    +0.000 HD
BRANCH   8  11
ATOM     11  N   UNL     1       5.745   4.747  18.233  0.00  0.00    +0.000 N 
ATOM     12  C   UNL     1       6.925   5.096  18.848  0.00  0.00    +0.000 C 
ATOM     13  O   UNL     1       7.099   5.438  20.004  0.00  0.00    +0.000 OA
ATOM     14  O   UNL     1       7.961   4.903  17.972  0.00  0.00    +0.000 OA
ATOM     15  C   UNL     1       7.412   4.635  16.679  0.00  0.00    +0.000 C 
ATOM     16  C   UNL     1       5.965   4.228  16.918  0.00  0.00    +0.000 C 
BRANCH  16  17
ATOM     17  C   UNL     1       5.020   4.819  15.841  0.00  0.00    +0.000 C 
ATOM     18  C   UNL     1       5.133   6.334  15.701  0.00  0.00    +0.000 C 
BRANCH  17  19
ATOM     19  O   UNL     1       5.258   4.264  14.546  0.00  0.00    +0.000 OA
ATOM     20  H   UNL     1       4.899   3.363  14.503  0.00  0.00    +0.000 HD
ENDBRANCH  17  19
ENDBRANCH  16  17
ENDBRANCH   8  11
ENDBRANCH   2   3
BRANCH   2  21
ATOM     21  C   UNL     1       1.331   9.052  20.019  0.00  0.00    +0.000 A 
ATOM     22  C   UNL     1       0.832   8.826  21.298  0.00  0.00    +0.000 A 
ATOM     23  C   UNL     1       0.044   9.807  21.904  0.00  0.00    +0.000 A 
ATOM     24  C   UNL     1      -0.232  11.013  21.245  0.00  0.00    +0.000 A 
ATOM     25  C   UNL     1       0.282  11.120  19.953  0.00  0.00    +0.000 A 
ATOM     26  N   UNL     1       1.024  10.176  19.324  0.00  0.00    +0.000 NA
BRANCH  24  27
ATOM     27  C   UNL     1      -0.979  12.114  21.888  0.00  0.00    +0.000 A 
ATOM     28  C   UNL     1      -0.328  13.227  22.433  0.00  0.00    +0.000 A 
ATOM     29  C   UNL     1      -1.072  14.207  23.070  0.00  0.00    +0.000 A 
ATOM     30  N   UNL     1      -2.412  14.165  23.201  0.00  0.00    +0.000 NA
ATOM     31  C   UNL     1      -3.063  13.094  22.674  0.00  0.00    +0.000 A 
ATOM     32  C   UNL     1      -2.378  12.068  22.016  0.00  0.00    +0.000 A 
BRANCH  31  33
ATOM     33  C   UNL     1      -4.576  12.986  22.813  0.00  0.00    +0.000 C 
ATOM     34  F   UNL     1      -4.997  12.424  23.981  0.00  0.00    +0.000 F 
ATOM     35  F   UNL     1      -5.195  14.201  22.742  0.00  0.00    +0.000 F 
ATOM     36  F   UNL     1      -5.137  12.235  21.819  0.00  0.00    +0.000 F 
ENDBRANCH  31  33
ENDBRANCH  24  27
ENDBRANCH   2  21
TORSDOF 7
ENDMDL
MODEL 9
REMARK VINA RESULT:      -7.8      3.421      4.606
REMARK  Name = 
REMARK  9 active torsions:
REMARK  status: ('A' for Active; 'I' for Inactive)
REMARK    1  A    between atoms: C_1  and  C_2
REMARK    2  A    between atoms: C_2  and  N_3
REMARK    3  A    between atoms: C_2  and  C_19
REMARK    4  A    between atoms: C_8  and  N_9
REMARK    5  A    between atoms: C_14  and  C_15
REMARK    6  A    between atoms: C_15  and  C_16
REMARK    7  A    between atoms: C_15  and  O_17
REMARK    8  A    between atoms: C_22  and  C_23
REMARK    9  A    between atoms: C_27  and  C_28
REMARK                            x       y       z     vdW  Elec       q    Type
REMARK                         _______ _______ _______ _____ _____    ______ ____
ROOT
ATOM      1  C   UNL     1       1.417  12.501  18.714  0.00  0.00    +0.000 C 
ATOM      2  C   UNL     1       0.626  11.418  19.459  0.00  0.00    +0.000 C 
ENDROOT
BRANCH   2   3
ATOM      3  N   UNL     1       0.673  11.714  20.888  0.00  0.00    +0.000 N 
ATOM      4  C   UNL     1      -0.549  11.870  21.516  0.00  0.00    +0.000 A 
ATOM      5  N   UNL     1      -0.610  11.498  22.800  0.00  0.00    +0.000 NA
ATOM      6  C   UNL     1      -1.779  11.684  23.432  0.00  0.00    +0.000 A 
ATOM      7  C   UNL     1      -2.885  12.246  22.838  0.00  0.00    +0.000 A 
ATOM      8  C   UNL     1      -2.729  12.581  21.517  0.00  0.00    +0.000 A 
ATOM      9  N   UNL     1      -1.585  12.384  20.842  0.00  0.00    +0.000 NA
ATOM     10  H   UNL     1       1.214  11.049  21.429  0.00  0.00    +0.000 HD
BRANCH   8  11
ATOM     11  N   UNL     1      -3.784  13.162  20.801  0.00  0.00    +0.000 N 
ATOM     12  C   UNL     1      -4.324  12.549  19.694  0.00  0.00    +0.000 C 
ATOM     13  O   UNL     1      -3.953  11.529  19.143  0.00  0.00    +0.000 OA
ATOM     14  O   UNL     1      -5.465  13.214  19.327  0.00  0.00    +0.000 OA
ATOM     15  C   UNL     1      -5.541  14.426  20.080  0.00  0.00    +0.000 C 
ATOM     16  C   UNL     1      -4.603  14.240  21.264  0.00  0.00    +0.000 C 
BRANCH  16  17
ATOM     17  C   UNL     1      -3.818  15.538  21.581  0.00  0.00    +0.000 C 
ATOM     18  C   UNL     1      -4.366  16.768  20.863  0.00  0.00    +0.000 C 
BRANCH  17  19
ATOM     19  O   UNL     1      -3.809  15.841  22.976  0.00  0.00    +0.000 OA
ATOM     20  H   UNL     1      -4.265  16.685  23.132  0.00  0.00    +0.000 HD
ENDBRANCH  17  19
ENDBRANCH  16  17
ENDBRANCH   8  11
ENDBRANCH   2   3
BRANCH   2  21
ATOM     21  C   UNL     1       1.197  10.033  19.169  0.00  0.00    +0.000 A 
ATOM     22  C   UNL     1       1.698   9.738  17.905  0.00  0.00    +0.000 A 
ATOM     23  C   UNL     1       2.254   8.479  17.671  0.00  0.00    +0.000 A 
ATOM     24  C   UNL     1       2.324   7.523  18.695  0.00  0.00    +0.000 A 
ATOM     25  C   UNL     1       1.757   7.908  19.909  0.00  0.00    +0.000 A 
ATOM     26  N   UNL     1       1.183   9.109  20.162  0.00  0.00    +0.000 NA
BRANCH  24  27
ATOM     27  C   UNL     1       2.990   6.217  18.515  0.00  0.00    +0.000 A 
ATOM     28  C   UNL     1       4.286   6.116  17.995  0.00  0.00    +0.000 A 
ATOM     29  C   UNL     1       4.846   4.864  17.799  0.00  0.00    +0.000 A 
ATOM     30  N   UNL     1       4.216   3.707  18.085  0.00  0.00    +0.000 NA
ATOM     31  C   UNL     1       2.958   3.785  18.596  0.00  0.00    +0.000 A 
ATOM     32  C   UNL     1       2.330   5.014  18.821  0.00  0.00    +0.000 A 
BRANCH  31  33
ATOM     33  C   UNL     1       2.192   2.508  18.917  0.00  0.00    +0.000 C 
ATOM     34  F   UNL     1       2.021   2.273  20.249  0.00  0.00    +0.000 F 
ATOM     35  F   UNL     1       0.938   2.501  18.375  0.00  0.00    +0.000 F 
ATOM     36  F   UNL     1       2.807   1.394  18.421  0.00  0.00    +0.000 F 
ENDBRANCH  31  33
ENDBRANCH  24  27
ENDBRANCH   2  21
TORSDOF 7
ENDMDL
