MODEL 1
REMARK VINA RESULT:      -7.9      0.000      0.000
REMARK  Name = 
REMARK  9 active torsions:
REMARK  status: ('A' for Active; 'I' for Inactive)
REMARK    1  A    between atoms: C_1  and  C_2
REMARK    2  A    between atoms: C_5  and  O_6
REMARK    3  A    between atoms: C_15  and  C_16
REMARK    4  A    between atoms: C_20  and  O_21
REMARK    5  A    between atoms: C_20  and  C_22
REMARK    6  A    between atoms: C_22  and  N_23
REMARK    7  A    between atoms: N_23  and  C_24
REMARK    8  A    between atoms: C_24  and  N_26
REMARK    9  A    between atoms: N_26  and  C_27
REMARK                            x       y       z     vdW  Elec       q    Type
REMARK                         _______ _______ _______ _____ _____    ______ ____
ROOT
ATOM      1  C   UNL     1       1.808   5.422  17.742  0.00  0.00    +0.000 C 
ATOM      2  C   UNL     1       2.931   6.220  18.450  0.00  0.00    +0.000 C 
ATOM      3  C   UNL     1       4.176   6.172  17.511  0.00  0.00    +0.000 C 
ATOM      4  C   UNL     1       5.471   6.225  18.310  0.00  0.00    +0.000 C 
ATOM      5  C   UNL     1       5.605   4.904  19.085  0.00  0.00    +0.000 C 
ATOM      6  C   UNL     1       4.254   4.421  19.684  0.00  0.00    +0.000 C 
ATOM      7  C   UNL     1       3.317   5.624  19.848  0.00  0.00    +0.000 C 
ATOM      8  C   UNL     1       2.089   5.477  20.748  0.00  0.00    +0.000 C 
ATOM      9  C   UNL     1       1.502   6.880  21.016  0.00  0.00    +0.000 C 
ATOM     10  C   UNL     1       1.255   7.724  19.740  0.00  0.00    +0.000 C 
ATOM     11  C   UNL     1       2.474   7.676  18.751  0.00  0.00    +0.000 C 
ATOM     12  C   UNL     1       2.239   8.533  17.489  0.00  0.00    +0.000 C 
ATOM     13  C   UNL     1       1.930   9.979  17.850  0.00  0.00    +0.000 C 
ATOM     14  C   UNL     1       0.729  10.082  18.802  0.00  0.00    +0.000 C 
ATOM     15  C   UNL     1      -0.536   9.641  18.018  0.00  0.00    +0.000 C 
ATOM     16  C   UNL     1       1.006   9.210  20.059  0.00  0.00    +0.000 C 
ATOM     17  C   UNL     1      -0.121   9.615  20.995  0.00  0.00    +0.000 C 
ATOM     18  C   UNL     1      -0.184  11.146  20.816  0.00  0.00    +0.000 C 
ATOM     19  C   UNL     1       0.522  11.483  19.468  0.00  0.00    +0.000 C 
ENDROOT
BRANCH   5  20
ATOM     20  O   UNL     1       6.098   3.887  18.209  0.00  0.00    +0.000 OA
ATOM     21  H   UNL     1       5.340   3.557  17.684  0.00  0.00    +0.000 HD
ENDBRANCH   5  20
BRANCH  19  22
ATOM     22  O   UNL     1      -0.298  12.355  18.685  0.00  0.00    +0.000 OA
ATOM     23  H   UNL     1      -1.215  12.035  18.727  0.00  0.00    +0.000 HD
ENDBRANCH  19  22
BRANCH  19  24
ATOM     24  C   UNL     1       1.876  12.209  19.668  0.00  0.00    +0.000 C 
BRANCH  24  25
ATOM     25  N   UNL     1       1.908  13.573  19.185  0.00  0.00    +0.000 N 
ATOM     26  H   UNL     1       2.470  13.712  18.352  0.00  0.00    +0.000 HD
BRANCH  25  27
ATOM     27  C   UNL     1       1.853  14.682  20.016  0.00  0.00    +0.000 C 
ATOM     28  S   UNL     1       1.282  14.672  21.593  0.00  0.00    +0.000 S 
BRANCH  27  29
ATOM     29  N   UNL     1       2.215  15.800  19.286  0.00  0.00    +0.000 N 
ATOM     30  H   UNL     1       3.212  15.855  19.130  0.00  0.00    +0.000 HD
BRANCH  29  31
ATOM     31  C   UNL     1       1.403  16.592  18.459  0.00  0.00    +0.000 A 
ATOM     32  C   UNL     1       0.019  16.641  18.622  0.00  0.00    +0.000 A 
ATOM     33  C   UNL     1      -0.748  17.498  17.840  0.00  0.00    +0.000 A 
ATOM     34  C   UNL     1      -0.143  18.303  16.884  0.00  0.00    +0.000 A 
ATOM     35  C   UNL     1       1.239  18.260  16.714  0.00  0.00    +0.000 A 
ATOM     36  C   UNL     1       2.015  17.415  17.513  0.00  0.00    +0.000 A 
ENDBRANCH  29  31
ENDBRANCH  27  29
ENDBRANCH  25  27
ENDBRANCH  24  25
ENDBRANCH  19  24
TORSDOF 7
ENDMDL
MODEL 2
REMARK VINA RESULT:      -7.6      0.912      1.186
REMARK  Name = 
REMARK  9 active torsions:
REMARK  status: ('A' for Active; 'I' for Inactive)
REMARK    1  A    between atoms: C_1  and  C_2
REMARK    2  A    between atoms: C_5  and  O_6
REMARK    3  A    between atoms: C_15  and  C_16
REMARK    4  A    between atoms: C_20  and  O_21
REMARK    5  A    between atoms: C_20  and  C_22
REMARK    6  A    between atoms: C_22  and  N_23
REMARK    7  A    between atoms: N_23  and  C_24
REMARK    8  A    between atoms: C_24  and  N_26
REMARK    9  A    between atoms: N_26  and  C_27
REMARK                            x       y       z     vdW  Elec       q    Type
REMARK                         _______ _______ _______ _____ _____    ______ ____
ROOT
ATOM      1  C   UNL     1       1.764   5.409  17.737  0.00  0.00    +0.000 C 
ATOM      2  C   UNL     1       2.894   6.192  18.450  0.00  0.00    +0.000 C 
ATOM      3  C   UNL     1       4.146   6.118  17.521  0.00  0.00    +0.000 C 
ATOM      4  C   UNL     1       5.434   6.154  18.330  0.00  0.00    +0.000 C 
ATOM      5  C   UNL     1       5.541   4.836  19.114  0.00  0.00    +0.000 C 
ATOM      6  C   UNL     1       4.177   4.379  19.704  0.00  0.00    +0.000 C 
ATOM      7  C   UNL     1       3.259   5.598  19.853  0.00  0.00    +0.000 C 
ATOM      8  C   UNL     1       2.022   5.476  20.745  0.00  0.00    +0.000 C 
ATOM      9  C   UNL     1       1.456   6.891  21.000  0.00  0.00    +0.000 C 
ATOM     10  C   UNL     1       1.233   7.731  19.717  0.00  0.00    +0.000 C 
ATOM     11  C   UNL     1       2.459   7.657  18.738  0.00  0.00    +0.000 C 
ATOM     12  C   UNL     1       2.248   8.511  17.470  0.00  0.00    +0.000 C 
ATOM     13  C   UNL     1       1.960   9.964  17.820  0.00  0.00    +0.000 C 
ATOM     14  C   UNL     1       0.753  10.092  18.761  0.00  0.00    +0.000 C 
ATOM     15  C   UNL     1      -0.512   9.667  17.970  0.00  0.00    +0.000 C 
ATOM     16  C   UNL     1       1.006   9.223  20.026  0.00  0.00    +0.000 C 
ATOM     17  C   UNL     1      -0.122   9.652  20.950  0.00  0.00    +0.000 C 
ATOM     18  C   UNL     1      -0.158  11.183  20.762  0.00  0.00    +0.000 C 
ATOM     19  C   UNL     1       0.565  11.500  19.418  0.00  0.00    +0.000 C 
ENDROOT
BRANCH   5  20
ATOM     20  O   UNL     1       6.024   3.806  18.247  0.00  0.00    +0.000 OA
ATOM     21  H   UNL     1       6.754   3.348  18.713  0.00  0.00    +0.000 HD
ENDBRANCH   5  20
BRANCH  19  22
ATOM     22  O   UNL     1      -0.235  12.381  18.624  0.00  0.00    +0.000 OA
ATOM     23  H   UNL     1      -0.172  12.100  17.695  0.00  0.00    +0.000 HD
ENDBRANCH  19  22
BRANCH  19  24
ATOM     24  C   UNL     1       1.928  12.204  19.625  0.00  0.00    +0.000 C 
BRANCH  24  25
ATOM     25  N   UNL     1       2.038  12.962  20.853  0.00  0.00    +0.000 N 
ATOM     26  H   UNL     1       1.263  12.838  21.496  0.00  0.00    +0.000 HD
BRANCH  25  27
ATOM     27  C   UNL     1       2.638  14.211  20.933  0.00  0.00    +0.000 C 
ATOM     28  S   UNL     1       4.061  14.540  21.757  0.00  0.00    +0.000 S 
BRANCH  27  29
ATOM     29  N   UNL     1       1.801  15.142  20.344  0.00  0.00    +0.000 N 
ATOM     30  H   UNL     1       1.142  15.540  20.999  0.00  0.00    +0.000 HD
BRANCH  29  31
ATOM     31  C   UNL     1       1.995  15.839  19.142  0.00  0.00    +0.000 A 
ATOM     32  C   UNL     1       1.214  16.942  18.801  0.00  0.00    +0.000 A 
ATOM     33  C   UNL     1       1.485  17.661  17.641  0.00  0.00    +0.000 A 
ATOM     34  C   UNL     1       2.529  17.279  16.809  0.00  0.00    +0.000 A 
ATOM     35  C   UNL     1       3.314  16.178  17.142  0.00  0.00    +0.000 A 
ATOM     36  C   UNL     1       3.058  15.466  18.317  0.00  0.00    +0.000 A 
ENDBRANCH  29  31
ENDBRANCH  27  29
ENDBRANCH  25  27
ENDBRANCH  24  25
ENDBRANCH  19  24
TORSDOF 7
ENDMDL
MODEL 3
REMARK VINA RESULT:      -7.5      4.232      7.083
REMARK  Name = 
REMARK  9 active torsions:
REMARK  status: ('A' for Active; 'I' for Inactive)
REMARK    1  A    between atoms: C_1  and  C_2
REMARK    2  A    between atoms: C_5  and  O_6
REMARK    3  A    between atoms: C_15  and  C_16
REMARK    4  A    between atoms: C_20  and  O_21
REMARK    5  A    between atoms: C_20  and  C_22
REMARK    6  A    between atoms: C_22  and  N_23
REMARK    7  A    between atoms: N_23  and  C_24
REMARK    8  A    between atoms: C_24  and  N_26
REMARK    9  A    between atoms: N_26  and  C_27
REMARK                            x       y       z     vdW  Elec       q    Type
REMARK                         _______ _______ _______ _____ _____    ______ ____
ROOT
ATOM      1  C   UNL     1       1.917  12.243  21.109  0.00  0.00    +0.000 C 
ATOM      2  C   UNL     1       0.778  11.533  20.335  0.00  0.00    +0.000 C 
ATOM      3  C   UNL     1       0.967  10.002  20.564  0.00  0.00    +0.000 C 
ATOM      4  C   UNL     1       0.467   9.201  19.370  0.00  0.00    +0.000 C 
ATOM      5  C   UNL     1       1.415   9.467  18.189  0.00  0.00    +0.000 C 
ATOM      6  C   UNL     1       1.849  10.956  18.093  0.00  0.00    +0.000 C 
ATOM      7  C   UNL     1       0.806  11.832  18.797  0.00  0.00    +0.000 C 
ATOM      8  C   UNL     1       0.809  13.336  18.521  0.00  0.00    +0.000 C 
ATOM      9  C   UNL     1      -0.506  13.940  19.063  0.00  0.00    +0.000 C 
ATOM     10  C   UNL     1      -0.824  13.565  20.532  0.00  0.00    +0.000 C 
ATOM     11  C   UNL     1      -0.614  12.034  20.813  0.00  0.00    +0.000 C 
ATOM     12  C   UNL     1      -0.952  11.655  22.271  0.00  0.00    +0.000 C 
ATOM     13  C   UNL     1      -2.377  12.050  22.632  0.00  0.00    +0.000 C 
ATOM     14  C   UNL     1      -2.627  13.547  22.395  0.00  0.00    +0.000 C 
ATOM     15  C   UNL     1      -1.774  14.339  23.421  0.00  0.00    +0.000 C 
ATOM     16  C   UNL     1      -2.280  13.887  20.917  0.00  0.00    +0.000 C 
ATOM     17  C   UNL     1      -2.817  15.302  20.771  0.00  0.00    +0.000 C 
ATOM     18  C   UNL     1      -4.172  15.234  21.506  0.00  0.00    +0.000 C 
ATOM     19  C   UNL     1      -4.127  13.989  22.443  0.00  0.00    +0.000 C 
ENDROOT
BRANCH   5  20
ATOM     20  O   UNL     1       2.588   8.663  18.332  0.00  0.00    +0.000 OA
ATOM     21  H   UNL     1       3.106   8.746  17.504  0.00  0.00    +0.000 HD
ENDBRANCH   5  20
BRANCH  19  22
ATOM     22  O   UNL     1      -4.559  14.347  23.759  0.00  0.00    +0.000 OA
ATOM     23  H   UNL     1      -5.300  13.769  24.007  0.00  0.00    +0.000 HD
ENDBRANCH  19  22
BRANCH  19  24
ATOM     24  C   UNL     1      -5.059  12.848  21.965  0.00  0.00    +0.000 C 
BRANCH  24  25
ATOM     25  N   UNL     1      -5.756  13.115  20.725  0.00  0.00    +0.000 N 
ATOM     26  H   UNL     1      -6.609  13.655  20.828  0.00  0.00    +0.000 HD
BRANCH  25  27
ATOM     27  C   UNL     1      -5.776  12.236  19.652  0.00  0.00    +0.000 C 
ATOM     28  S   UNL     1      -6.833  10.945  19.490  0.00  0.00    +0.000 S 
BRANCH  27  29
ATOM     29  N   UNL     1      -4.704  12.523  18.826  0.00  0.00    +0.000 N 
ATOM     30  H   UNL     1      -4.183  13.333  19.135  0.00  0.00    +0.000 HD
BRANCH  29  31
ATOM     31  C   UNL     1      -4.062  11.670  17.915  0.00  0.00    +0.000 A 
ATOM     32  C   UNL     1      -4.508  11.532  16.602  0.00  0.00    +0.000 A 
ATOM     33  C   UNL     1      -3.802  10.741  15.702  0.00  0.00    +0.000 A 
ATOM     34  C   UNL     1      -2.653  10.074  16.107  0.00  0.00    +0.000 A 
ATOM     35  C   UNL     1      -2.201  10.207  17.418  0.00  0.00    +0.000 A 
ATOM     36  C   UNL     1      -2.897  11.017  18.319  0.00  0.00    +0.000 A 
ENDBRANCH  29  31
ENDBRANCH  27  29
ENDBRANCH  25  27
ENDBRANCH  24  25
ENDBRANCH  19  24
TORSDOF 7
ENDMDL
MODEL 4
REMARK VINA RESULT:      -7.4      0.957      1.461
REMARK  Name = 
REMARK  9 active torsions:
REMARK  status: ('A' for Active; 'I' for Inactive)
REMARK    1  A    between atoms: C_1  and  C_2
REMARK    2  A    between atoms: C_5  and  O_6
REMARK    3  A    between atoms: C_15  and  C_16
REMARK    4  A    between atoms: C_20  and  O_21
REMARK    5  A    between atoms: C_20  and  C_22
REMARK    6  A    between atoms: C_22  and  N_23
REMARK    7  A    between atoms: N_23  and  C_24
REMARK    8  A    between atoms: C_24  and  N_26
REMARK    9  A    between atoms: N_26  and  C_27
REMARK                            x       y       z     vdW  Elec       q    Type
REMARK                         _______ _______ _______ _____ _____    ______ ____
ROOT
ATOM      1  C   UNL     1       1.762   5.402  17.758  0.00  0.00    +0.000 C 
ATOM      2  C   UNL     1       2.898   6.181  18.466  0.00  0.00    +0.000 C 
ATOM      3  C   UNL     1       4.138   6.123  17.521  0.00  0.00    +0.000 C 
ATOM      4  C   UNL     1       5.437   6.154  18.315  0.00  0.00    +0.000 C 
ATOM      5  C   UNL     1       5.557   4.826  19.082  0.00  0.00    +0.000 C 
ATOM      6  C   UNL     1       4.202   4.358  19.683  0.00  0.00    +0.000 C 
ATOM      7  C   UNL     1       3.281   5.572  19.858  0.00  0.00    +0.000 C 
ATOM      8  C   UNL     1       2.056   5.435  20.763  0.00  0.00    +0.000 C 
ATOM      9  C   UNL     1       1.488   6.845  21.041  0.00  0.00    +0.000 C 
ATOM     10  C   UNL     1       1.248   7.700  19.771  0.00  0.00    +0.000 C 
ATOM     11  C   UNL     1       2.462   7.641  18.777  0.00  0.00    +0.000 C 
ATOM     12  C   UNL     1       2.232   8.509  17.521  0.00  0.00    +0.000 C 
ATOM     13  C   UNL     1       1.944   9.957  17.892  0.00  0.00    +0.000 C 
ATOM     14  C   UNL     1       0.748  10.070  18.849  0.00  0.00    +0.000 C 
ATOM     15  C   UNL     1      -0.525   9.650  18.068  0.00  0.00    +0.000 C 
ATOM     16  C   UNL     1       1.019   9.187  20.100  0.00  0.00    +0.000 C 
ATOM     17  C   UNL     1      -0.099   9.601  21.043  0.00  0.00    +0.000 C 
ATOM     18  C   UNL     1      -0.143  11.134  20.874  0.00  0.00    +0.000 C 
ATOM     19  C   UNL     1       0.563  11.469  19.524  0.00  0.00    +0.000 C 
ENDROOT
BRANCH   5  20
ATOM     20  O   UNL     1       6.033   3.809  18.197  0.00  0.00    +0.000 OA
ATOM     21  H   UNL     1       5.363   3.095  18.181  0.00  0.00    +0.000 HD
ENDBRANCH   5  20
BRANCH  19  22
ATOM     22  O   UNL     1      -0.249  12.357  18.751  0.00  0.00    +0.000 OA
ATOM     23  H   UNL     1      -0.778  11.827  18.130  0.00  0.00    +0.000 HD
ENDBRANCH  19  22
BRANCH  19  24
ATOM     24  C   UNL     1       1.926  12.176  19.723  0.00  0.00    +0.000 C 
BRANCH  24  25
ATOM     25  N   UNL     1       1.845  13.489  20.327  0.00  0.00    +0.000 N 
ATOM     26  H   UNL     1       1.103  13.594  21.010  0.00  0.00    +0.000 HD
BRANCH  25  27
ATOM     27  C   UNL     1       2.158  14.662  19.655  0.00  0.00    +0.000 C 
ATOM     28  S   UNL     1       3.501  15.617  19.968  0.00  0.00    +0.000 S 
BRANCH  27  29
ATOM     29  N   UNL     1       1.118  14.972  18.797  0.00  0.00    +0.000 N 
ATOM     30  H   UNL     1       0.957  14.249  18.109  0.00  0.00    +0.000 HD
BRANCH  29  31
ATOM     31  C   UNL     1       0.085  15.900  18.992  0.00  0.00    +0.000 A 
ATOM     32  C   UNL     1      -0.090  16.991  18.141  0.00  0.00    +0.000 A 
ATOM     33  C   UNL     1      -1.173  17.847  18.313  0.00  0.00    +0.000 A 
ATOM     34  C   UNL     1      -2.082  17.628  19.340  0.00  0.00    +0.000 A 
ATOM     35  C   UNL     1      -1.915  16.541  20.194  0.00  0.00    +0.000 A 
ATOM     36  C   UNL     1      -0.840  15.667  20.011  0.00  0.00    +0.000 A 
ENDBRANCH  29  31
ENDBRANCH  27  29
ENDBRANCH  25  27
ENDBRANCH  24  25
ENDBRANCH  19  24
TORSDOF 7
ENDMDL
MODEL 5
REMARK VINA RESULT:      -7.4      2.021      2.665
REMARK  Name = 
REMARK  9 active torsions:
REMARK  status: ('A' for Active; 'I' for Inactive)
REMARK    1  A    between atoms: C_1  and  C_2
REMARK    2  A    between atoms: C_5  and  O_6
REMARK    3  A    between atoms: C_15  and  C_16
REMARK    4  A    between atoms: C_20  and  O_21
REMARK    5  A    between atoms: C_20  and  C_22
REMARK    6  A    between atoms: C_22  and  N_23
REMARK    7  A    between atoms: N_23  and  C_24
REMARK    8  A    between atoms: C_24  and  N_26
REMARK    9  A    between atoms: N_26  and  C_27
REMARK                            x       y       z     vdW  Elec       q    Type
REMARK                         _______ _______ _______ _____ _____    ______ ____
ROOT
ATOM      1  C   UNL     1       1.702   5.353  17.807  0.00  0.00    +0.000 C 
ATOM      2  C   UNL     1       2.862   6.135  18.473  0.00  0.00    +0.000 C 
ATOM      3  C   UNL     1       4.090   6.017  17.517  0.00  0.00    +0.000 C 
ATOM      4  C   UNL     1       5.398   6.051  18.295  0.00  0.00    +0.000 C 
ATOM      5  C   UNL     1       5.501   4.751  19.109  0.00  0.00    +0.000 C 
ATOM      6  C   UNL     1       4.145   4.332  19.743  0.00  0.00    +0.000 C 
ATOM      7  C   UNL     1       3.250   5.569  19.882  0.00  0.00    +0.000 C 
ATOM      8  C   UNL     1       2.033   5.491  20.805  0.00  0.00    +0.000 C 
ATOM      9  C   UNL     1       1.496   6.920  21.038  0.00  0.00    +0.000 C 
ATOM     10  C   UNL     1       1.257   7.733  19.739  0.00  0.00    +0.000 C 
ATOM     11  C   UNL     1       2.458   7.613  18.734  0.00  0.00    +0.000 C 
ATOM     12  C   UNL     1       2.230   8.439  17.450  0.00  0.00    +0.000 C 
ATOM     13  C   UNL     1       1.975   9.905  17.770  0.00  0.00    +0.000 C 
ATOM     14  C   UNL     1       0.793  10.076  18.735  0.00  0.00    +0.000 C 
ATOM     15  C   UNL     1      -0.498   9.653  17.985  0.00  0.00    +0.000 C 
ATOM     16  C   UNL     1       1.061   9.235  20.015  0.00  0.00    +0.000 C 
ATOM     17  C   UNL     1      -0.037   9.706  20.955  0.00  0.00    +0.000 C 
ATOM     18  C   UNL     1      -0.054  11.232  20.729  0.00  0.00    +0.000 C 
ATOM     19  C   UNL     1       0.642  11.503  19.360  0.00  0.00    +0.000 C 
ENDROOT
BRANCH   5  20
ATOM     20  O   UNL     1       5.947   3.692  18.258  0.00  0.00    +0.000 OA
ATOM     21  H   UNL     1       6.493   4.093  17.550  0.00  0.00    +0.000 HD
ENDBRANCH   5  20
BRANCH  19  22
ATOM     22  O   UNL     1      -0.162  12.377  18.563  0.00  0.00    +0.000 OA
ATOM     23  H   UNL     1       0.039  13.294  18.815  0.00  0.00    +0.000 HD
ENDBRANCH  19  22
BRANCH  19  24
ATOM     24  C   UNL     1       2.021  12.190  19.517  0.00  0.00    +0.000 C 
BRANCH  24  25
ATOM     25  N   UNL     1       2.248  13.304  18.621  0.00  0.00    +0.000 N 
ATOM     26  H   UNL     1       2.782  13.075  17.790  0.00  0.00    +0.000 HD
BRANCH  25  27
ATOM     27  C   UNL     1       2.417  14.612  19.052  0.00  0.00    +0.000 C 
ATOM     28  S   UNL     1       1.604  15.309  20.343  0.00  0.00    +0.000 S 
BRANCH  27  29
ATOM     29  N   UNL     1       3.251  15.266  18.163  0.00  0.00    +0.000 N 
ATOM     30  H   UNL     1       2.742  15.851  17.514  0.00  0.00    +0.000 HD
BRANCH  29  31
ATOM     31  C   UNL     1       4.626  15.513  18.291  0.00  0.00    +0.000 A 
ATOM     32  C   UNL     1       5.579  14.613  17.817  0.00  0.00    +0.000 A 
ATOM     33  C   UNL     1       6.933  14.926  17.886  0.00  0.00    +0.000 A 
ATOM     34  C   UNL     1       7.346  16.131  18.437  0.00  0.00    +0.000 A 
ATOM     35  C   UNL     1       6.400  17.036  18.914  0.00  0.00    +0.000 A 
ATOM     36  C   UNL     1       5.038  16.734  18.827  0.00  0.00    +0.000 A 
ENDBRANCH  29  31
ENDBRANCH  27  29
ENDBRANCH  25  27
ENDBRANCH  24  25
ENDBRANCH  19  24
TORSDOF 7
ENDMDL
MODEL 6
REMARK VINA RESULT:      -7.4      2.195      3.090
REMARK  Name = 
REMARK  9 active torsions:
REMARK  status: ('A' for Active; 'I' for Inactive)
REMARK    1  A    between atoms: C_1  and  C_2
REMARK    2  A    between atoms: C_5  and  O_6
REMARK    3  A    between atoms: C_15  and  C_16
REMARK    4  A    between atoms: C_20  and  O_21
REMARK    5  A    between atoms: C_20  and  C_22
REMARK    6  A    between atoms: C_22  and  N_23
REMARK    7  A    between atoms: N_23  and  C_24
REMARK    8  A    between atoms: C_24  and  N_26
REMARK    9  A    between atoms: N_26  and  C_27
REMARK                            x       y       z     vdW  Elec       q    Type
REMARK                         _______ _______ _______ _____ _____    ______ ____
ROOT
ATOM      1  C   UNL     1       2.083   5.362  17.620  0.00  0.00    +0.000 C 
ATOM      2  C   UNL     1       3.153   6.173  18.395  0.00  0.00    +0.000 C 
ATOM      3  C   UNL     1       4.431   6.198  17.501  0.00  0.00    +0.000 C 
ATOM      4  C   UNL     1       5.693   6.267  18.349  0.00  0.00    +0.000 C 
ATOM      5  C   UNL     1       5.846   4.926  19.085  0.00  0.00    +0.000 C 
ATOM      6  C   UNL     1       4.492   4.379  19.617  0.00  0.00    +0.000 C 
ATOM      7  C   UNL     1       3.508   5.543  19.785  0.00  0.00    +0.000 C 
ATOM      8  C   UNL     1       2.255   5.324  20.635  0.00  0.00    +0.000 C 
ATOM      9  C   UNL     1       1.611   6.697  20.927  0.00  0.00    +0.000 C 
ATOM     10  C   UNL     1       1.380   7.576  19.670  0.00  0.00    +0.000 C 
ATOM     11  C   UNL     1       2.635   7.601  18.726  0.00  0.00    +0.000 C 
ATOM     12  C   UNL     1       2.415   8.492  17.484  0.00  0.00    +0.000 C 
ATOM     13  C   UNL     1       2.043   9.915  17.881  0.00  0.00    +0.000 C 
ATOM     14  C   UNL     1       0.806   9.945  18.790  0.00  0.00    +0.000 C 
ATOM     15  C   UNL     1      -0.414   9.488  17.947  0.00  0.00    +0.000 C 
ATOM     16  C   UNL     1       1.069   9.041  20.028  0.00  0.00    +0.000 C 
ATOM     17  C   UNL     1      -0.105   9.376  20.935  0.00  0.00    +0.000 C 
ATOM     18  C   UNL     1      -0.215  10.909  20.803  0.00  0.00    +0.000 C 
ATOM     19  C   UNL     1       0.527  11.314  19.493  0.00  0.00    +0.000 C 
ENDROOT
BRANCH   5  20
ATOM     20  O   UNL     1       6.405   3.957  18.194  0.00  0.00    +0.000 OA
ATOM     21  H   UNL     1       6.468   4.372  17.309  0.00  0.00    +0.000 HD
ENDBRANCH   5  20
BRANCH  19  22
ATOM     22  O   UNL     1      -0.294  12.185  18.710  0.00  0.00    +0.000 OA
ATOM     23  H   UNL     1      -0.083  12.045  17.772  0.00  0.00    +0.000 HD
ENDBRANCH  19  22
BRANCH  19  24
ATOM     24  C   UNL     1       1.847  12.078  19.767  0.00  0.00    +0.000 C 
BRANCH  24  25
ATOM     25  N   UNL     1       1.803  12.976  20.901  0.00  0.00    +0.000 N 
ATOM     26  H   UNL     1       1.655  12.519  21.795  0.00  0.00    +0.000 HD
BRANCH  25  27
ATOM     27  C   UNL     1       1.293  14.265  20.840  0.00  0.00    +0.000 C 
ATOM     28  S   UNL     1       1.763  15.430  19.728  0.00  0.00    +0.000 S 
BRANCH  27  29
ATOM     29  N   UNL     1       0.450  14.459  21.920  0.00  0.00    +0.000 N 
ATOM     30  H   UNL     1       0.769  15.198  22.532  0.00  0.00    +0.000 HD
BRANCH  29  31
ATOM     31  C   UNL     1      -0.890  14.065  22.051  0.00  0.00    +0.000 A 
ATOM     32  C   UNL     1      -1.819  14.278  21.034  0.00  0.00    +0.000 A 
ATOM     33  C   UNL     1      -3.120  13.803  21.164  0.00  0.00    +0.000 A 
ATOM     34  C   UNL     1      -3.506  13.122  22.310  0.00  0.00    +0.000 A 
ATOM     35  C   UNL     1      -2.583  12.905  23.332  0.00  0.00    +0.000 A 
ATOM     36  C   UNL     1      -1.270  13.363  23.196  0.00  0.00    +0.000 A 
ENDBRANCH  29  31
ENDBRANCH  27  29
ENDBRANCH  25  27
ENDBRANCH  24  25
ENDBRANCH  19  24
TORSDOF 7
ENDMDL
MODEL 7
REMARK VINA RESULT:      -7.2      2.027      2.712
REMARK  Name = 
REMARK  9 active torsions:
REMARK  status: ('A' for Active; 'I' for Inactive)
REMARK    1  A    between atoms: C_1  and  C_2
REMARK    2  A    between atoms: C_5  and  O_6
REMARK    3  A    between atoms: C_15  and  C_16
REMARK    4  A    between atoms: C_20  and  O_21
REMARK    5  A    between atoms: C_20  and  C_22
REMARK    6  A    between atoms: C_22  and  N_23
REMARK    7  A    between atoms: N_23  and  C_24
REMARK    8  A    between atoms: C_24  and  N_26
REMARK    9  A    between atoms: N_26  and  C_27
REMARK                            x       y       z     vdW  Elec       q    Type
REMARK                         _______ _______ _______ _____ _____    ______ ____
ROOT
ATOM      1  C   UNL     1       1.775   5.394  17.731  0.00  0.00    +0.000 C 
ATOM      2  C   UNL     1       2.911   6.176  18.437  0.00  0.00    +0.000 C 
ATOM      3  C   UNL     1       4.155   6.104  17.499  0.00  0.00    +0.000 C 
ATOM      4  C   UNL     1       5.450   6.138  18.299  0.00  0.00    +0.000 C 
ATOM      5  C   UNL     1       5.562   4.818  19.079  0.00  0.00    +0.000 C 
ATOM      6  C   UNL     1       4.203   4.360  19.678  0.00  0.00    +0.000 C 
ATOM      7  C   UNL     1       3.285   5.578  19.837  0.00  0.00    +0.000 C 
ATOM      8  C   UNL     1       2.055   5.454  20.737  0.00  0.00    +0.000 C 
ATOM      9  C   UNL     1       1.490   6.867  21.000  0.00  0.00    +0.000 C 
ATOM     10  C   UNL     1       1.258   7.711  19.720  0.00  0.00    +0.000 C 
ATOM     11  C   UNL     1       2.477   7.640  18.733  0.00  0.00    +0.000 C 
ATOM     12  C   UNL     1       2.257   8.497  17.468  0.00  0.00    +0.000 C 
ATOM     13  C   UNL     1       1.971   9.949  17.824  0.00  0.00    +0.000 C 
ATOM     14  C   UNL     1       0.771  10.074  18.774  0.00  0.00    +0.000 C 
ATOM     15  C   UNL     1      -0.500   9.651  17.991  0.00  0.00    +0.000 C 
ATOM     16  C   UNL     1       1.033   9.202  20.035  0.00  0.00    +0.000 C 
ATOM     17  C   UNL     1      -0.088   9.629  20.968  0.00  0.00    +0.000 C 
ATOM     18  C   UNL     1      -0.126  11.160  20.784  0.00  0.00    +0.000 C 
ATOM     19  C   UNL     1       0.587  11.480  19.436  0.00  0.00    +0.000 C 
ENDROOT
BRANCH   5  20
ATOM     20  O   UNL     1       6.039   3.791  18.206  0.00  0.00    +0.000 OA
ATOM     21  H   UNL     1       6.740   3.300  18.684  0.00  0.00    +0.000 HD
ENDBRANCH   5  20
BRANCH  19  22
ATOM     22  O   UNL     1      -0.218  12.363  18.650  0.00  0.00    +0.000 OA
ATOM     23  H   UNL     1      -0.663  11.842  17.960  0.00  0.00    +0.000 HD
ENDBRANCH  19  22
BRANCH  19  24
ATOM     24  C   UNL     1       1.952  12.185  19.634  0.00  0.00    +0.000 C 
BRANCH  24  25
ATOM     25  N   UNL     1       2.010  13.084  20.767  0.00  0.00    +0.000 N 
ATOM     26  H   UNL     1       1.481  12.777  21.577  0.00  0.00    +0.000 HD
BRANCH  25  27
ATOM     27  C   UNL     1       2.101  14.463  20.648  0.00  0.00    +0.000 C 
ATOM     28  S   UNL     1       0.880  15.459  20.075  0.00  0.00    +0.000 S 
BRANCH  27  29
ATOM     29  N   UNL     1       3.396  14.848  20.947  0.00  0.00    +0.000 N 
ATOM     30  H   UNL     1       3.603  14.775  21.933  0.00  0.00    +0.000 HD
BRANCH  29  31
ATOM     31  C   UNL     1       4.493  14.939  20.077  0.00  0.00    +0.000 A 
ATOM     32  C   UNL     1       5.800  15.028  20.553  0.00  0.00    +0.000 A 
ATOM     33  C   UNL     1       6.870  15.035  19.665  0.00  0.00    +0.000 A 
ATOM     34  C   UNL     1       6.645  14.963  18.296  0.00  0.00    +0.000 A 
ATOM     35  C   UNL     1       5.342  14.873  17.812  0.00  0.00    +0.000 A 
ATOM     36  C   UNL     1       4.266  14.845  18.703  0.00  0.00    +0.000 A 
ENDBRANCH  29  31
ENDBRANCH  27  29
ENDBRANCH  25  27
ENDBRANCH  24  25
ENDBRANCH  19  24
TORSDOF 7
ENDMDL
MODEL 8
REMARK VINA RESULT:      -7.2      5.235      9.575
REMARK  Name = 
REMARK  9 active torsions:
REMARK  status: ('A' for Active; 'I' for Inactive)
REMARK    1  A    between atoms: C_1  and  C_2
REMARK    2  A    between atoms: C_5  and  O_6
REMARK    3  A    between atoms: C_15  and  C_16
REMARK    4  A    between atoms: C_20  and  O_21
REMARK    5  A    between atoms: C_20  and  C_22
REMARK    6  A    between atoms: C_22  and  N_23
REMARK    7  A    between atoms: N_23  and  C_24
REMARK    8  A    between atoms: C_24  and  N_26
REMARK    9  A    between atoms: N_26  and  C_27
REMARK                            x       y       z     vdW  Elec       q    Type
REMARK                         _______ _______ _______ _____ _____    ______ ____
ROOT
ATOM      1  C   UNL     1      -3.447  15.646  24.233  0.00  0.00    +0.000 C 
ATOM      2  C   UNL     1      -4.153  15.053  22.988  0.00  0.00    +0.000 C 
ATOM      3  C   UNL     1      -5.015  16.199  22.373  0.00  0.00    +0.000 C 
ATOM      4  C   UNL     1      -6.253  15.646  21.683  0.00  0.00    +0.000 C 
ATOM      5  C   UNL     1      -7.191  15.087  22.764  0.00  0.00    +0.000 C 
ATOM      6  C   UNL     1      -6.427  14.323  23.882  0.00  0.00    +0.000 C 
ATOM      7  C   UNL     1      -5.081  13.838  23.332  0.00  0.00    +0.000 C 
ATOM      8  C   UNL     1      -4.321  12.758  24.104  0.00  0.00    +0.000 C 
ATOM      9  C   UNL     1      -3.192  12.209  23.204  0.00  0.00    +0.000 C 
ATOM     10  C   UNL     1      -2.285  13.299  22.579  0.00  0.00    +0.000 C 
ATOM     11  C   UNL     1      -3.115  14.489  21.977  0.00  0.00    +0.000 C 
ATOM     12  C   UNL     1      -2.213  15.565  21.335  0.00  0.00    +0.000 C 
ATOM     13  C   UNL     1      -1.318  14.969  20.258  0.00  0.00    +0.000 C 
ATOM     14  C   UNL     1      -0.468  13.812  20.803  0.00  0.00    +0.000 C 
ATOM     15  C   UNL     1       0.549  14.406  21.813  0.00  0.00    +0.000 C 
ATOM     16  C   UNL     1      -1.411  12.749  21.436  0.00  0.00    +0.000 C 
ATOM     17  C   UNL     1      -0.470  11.581  21.683  0.00  0.00    +0.000 C 
ATOM     18  C   UNL     1       0.380  11.545  20.397  0.00  0.00    +0.000 C 
ATOM     19  C   UNL     1       0.251  12.943  19.719  0.00  0.00    +0.000 C 
ENDROOT
BRANCH   5  20
ATOM     20  O   UNL     1      -7.915  16.162  23.368  0.00  0.00    +0.000 OA
ATOM     21  H   UNL     1      -8.870  15.983  23.240  0.00  0.00    +0.000 HD
ENDBRANCH   5  20
BRANCH  19  22
ATOM     22  O   UNL     1       1.545  13.445  19.373  0.00  0.00    +0.000 OA
ATOM     23  H   UNL     1       1.845  14.037  20.083  0.00  0.00    +0.000 HD
ENDBRANCH  19  22
BRANCH  19  24
ATOM     24  C   UNL     1      -0.571  12.897  18.407  0.00  0.00    +0.000 C 
BRANCH  24  25
ATOM     25  N   UNL     1      -0.911  11.566  17.952  0.00  0.00    +0.000 N 
ATOM     26  H   UNL     1      -0.203  11.123  17.376  0.00  0.00    +0.000 HD
BRANCH  25  27
ATOM     27  C   UNL     1      -2.206  11.163  17.657  0.00  0.00    +0.000 C 
ATOM     28  S   UNL     1      -2.612   9.729  16.888  0.00  0.00    +0.000 S 
BRANCH  27  29
ATOM     29  N   UNL     1      -3.072  12.193  17.977  0.00  0.00    +0.000 N 
ATOM     30  H   UNL     1      -2.785  13.077  17.580  0.00  0.00    +0.000 HD
BRANCH  29  31
ATOM     31  C   UNL     1      -4.403  12.099  18.412  0.00  0.00    +0.000 A 
ATOM     32  C   UNL     1      -5.435  11.750  17.543  0.00  0.00    +0.000 A 
ATOM     33  C   UNL     1      -6.730  11.586  18.023  0.00  0.00    +0.000 A 
ATOM     34  C   UNL     1      -7.007  11.778  19.370  0.00  0.00    +0.000 A 
ATOM     35  C   UNL     1      -5.981  12.127  20.246  0.00  0.00    +0.000 A 
ATOM     36  C   UNL     1      -4.675  12.272  19.770  0.00  0.00    +0.000 A 
ENDBRANCH  29  31
ENDBRANCH  27  29
ENDBRANCH  25  27
ENDBRANCH  24  25
ENDBRANCH  19  24
TORSDOF 7
ENDMDL
MODEL 9
REMARK VINA RESULT:      -7.1      5.230      8.243
REMARK  Name = 
REMARK  9 active torsions:
REMARK  status: ('A' for Active; 'I' for Inactive)
REMARK    1  A    between atoms: C_1  and  C_2
REMARK    2  A    between atoms: C_5  and  O_6
REMARK    3  A    between atoms: C_15  and  C_16
REMARK    4  A    between atoms: C_20  and  O_21
REMARK    5  A    between atoms: C_20  and  C_22
REMARK    6  A    between atoms: C_22  and  N_23
REMARK    7  A    between atoms: N_23  and  C_24
REMARK    8  A    between atoms: C_24  and  N_26
REMARK    9  A    between atoms: N_26  and  C_27
REMARK                            x       y       z     vdW  Elec       q    Type
REMARK                         _______ _______ _______ _____ _____    ______ ____
ROOT
ATOM      1  C   UNL     1       1.954  15.214  21.764  0.00  0.00    +0.000 C 
ATOM      2  C   UNL     1       1.142  14.469  20.676  0.00  0.00    +0.000 C 
ATOM      3  C   UNL     1       1.930  13.164  20.342  0.00  0.00    +0.000 C 
ATOM      4  C   UNL     1       1.715  12.747  18.894  0.00  0.00    +0.000 C 
ATOM      5  C   UNL     1       2.411  13.780  17.993  0.00  0.00    +0.000 C 
ATOM      6  C   UNL     1       2.220  15.238  18.495  0.00  0.00    +0.000 C 
ATOM      7  C   UNL     1       0.960  15.310  19.366  0.00  0.00    +0.000 C 
ATOM      8  C   UNL     1       0.355  16.683  19.665  0.00  0.00    +0.000 C 
ATOM      9  C   UNL     1      -1.057  16.482  20.259  0.00  0.00    +0.000 C 
ATOM     10  C   UNL     1      -1.115  15.490  21.448  0.00  0.00    +0.000 C 
ATOM     11  C   UNL     1      -0.305  14.175  21.165  0.00  0.00    +0.000 C 
ATOM     12  C   UNL     1      -0.379  13.177  22.340  0.00  0.00    +0.000 C 
ATOM     13  C   UNL     1      -1.821  12.826  22.680  0.00  0.00    +0.000 C 
ATOM     14  C   UNL     1      -2.652  14.080  22.987  0.00  0.00    +0.000 C 
ATOM     15  C   UNL     1      -2.121  14.689  24.311  0.00  0.00    +0.000 C 
ATOM     16  C   UNL     1      -2.555  15.057  21.780  0.00  0.00    +0.000 C 
ATOM     17  C   UNL     1      -3.612  16.097  22.113  0.00  0.00    +0.000 C 
ATOM     18  C   UNL     1      -4.786  15.242  22.634  0.00  0.00    +0.000 C 
ATOM     19  C   UNL     1      -4.200  13.857  23.047  0.00  0.00    +0.000 C 
ENDROOT
BRANCH   5  20
ATOM     20  O   UNL     1       3.813  13.500  17.945  0.00  0.00    +0.000 OA
ATOM     21  H   UNL     1       3.970  12.913  17.176  0.00  0.00    +0.000 HD
ENDBRANCH   5  20
BRANCH  19  22
ATOM     22  O   UNL     1      -4.659  13.497  24.353  0.00  0.00    +0.000 OA
ATOM     23  H   UNL     1      -5.113  12.639  24.293  0.00  0.00    +0.000 HD
ENDBRANCH  19  22
BRANCH  19  24
ATOM     24  C   UNL     1      -4.636  12.717  22.094  0.00  0.00    +0.000 C 
BRANCH  24  25
ATOM     25  N   UNL     1      -5.322  13.156  20.898  0.00  0.00    +0.000 N 
ATOM     26  H   UNL     1      -5.993  13.902  21.046  0.00  0.00    +0.000 HD
BRANCH  25  27
ATOM     27  C   UNL     1      -5.647  12.312  19.846  0.00  0.00    +0.000 C 
ATOM     28  S   UNL     1      -6.863  11.158  19.882  0.00  0.00    +0.000 S 
BRANCH  27  29
ATOM     29  N   UNL     1      -4.721  12.491  18.834  0.00  0.00    +0.000 N 
ATOM     30  H   UNL     1      -4.669  13.451  18.521  0.00  0.00    +0.000 HD
BRANCH  29  31
ATOM     31  C   UNL     1      -3.647  11.656  18.488  0.00  0.00    +0.000 A 
ATOM     32  C   UNL     1      -3.719  10.780  17.406  0.00  0.00    +0.000 A 
ATOM     33  C   UNL     1      -2.610  10.026  17.040  0.00  0.00    +0.000 A 
ATOM     34  C   UNL     1      -1.424  10.131  17.756  0.00  0.00    +0.000 A 
ATOM     35  C   UNL     1      -1.344  11.005  18.838  0.00  0.00    +0.000 A 
ATOM     36  C   UNL     1      -2.450  11.779  19.196  0.00  0.00    +0.000 A 
ENDBRANCH  29  31
ENDBRANCH  27  29
ENDBRANCH  25  27
ENDBRANCH  24  25
ENDBRANCH  19  24
TORSDOF 7
ENDMDL
