MODEL 1
REMARK VINA RESULT:      -7.5      0.000      0.000
REMARK  Name = 
REMARK  5 active torsions:
REMARK  status: ('A' for Active; 'I' for Inactive)
REMARK    1  A    between atoms: C_2  and  C_3
REMARK    2  A    between atoms: C_3  and  C_4
REMARK    3  A    between atoms: C_4  and  C_5
REMARK    4  A    between atoms: C_5  and  C_6
REMARK    5  A    between atoms: N_12  and  C_13
REMARK                            x       y       z     vdW  Elec       q    Type
REMARK                         _______ _______ _______ _____ _____    ______ ____
ROOT
ATOM      1  O   UNL     1       7.203   4.515  17.049  0.00  0.00    +0.000 OA
ATOM      2  C   UNL     1       6.705   5.490  16.502  0.00  0.00    +0.000 C 
ATOM      3  N   UNL     1       6.471   5.541  15.152  0.00  0.00    +0.000 N 
ATOM      4  H   UNL     1       6.277   6.441  14.721  0.00  0.00    +0.000 HD
ENDROOT
BRANCH   3   5
ATOM      5  C   UNL     1       6.895   4.470  14.265  0.00  0.00    +0.000 C 
ATOM      6  C   UNL     1       5.763   3.797  13.523  0.00  0.00    +0.000 C 
ATOM      7  C   UNL     1       6.391   3.436  12.201  0.00  0.00    +0.000 C 
ATOM      8  O   UNL     1       7.403   4.412  11.956  0.00  0.00    +0.000 OA
ATOM      9  C   UNL     1       7.716   5.038  13.125  0.00  0.00    +0.000 C 
ATOM     10  O   UNL     1       8.541   5.937  13.228  0.00  0.00    +0.000 OA
ENDBRANCH   3   5
BRANCH   2  11
ATOM     11  C   UNL     1       6.255   6.745  17.232  0.00  0.00    +0.000 C 
BRANCH  11  12
ATOM     12  C   UNL     1       4.735   6.790  17.311  0.00  0.00    +0.000 C 
BRANCH  12  13
ATOM     13  C   UNL     1       4.138   5.650  18.127  0.00  0.00    +0.000 C 
BRANCH  13  14
ATOM     14  C   UNL     1       2.621   5.774  18.399  0.00  0.00    +0.000 C 
ATOM     15  C   UNL     1       1.794   4.615  17.808  0.00  0.00    +0.000 C 
ATOM     16  C   UNL     1       1.491   3.460  18.761  0.00  0.00    +0.000 C 
ATOM     17  C   UNL     1       0.973   3.953  20.102  0.00  0.00    +0.000 C 
ATOM     18  C   UNL     1       1.988   4.878  20.755  0.00  0.00    +0.000 C 
ATOM     19  C   UNL     1       2.295   6.084  19.873  0.00  0.00    +0.000 C 
ENDBRANCH  13  14
ENDBRANCH  12  13
ENDBRANCH  11  12
ENDBRANCH   2  11
TORSDOF 5
ENDMDL
MODEL 2
REMARK VINA RESULT:      -7.4      2.149      3.422
REMARK  Name = 
REMARK  5 active torsions:
REMARK  status: ('A' for Active; 'I' for Inactive)
REMARK    1  A    between atoms: C_2  and  C_3
REMARK    2  A    between atoms: C_3  and  C_4
REMARK    3  A    between atoms: C_4  and  C_5
REMARK    4  A    between atoms: C_5  and  C_6
REMARK    5  A    between atoms: N_12  and  C_13
REMARK                            x       y       z     vdW  Elec       q    Type
REMARK                         _______ _______ _______ _____ _____    ______ ____
ROOT
ATOM      1  O   UNL     1       4.961   5.536  19.512  0.00  0.00    +0.000 OA
ATOM      2  C   UNL     1       3.990   5.685  18.781  0.00  0.00    +0.000 C 
ATOM      3  N   UNL     1       4.041   5.461  17.430  0.00  0.00    +0.000 N 
ATOM      4  H   UNL     1       3.289   5.816  16.844  0.00  0.00    +0.000 HD
ENDROOT
BRANCH   3   5
ATOM      5  C   UNL     1       5.288   5.127  16.760  0.00  0.00    +0.000 C 
ATOM      6  C   UNL     1       5.361   3.700  16.267  0.00  0.00    +0.000 C 
ATOM      7  C   UNL     1       6.182   3.819  15.007  0.00  0.00    +0.000 C 
ATOM      8  O   UNL     1       5.930   5.123  14.484  0.00  0.00    +0.000 OA
ATOM      9  C   UNL     1       5.405   5.908  15.467  0.00  0.00    +0.000 C 
ATOM     10  O   UNL     1       5.069   7.075  15.313  0.00  0.00    +0.000 OA
ENDBRANCH   3   5
BRANCH   2  11
ATOM     11  C   UNL     1       2.610   6.100  19.264  0.00  0.00    +0.000 C 
BRANCH  11  12
ATOM     12  C   UNL     1       2.242   5.330  20.526  0.00  0.00    +0.000 C 
BRANCH  12  13
ATOM     13  C   UNL     1       0.970   4.503  20.382  0.00  0.00    +0.000 C 
BRANCH  13  14
ATOM     14  C   UNL     1       1.200   2.981  20.240  0.00  0.00    +0.000 C 
ATOM     15  C   UNL     1       0.958   2.454  18.812  0.00  0.00    +0.000 C 
ATOM     16  C   UNL     1       2.197   2.345  17.923  0.00  0.00    +0.000 C 
ATOM     17  C   UNL     1       3.347   1.657  18.638  0.00  0.00    +0.000 C 
ATOM     18  C   UNL     1       3.714   2.413  19.905  0.00  0.00    +0.000 C 
ATOM     19  C   UNL     1       2.530   2.510  20.861  0.00  0.00    +0.000 C 
ENDBRANCH  13  14
ENDBRANCH  12  13
ENDBRANCH  11  12
ENDBRANCH   2  11
TORSDOF 5
ENDMDL
MODEL 3
REMARK VINA RESULT:      -7.2      1.056      1.788
REMARK  Name = 
REMARK  5 active torsions:
REMARK  status: ('A' for Active; 'I' for Inactive)
REMARK    1  A    between atoms: C_2  and  C_3
REMARK    2  A    between atoms: C_3  and  C_4
REMARK    3  A    between atoms: C_4  and  C_5
REMARK    4  A    between atoms: C_5  and  C_6
REMARK    5  A    between atoms: N_12  and  C_13
REMARK                            x       y       z     vdW  Elec       q    Type
REMARK                         _______ _______ _______ _____ _____    ______ ____
ROOT
ATOM      1  O   UNL     1       7.813   4.612  16.844  0.00  0.00    +0.000 OA
ATOM      2  C   UNL     1       7.042   5.463  16.416  0.00  0.00    +0.000 C 
ATOM      3  N   UNL     1       6.506   5.407  15.156  0.00  0.00    +0.000 N 
ATOM      4  H   UNL     1       6.067   6.240  14.772  0.00  0.00    +0.000 HD
ENDROOT
BRANCH   3   5
ATOM      5  C   UNL     1       6.901   4.379  14.205  0.00  0.00    +0.000 C 
ATOM      6  C   UNL     1       5.745   3.743  13.468  0.00  0.00    +0.000 C 
ATOM      7  C   UNL     1       6.331   3.446  12.111  0.00  0.00    +0.000 C 
ATOM      8  O   UNL     1       7.336   4.432  11.881  0.00  0.00    +0.000 OA
ATOM      9  C   UNL     1       7.687   5.002  13.069  0.00  0.00    +0.000 C 
ATOM     10  O   UNL     1       8.516   5.895  13.189  0.00  0.00    +0.000 OA
ENDBRANCH   3   5
BRANCH   2  11
ATOM     11  C   UNL     1       6.556   6.659  17.217  0.00  0.00    +0.000 C 
BRANCH  11  12
ATOM     12  C   UNL     1       5.246   6.323  17.919  0.00  0.00    +0.000 C 
BRANCH  12  13
ATOM     13  C   UNL     1       5.429   5.465  19.165  0.00  0.00    +0.000 C 
BRANCH  13  14
ATOM     14  C   UNL     1       4.433   4.290  19.293  0.00  0.00    +0.000 C 
ATOM     15  C   UNL     1       3.044   4.716  19.808  0.00  0.00    +0.000 C 
ATOM     16  C   UNL     1       1.994   4.997  18.733  0.00  0.00    +0.000 C 
ATOM     17  C   UNL     1       1.944   3.895  17.688  0.00  0.00    +0.000 C 
ATOM     18  C   UNL     1       3.301   3.733  17.022  0.00  0.00    +0.000 C 
ATOM     19  C   UNL     1       4.387   3.397  18.039  0.00  0.00    +0.000 C 
ENDBRANCH  13  14
ENDBRANCH  12  13
ENDBRANCH  11  12
ENDBRANCH   2  11
TORSDOF 5
ENDMDL
MODEL 4
REMARK VINA RESULT:      -7.1      0.710      1.381
REMARK  Name = 
REMARK  5 active torsions:
REMARK  status: ('A' for Active; 'I' for Inactive)
REMARK    1  A    between atoms: C_2  and  C_3
REMARK    2  A    between atoms: C_3  and  C_4
REMARK    3  A    between atoms: C_4  and  C_5
REMARK    4  A    between atoms: C_5  and  C_6
REMARK    5  A    between atoms: N_12  and  C_13
REMARK                            x       y       z     vdW  Elec       q    Type
REMARK                         _______ _______ _______ _____ _____    ______ ____
ROOT
ATOM      1  O   UNL     1       6.427   4.381  17.126  0.00  0.00    +0.000 OA
ATOM      2  C   UNL     1       6.167   5.428  16.547  0.00  0.00    +0.000 C 
ATOM      3  N   UNL     1       6.219   5.551  15.183  0.00  0.00    +0.000 N 
ATOM      4  H   UNL     1       6.223   6.481  14.773  0.00  0.00    +0.000 HD
ENDROOT
BRANCH   3   5
ATOM      5  C   UNL     1       6.687   4.463  14.338  0.00  0.00    +0.000 C 
ATOM      6  C   UNL     1       5.604   3.824  13.499  0.00  0.00    +0.000 C 
ATOM      7  C   UNL     1       6.336   3.438  12.238  0.00  0.00    +0.000 C 
ATOM      8  O   UNL     1       7.397   4.380  12.084  0.00  0.00    +0.000 OA
ATOM      9  C   UNL     1       7.624   5.000  13.276  0.00  0.00    +0.000 C 
ATOM     10  O   UNL     1       8.464   5.873  13.452  0.00  0.00    +0.000 OA
ENDBRANCH   3   5
BRANCH   2  11
ATOM     11  C   UNL     1       5.728   6.706  17.243  0.00  0.00    +0.000 C 
BRANCH  11  12
ATOM     12  C   UNL     1       4.211   6.837  17.191  0.00  0.00    +0.000 C 
BRANCH  12  13
ATOM     13  C   UNL     1       3.535   6.572  18.530  0.00  0.00    +0.000 C 
BRANCH  13  14
ATOM     14  C   UNL     1       3.490   5.084  18.949  0.00  0.00    +0.000 C 
ATOM     15  C   UNL     1       2.840   4.854  20.328  0.00  0.00    +0.000 C 
ATOM     16  C   UNL     1       1.351   4.507  20.312  0.00  0.00    +0.000 C 
ATOM     17  C   UNL     1       1.034   3.418  19.301  0.00  0.00    +0.000 C 
ATOM     18  C   UNL     1       1.455   3.851  17.905  0.00  0.00    +0.000 C 
ATOM     19  C   UNL     1       2.947   4.161  17.841  0.00  0.00    +0.000 C 
ENDBRANCH  13  14
ENDBRANCH  12  13
ENDBRANCH  11  12
ENDBRANCH   2  11
TORSDOF 5
ENDMDL
MODEL 5
REMARK VINA RESULT:      -7.1      3.171      4.641
REMARK  Name = 
REMARK  5 active torsions:
REMARK  status: ('A' for Active; 'I' for Inactive)
REMARK    1  A    between atoms: C_2  and  C_3
REMARK    2  A    between atoms: C_3  and  C_4
REMARK    3  A    between atoms: C_4  and  C_5
REMARK    4  A    between atoms: C_5  and  C_6
REMARK    5  A    between atoms: N_12  and  C_13
REMARK                            x       y       z     vdW  Elec       q    Type
REMARK                         _______ _______ _______ _____ _____    ______ ____
ROOT
ATOM      1  O   UNL     1       2.688   5.767  17.746  0.00  0.00    +0.000 OA
ATOM      2  C   UNL     1       3.093   6.008  18.876  0.00  0.00    +0.000 C 
ATOM      3  N   UNL     1       4.425   6.007  19.200  0.00  0.00    +0.000 N 
ATOM      4  H   UNL     1       4.691   5.981  20.181  0.00  0.00    +0.000 HD
ENDROOT
BRANCH   3   5
ATOM      5  C   UNL     1       5.442   5.619  18.236  0.00  0.00    +0.000 C 
ATOM      6  C   UNL     1       5.691   6.645  17.155  0.00  0.00    +0.000 C 
ATOM      7  C   UNL     1       7.165   6.494  16.877  0.00  0.00    +0.000 C 
ATOM      8  O   UNL     1       7.762   6.055  18.096  0.00  0.00    +0.000 OA
ATOM      9  C   UNL     1       6.796   5.549  18.913  0.00  0.00    +0.000 C 
ATOM     10  O   UNL     1       7.001   5.111  20.038  0.00  0.00    +0.000 OA
ENDBRANCH   3   5
BRANCH   2  11
ATOM     11  C   UNL     1       2.195   6.364  20.049  0.00  0.00    +0.000 C 
BRANCH  11  12
ATOM     12  C   UNL     1       1.963   5.138  20.924  0.00  0.00    +0.000 C 
BRANCH  12  13
ATOM     13  C   UNL     1       0.880   4.209  20.390  0.00  0.00    +0.000 C 
BRANCH  13  14
ATOM     14  C   UNL     1       1.316   2.736  20.221  0.00  0.00    +0.000 C 
ATOM     15  C   UNL     1       1.104   2.192  18.794  0.00  0.00    +0.000 C 
ATOM     16  C   UNL     1       2.316   2.266  17.867  0.00  0.00    +0.000 C 
ATOM     17  C   UNL     1       3.575   1.741  18.536  0.00  0.00    +0.000 C 
ATOM     18  C   UNL     1       3.872   2.530  19.801  0.00  0.00    +0.000 C 
ATOM     19  C   UNL     1       2.718   2.451  20.795  0.00  0.00    +0.000 C 
ENDBRANCH  13  14
ENDBRANCH  12  13
ENDBRANCH  11  12
ENDBRANCH   2  11
TORSDOF 5
ENDMDL
MODEL 6
REMARK VINA RESULT:      -7.0      1.735      2.936
REMARK  Name = 
REMARK  5 active torsions:
REMARK  status: ('A' for Active; 'I' for Inactive)
REMARK    1  A    between atoms: C_2  and  C_3
REMARK    2  A    between atoms: C_3  and  C_4
REMARK    3  A    between atoms: C_4  and  C_5
REMARK    4  A    between atoms: C_5  and  C_6
REMARK    5  A    between atoms: N_12  and  C_13
REMARK                            x       y       z     vdW  Elec       q    Type
REMARK                         _______ _______ _______ _____ _____    ______ ____
ROOT
ATOM      1  O   UNL     1       4.428   6.399  16.556  0.00  0.00    +0.000 OA
ATOM      2  C   UNL     1       4.423   5.647  17.522  0.00  0.00    +0.000 C 
ATOM      3  N   UNL     1       5.329   4.629  17.670  0.00  0.00    +0.000 N 
ATOM      4  H   UNL     1       5.143   3.902  18.356  0.00  0.00    +0.000 HD
ENDROOT
BRANCH   3   5
ATOM      5  C   UNL     1       6.297   4.313  16.631  0.00  0.00    +0.000 C 
ATOM      6  C   UNL     1       5.693   4.152  15.254  0.00  0.00    +0.000 C 
ATOM      7  C   UNL     1       6.777   4.676  14.346  0.00  0.00    +0.000 C 
ATOM      8  O   UNL     1       7.490   5.658  15.096  0.00  0.00    +0.000 OA
ATOM      9  C   UNL     1       7.232   5.487  16.423  0.00  0.00    +0.000 C 
ATOM     10  O   UNL     1       7.689   6.192  17.313  0.00  0.00    +0.000 OA
ENDBRANCH   3   5
BRANCH   2  11
ATOM     11  C   UNL     1       3.452   5.754  18.686  0.00  0.00    +0.000 C 
BRANCH  11  12
ATOM     12  C   UNL     1       2.048   5.374  18.234  0.00  0.00    +0.000 C 
BRANCH  12  13
ATOM     13  C   UNL     1       1.975   4.004  17.573  0.00  0.00    +0.000 C 
BRANCH  13  14
ATOM     14  C   UNL     1       1.689   2.832  18.541  0.00  0.00    +0.000 C 
ATOM     15  C   UNL     1       2.958   2.070  18.972  0.00  0.00    +0.000 C 
ATOM     16  C   UNL     1       3.585   2.516  20.293  0.00  0.00    +0.000 C 
ATOM     17  C   UNL     1       2.549   2.646  21.396  0.00  0.00    +0.000 C 
ATOM     18  C   UNL     1       1.474   3.645  20.999  0.00  0.00    +0.000 C 
ATOM     19  C   UNL     1       0.769   3.227  19.712  0.00  0.00    +0.000 C 
ENDBRANCH  13  14
ENDBRANCH  12  13
ENDBRANCH  11  12
ENDBRANCH   2  11
TORSDOF 5
ENDMDL
MODEL 7
REMARK VINA RESULT:      -7.0      1.214      1.405
REMARK  Name = 
REMARK  5 active torsions:
REMARK  status: ('A' for Active; 'I' for Inactive)
REMARK    1  A    between atoms: C_2  and  C_3
REMARK    2  A    between atoms: C_3  and  C_4
REMARK    3  A    between atoms: C_4  and  C_5
REMARK    4  A    between atoms: C_5  and  C_6
REMARK    5  A    between atoms: N_12  and  C_13
REMARK                            x       y       z     vdW  Elec       q    Type
REMARK                         _______ _______ _______ _____ _____    ______ ____
ROOT
ATOM      1  O   UNL     1       7.228   4.581  17.019  0.00  0.00    +0.000 OA
ATOM      2  C   UNL     1       6.577   5.471  16.486  0.00  0.00    +0.000 C 
ATOM      3  N   UNL     1       6.229   5.440  15.161  0.00  0.00    +0.000 N 
ATOM      4  H   UNL     1       5.897   6.294  14.720  0.00  0.00    +0.000 HD
ENDROOT
BRANCH   3   5
ATOM      5  C   UNL     1       6.701   4.388  14.274  0.00  0.00    +0.000 C 
ATOM      6  C   UNL     1       5.613   3.748  13.442  0.00  0.00    +0.000 C 
ATOM      7  C   UNL     1       6.324   3.415  12.154  0.00  0.00    +0.000 C 
ATOM      8  O   UNL     1       7.359   4.386  12.003  0.00  0.00    +0.000 OA
ATOM      9  C   UNL     1       7.600   4.977  13.207  0.00  0.00    +0.000 C 
ATOM     10  O   UNL     1       8.424   5.864  13.388  0.00  0.00    +0.000 OA
ENDBRANCH   3   5
BRANCH   2  11
ATOM     11  C   UNL     1       6.046   6.696  17.213  0.00  0.00    +0.000 C 
BRANCH  11  12
ATOM     12  C   UNL     1       4.535   6.593  17.379  0.00  0.00    +0.000 C 
BRANCH  12  13
ATOM     13  C   UNL     1       4.113   6.010  18.723  0.00  0.00    +0.000 C 
BRANCH  13  14
ATOM     14  C   UNL     1       3.017   4.923  18.641  0.00  0.00    +0.000 C 
ATOM     15  C   UNL     1       3.106   4.056  17.369  0.00  0.00    +0.000 C 
ATOM     16  C   UNL     1       3.872   2.741  17.513  0.00  0.00    +0.000 C 
ATOM     17  C   UNL     1       3.443   1.967  18.748  0.00  0.00    +0.000 C 
ATOM     18  C   UNL     1       3.658   2.804  20.000  0.00  0.00    +0.000 C 
ATOM     19  C   UNL     1       2.873   4.110  19.942  0.00  0.00    +0.000 C 
ENDBRANCH  13  14
ENDBRANCH  12  13
ENDBRANCH  11  12
ENDBRANCH   2  11
TORSDOF 5
ENDMDL
MODEL 8
REMARK VINA RESULT:      -7.0      2.174      3.703
REMARK  Name = 
REMARK  5 active torsions:
REMARK  status: ('A' for Active; 'I' for Inactive)
REMARK    1  A    between atoms: C_2  and  C_3
REMARK    2  A    between atoms: C_3  and  C_4
REMARK    3  A    between atoms: C_4  and  C_5
REMARK    4  A    between atoms: C_5  and  C_6
REMARK    5  A    between atoms: N_12  and  C_13
REMARK                            x       y       z     vdW  Elec       q    Type
REMARK                         _______ _______ _______ _____ _____    ______ ____
ROOT
ATOM      1  O   UNL     1       2.747   4.969  17.442  0.00  0.00    +0.000 OA
ATOM      2  C   UNL     1       3.465   5.649  18.163  0.00  0.00    +0.000 C 
ATOM      3  N   UNL     1       4.832   5.648  18.058  0.00  0.00    +0.000 N 
ATOM      4  H   UNL     1       5.383   6.040  18.817  0.00  0.00    +0.000 HD
ENDROOT
BRANCH   3   5
ATOM      5  C   UNL     1       5.524   4.756  17.141  0.00  0.00    +0.000 C 
ATOM      6  C   UNL     1       5.646   5.291  15.733  0.00  0.00    +0.000 C 
ATOM      7  C   UNL     1       6.975   4.743  15.276  0.00  0.00    +0.000 C 
ATOM      8  O   UNL     1       7.780   4.611  16.448  0.00  0.00    +0.000 OA
ATOM      9  C   UNL     1       6.977   4.622  17.549  0.00  0.00    +0.000 C 
ATOM     10  O   UNL     1       7.383   4.543  18.701  0.00  0.00    +0.000 OA
ENDBRANCH   3   5
BRANCH   2  11
ATOM     11  C   UNL     1       2.952   6.596  19.236  0.00  0.00    +0.000 C 
BRANCH  11  12
ATOM     12  C   UNL     1       1.910   5.895  20.099  0.00  0.00    +0.000 C 
BRANCH  12  13
ATOM     13  C   UNL     1       2.516   4.992  21.166  0.00  0.00    +0.000 C 
BRANCH  13  14
ATOM     14  C   UNL     1       2.024   3.527  21.130  0.00  0.00    +0.000 C 
ATOM     15  C   UNL     1       0.745   3.329  20.293  0.00  0.00    +0.000 C 
ATOM     16  C   UNL     1       0.960   2.898  18.842  0.00  0.00    +0.000 C 
ATOM     17  C   UNL     1       1.944   1.745  18.732  0.00  0.00    +0.000 C 
ATOM     18  C   UNL     1       3.284   2.132  19.336  0.00  0.00    +0.000 C 
ATOM     19  C   UNL     1       3.146   2.521  20.804  0.00  0.00    +0.000 C 
ENDBRANCH  13  14
ENDBRANCH  12  13
ENDBRANCH  11  12
ENDBRANCH   2  11
TORSDOF 5
ENDMDL
MODEL 9
REMARK VINA RESULT:      -6.9      2.536      3.999
REMARK  Name = 
REMARK  5 active torsions:
REMARK  status: ('A' for Active; 'I' for Inactive)
REMARK    1  A    between atoms: C_2  and  C_3
REMARK    2  A    between atoms: C_3  and  C_4
REMARK    3  A    between atoms: C_4  and  C_5
REMARK    4  A    between atoms: C_5  and  C_6
REMARK    5  A    between atoms: N_12  and  C_13
REMARK                            x       y       z     vdW  Elec       q    Type
REMARK                         _______ _______ _______ _____ _____    ______ ____
ROOT
ATOM      1  O   UNL     1       6.362   3.730  15.962  0.00  0.00    +0.000 OA
ATOM      2  C   UNL     1       5.496   4.248  16.656  0.00  0.00    +0.000 C 
ATOM      3  N   UNL     1       5.656   5.476  17.243  0.00  0.00    +0.000 N 
ATOM      4  H   UNL     1       5.018   5.753  17.984  0.00  0.00    +0.000 HD
ENDROOT
BRANCH   3   5
ATOM      5  C   UNL     1       6.914   6.203  17.158  0.00  0.00    +0.000 C 
ATOM      6  C   UNL     1       6.759   7.706  17.155  0.00  0.00    +0.000 C 
ATOM      7  C   UNL     1       7.990   8.175  17.888  0.00  0.00    +0.000 C 
ATOM      8  O   UNL     1       8.336   7.135  18.801  0.00  0.00    +0.000 OA
ATOM      9  C   UNL     1       7.725   5.978  18.418  0.00  0.00    +0.000 C 
ATOM     10  O   UNL     1       7.819   4.915  19.018  0.00  0.00    +0.000 OA
ENDBRANCH   3   5
BRANCH   2  11
ATOM     11  C   UNL     1       4.137   3.628  16.934  0.00  0.00    +0.000 C 
BRANCH  11  12
ATOM     12  C   UNL     1       3.324   4.535  17.848  0.00  0.00    +0.000 C 
BRANCH  12  13
ATOM     13  C   UNL     1       1.819   4.335  17.718  0.00  0.00    +0.000 C 
BRANCH  13  14
ATOM     14  C   UNL     1       1.164   3.571  18.891  0.00  0.00    +0.000 C 
ATOM     15  C   UNL     1       1.786   2.183  19.144  0.00  0.00    +0.000 C 
ATOM     16  C   UNL     1       2.879   2.129  20.211  0.00  0.00    +0.000 C 
ATOM     17  C   UNL     1       2.466   2.851  21.482  0.00  0.00    +0.000 C 
ATOM     18  C   UNL     1       2.140   4.306  21.184  0.00  0.00    +0.000 C 
ATOM     19  C   UNL     1       1.014   4.429  20.162  0.00  0.00    +0.000 C 
ENDBRANCH  13  14
ENDBRANCH  12  13
ENDBRANCH  11  12
ENDBRANCH   2  11
TORSDOF 5
ENDMDL
