MODEL 1
REMARK VINA RESULT:      -6.4      0.000      0.000
REMARK  Name = 
REMARK  6 active torsions:
REMARK  status: ('A' for Active; 'I' for Inactive)
REMARK    1  A    between atoms: C_1  and  C_2
REMARK    2  A    between atoms: C_2  and  C_3
REMARK    3  A    between atoms: C_2  and  N_9
REMARK    4  A    between atoms: C_3  and  C_4
REMARK    5  A    between atoms: C_13  and  C_14
REMARK    6  A    between atoms: C_17  and  N_18
REMARK                            x       y       z     vdW  Elec       q    Type
REMARK                         _______ _______ _______ _____ _____    ______ ____
ROOT
ATOM      1  N   UNL     1       5.822   4.788  17.152  0.00  0.00    +0.000 N 
ATOM      2  C   UNL     1       7.108   4.352  17.358  0.00  0.00    +0.000 A 
ATOM      3  C   UNL     1       7.602   5.099  18.397  0.00  0.00    +0.000 A 
ATOM      4  N   UNL     1       6.657   5.974  18.840  0.00  0.00    +0.000 NA
ATOM      5  C   UNL     1       5.587   5.809  18.075  0.00  0.00    +0.000 A 
ENDROOT
BRANCH   5   6
ATOM      6  C   UNL     1       4.339   6.558  18.293  0.00  0.00    +0.000 A 
ATOM      7  C   UNL     1       3.503   6.332  19.385  0.00  0.00    +0.000 A 
ATOM      8  C   UNL     1       2.431   7.182  19.668  0.00  0.00    +0.000 A 
ATOM      9  C   UNL     1       2.098   8.219  18.792  0.00  0.00    +0.000 A 
ATOM     10  C   UNL     1       2.852   8.383  17.623  0.00  0.00    +0.000 A 
ATOM     11  C   UNL     1       3.969   7.565  17.388  0.00  0.00    +0.000 A 
BRANCH   9  12
ATOM     12  N   UNL     1       1.002   9.072  19.097  0.00  0.00    +0.000 N 
ATOM     13  C   UNL     1       0.509   9.376  20.350  0.00  0.00    +0.000 A 
ATOM     14  C   UNL     1      -0.560  10.216  20.149  0.00  0.00    +0.000 A 
ATOM     15  N   UNL     1      -0.742  10.459  18.819  0.00  0.00    +0.000 NA
ATOM     16  C   UNL     1       0.205   9.771  18.215  0.00  0.00    +0.000 A 
ENDBRANCH   9  12
ENDBRANCH   5   6
BRANCH   1  18
ATOM     17  C   UNL     1       5.556   4.180  14.717  0.00  0.00    +0.000 C 
ATOM     18  C   UNL     1       4.912   4.275  16.113  0.00  0.00    +0.000 C 
BRANCH  18  19
ATOM     19  C   UNL     1       4.274   2.916  16.494  0.00  0.00    +0.000 C 
BRANCH  19  20
ATOM     20  C   UNL     1       3.298   2.989  17.648  0.00  0.00    +0.000 A 
ATOM     21  C   UNL     1       2.016   3.632  17.560  0.00  0.00    +0.000 A 
ATOM     22  C   UNL     1       1.306   3.573  18.737  0.00  0.00    +0.000 A 
ATOM     23  S   UNL     1       2.160   2.746  19.961  0.00  0.00    +0.000 S 
ATOM     24  C   UNL     1       3.478   2.447  18.908  0.00  0.00    +0.000 A 
ENDBRANCH  19  20
ENDBRANCH  18  19
ENDBRANCH   1  18
TORSDOF 5
ENDMDL
MODEL 2
REMARK VINA RESULT:      -6.3      0.556      1.119
REMARK  Name = 
REMARK  6 active torsions:
REMARK  status: ('A' for Active; 'I' for Inactive)
REMARK    1  A    between atoms: C_1  and  C_2
REMARK    2  A    between atoms: C_2  and  C_3
REMARK    3  A    between atoms: C_2  and  N_9
REMARK    4  A    between atoms: C_3  and  C_4
REMARK    5  A    between atoms: C_13  and  C_14
REMARK    6  A    between atoms: C_17  and  N_18
REMARK                            x       y       z     vdW  Elec       q    Type
REMARK                         _______ _______ _______ _____ _____    ______ ____
ROOT
ATOM      1  N   UNL     1       5.801   4.834  17.110  0.00  0.00    +0.000 N 
ATOM      2  C   UNL     1       7.100   4.423  17.284  0.00  0.00    +0.000 A 
ATOM      3  C   UNL     1       7.616   5.204  18.286  0.00  0.00    +0.000 A 
ATOM      4  N   UNL     1       6.672   6.076  18.739  0.00  0.00    +0.000 NA
ATOM      5  C   UNL     1       5.579   5.875  18.016  0.00  0.00    +0.000 A 
ENDROOT
BRANCH   5   6
ATOM      6  C   UNL     1       4.327   6.608  18.257  0.00  0.00    +0.000 A 
ATOM      7  C   UNL     1       3.499   6.352  19.348  0.00  0.00    +0.000 A 
ATOM      8  C   UNL     1       2.422   7.187  19.656  0.00  0.00    +0.000 A 
ATOM      9  C   UNL     1       2.077   8.241  18.807  0.00  0.00    +0.000 A 
ATOM     10  C   UNL     1       2.823   8.437  17.637  0.00  0.00    +0.000 A 
ATOM     11  C   UNL     1       3.945   7.634  17.378  0.00  0.00    +0.000 A 
BRANCH   9  12
ATOM     12  N   UNL     1       0.976   9.078  19.136  0.00  0.00    +0.000 N 
ATOM     13  C   UNL     1       0.212   9.827  18.264  0.00  0.00    +0.000 A 
ATOM     14  C   UNL     1      -0.717  10.485  19.034  0.00  0.00    +0.000 A 
ATOM     15  N   UNL     1      -0.571  10.163  20.352  0.00  0.00    +0.000 NA
ATOM     16  C   UNL     1       0.440   9.318  20.384  0.00  0.00    +0.000 A 
ENDBRANCH   9  12
ENDBRANCH   5   6
BRANCH   1  18
ATOM     17  C   UNL     1       5.451   4.191  14.695  0.00  0.00    +0.000 C 
ATOM     18  C   UNL     1       4.865   4.280  16.117  0.00  0.00    +0.000 C 
BRANCH  18  19
ATOM     19  C   UNL     1       4.287   2.905  16.537  0.00  0.00    +0.000 C 
BRANCH  19  20
ATOM     20  C   UNL     1       3.372   2.958  17.741  0.00  0.00    +0.000 A 
ATOM     21  C   UNL     1       3.802   2.646  19.076  0.00  0.00    +0.000 A 
ATOM     22  C   UNL     1       2.793   2.762  20.004  0.00  0.00    +0.000 A 
ATOM     23  S   UNL     1       1.320   3.249  19.293  0.00  0.00    +0.000 S 
ATOM     24  C   UNL     1       2.038   3.324  17.739  0.00  0.00    +0.000 A 
ENDBRANCH  19  20
ENDBRANCH  18  19
ENDBRANCH   1  18
TORSDOF 5
ENDMDL
MODEL 3
REMARK VINA RESULT:      -6.2      2.520      4.005
REMARK  Name = 
REMARK  6 active torsions:
REMARK  status: ('A' for Active; 'I' for Inactive)
REMARK    1  A    between atoms: C_1  and  C_2
REMARK    2  A    between atoms: C_2  and  C_3
REMARK    3  A    between atoms: C_2  and  N_9
REMARK    4  A    between atoms: C_3  and  C_4
REMARK    5  A    between atoms: C_13  and  C_14
REMARK    6  A    between atoms: C_17  and  N_18
REMARK                            x       y       z     vdW  Elec       q    Type
REMARK                         _______ _______ _______ _____ _____    ______ ____
ROOT
ATOM      1  N   UNL     1       3.228   4.555  19.704  0.00  0.00    +0.000 N 
ATOM      2  C   UNL     1       3.054   3.313  20.265  0.00  0.00    +0.000 A 
ATOM      3  C   UNL     1       2.003   3.433  21.138  0.00  0.00    +0.000 A 
ATOM      4  N   UNL     1       1.521   4.707  21.125  0.00  0.00    +0.000 NA
ATOM      5  C   UNL     1       2.273   5.398  20.278  0.00  0.00    +0.000 A 
ENDROOT
BRANCH   5   6
ATOM      6  C   UNL     1       2.014   6.812  19.967  0.00  0.00    +0.000 A 
ATOM      7  C   UNL     1       2.321   7.383  18.733  0.00  0.00    +0.000 A 
ATOM      8  C   UNL     1       1.893   8.670  18.401  0.00  0.00    +0.000 A 
ATOM      9  C   UNL     1       1.241   9.466  19.346  0.00  0.00    +0.000 A 
ATOM     10  C   UNL     1       1.036   8.954  20.634  0.00  0.00    +0.000 A 
ATOM     11  C   UNL     1       1.410   7.634  20.931  0.00  0.00    +0.000 A 
BRANCH   9  12
ATOM     12  N   UNL     1       0.815  10.775  18.989  0.00  0.00    +0.000 N 
ATOM     13  C   UNL     1       1.608  11.896  18.846  0.00  0.00    +0.000 A 
ATOM     14  C   UNL     1       0.761  12.927  18.515  0.00  0.00    +0.000 A 
ATOM     15  N   UNL     1      -0.528  12.487  18.431  0.00  0.00    +0.000 NA
ATOM     16  C   UNL     1      -0.466  11.201  18.712  0.00  0.00    +0.000 A 
ENDBRANCH   9  12
ENDBRANCH   5   6
BRANCH   1  18
ATOM     17  C   UNL     1       5.680   5.004  19.314  0.00  0.00    +0.000 C 
ATOM     18  C   UNL     1       4.265   4.898  18.715  0.00  0.00    +0.000 C 
BRANCH  18  19
ATOM     19  C   UNL     1       4.276   3.939  17.499  0.00  0.00    +0.000 C 
BRANCH  19  20
ATOM     20  C   UNL     1       5.126   4.413  16.341  0.00  0.00    +0.000 A 
ATOM     21  C   UNL     1       5.144   5.773  15.878  0.00  0.00    +0.000 A 
ATOM     22  C   UNL     1       5.992   5.965  14.812  0.00  0.00    +0.000 A 
ATOM     23  S   UNL     1       6.781   4.523  14.353  0.00  0.00    +0.000 S 
ATOM     24  C   UNL     1       6.000   3.641  15.597  0.00  0.00    +0.000 A 
ENDBRANCH  19  20
ENDBRANCH  18  19
ENDBRANCH   1  18
TORSDOF 5
ENDMDL
MODEL 4
REMARK VINA RESULT:      -6.1      3.444      5.511
REMARK  Name = 
REMARK  6 active torsions:
REMARK  status: ('A' for Active; 'I' for Inactive)
REMARK    1  A    between atoms: C_1  and  C_2
REMARK    2  A    between atoms: C_2  and  C_3
REMARK    3  A    between atoms: C_2  and  N_9
REMARK    4  A    between atoms: C_3  and  C_4
REMARK    5  A    between atoms: C_13  and  C_14
REMARK    6  A    between atoms: C_17  and  N_18
REMARK                            x       y       z     vdW  Elec       q    Type
REMARK                         _______ _______ _______ _____ _____    ______ ____
ROOT
ATOM      1  N   UNL     1       5.212   5.156  17.002  0.00  0.00    +0.000 N 
ATOM      2  C   UNL     1       5.110   4.023  16.232  0.00  0.00    +0.000 A 
ATOM      3  C   UNL     1       6.335   3.851  15.640  0.00  0.00    +0.000 A 
ATOM      4  N   UNL     1       7.189   4.839  16.027  0.00  0.00    +0.000 NA
ATOM      5  C   UNL     1       6.510   5.646  16.832  0.00  0.00    +0.000 A 
ENDROOT
BRANCH   5   6
ATOM      6  C   UNL     1       7.127   6.808  17.489  0.00  0.00    +0.000 A 
ATOM      7  C   UNL     1       7.966   6.693  18.596  0.00  0.00    +0.000 A 
ATOM      8  C   UNL     1       8.686   7.788  19.079  0.00  0.00    +0.000 A 
ATOM      9  C   UNL     1       8.495   9.060  18.532  0.00  0.00    +0.000 A 
ATOM     10  C   UNL     1       7.561   9.217  17.501  0.00  0.00    +0.000 A 
ATOM     11  C   UNL     1       6.896   8.096  16.979  0.00  0.00    +0.000 A 
BRANCH   9  12
ATOM     12  N   UNL     1       9.236  10.162  19.040  0.00  0.00    +0.000 N 
ATOM     13  C   UNL     1       9.979  11.069  18.311  0.00  0.00    +0.000 A 
ATOM     14  C   UNL     1      10.529  11.937  19.224  0.00  0.00    +0.000 A 
ATOM     15  N   UNL     1      10.144  11.615  20.493  0.00  0.00    +0.000 NA
ATOM     16  C   UNL     1       9.369  10.558  20.354  0.00  0.00    +0.000 A 
ENDBRANCH   9  12
ENDBRANCH   5   6
BRANCH   1  18
ATOM     17  C   UNL     1       3.830   7.211  17.488  0.00  0.00    +0.000 C 
ATOM     18  C   UNL     1       4.122   5.732  17.807  0.00  0.00    +0.000 C 
BRANCH  18  19
ATOM     19  C   UNL     1       2.814   4.906  17.724  0.00  0.00    +0.000 C 
BRANCH  19  20
ATOM     20  C   UNL     1       2.400   4.265  19.032  0.00  0.00    +0.000 A 
ATOM     21  C   UNL     1       1.383   3.256  19.131  0.00  0.00    +0.000 A 
ATOM     22  C   UNL     1       1.179   2.826  20.421  0.00  0.00    +0.000 A 
ATOM     23  S   UNL     1       2.205   3.619  21.531  0.00  0.00    +0.000 S 
ATOM     24  C   UNL     1       2.938   4.529  20.279  0.00  0.00    +0.000 A 
ENDBRANCH  19  20
ENDBRANCH  18  19
ENDBRANCH   1  18
TORSDOF 5
ENDMDL
MODEL 5
REMARK VINA RESULT:      -6.1      3.338      8.095
REMARK  Name = 
REMARK  6 active torsions:
REMARK  status: ('A' for Active; 'I' for Inactive)
REMARK    1  A    between atoms: C_1  and  C_2
REMARK    2  A    between atoms: C_2  and  C_3
REMARK    3  A    between atoms: C_2  and  N_9
REMARK    4  A    between atoms: C_3  and  C_4
REMARK    5  A    between atoms: C_13  and  C_14
REMARK    6  A    between atoms: C_17  and  N_18
REMARK                            x       y       z     vdW  Elec       q    Type
REMARK                         _______ _______ _______ _____ _____    ______ ____
ROOT
ATOM      1  N   UNL     1      -0.025  12.122  19.442  0.00  0.00    +0.000 N 
ATOM      2  C   UNL     1       0.157  13.474  19.279  0.00  0.00    +0.000 A 
ATOM      3  C   UNL     1       1.416  13.629  18.758  0.00  0.00    +0.000 A 
ATOM      4  N   UNL     1       2.010  12.415  18.589  0.00  0.00    +0.000 NA
ATOM      5  C   UNL     1       1.154  11.500  19.024  0.00  0.00    +0.000 A 
ENDROOT
BRANCH   5   6
ATOM      6  C   UNL     1       1.436  10.059  18.951  0.00  0.00    +0.000 A 
ATOM      7  C   UNL     1       1.824   9.422  17.773  0.00  0.00    +0.000 A 
ATOM      8  C   UNL     1       2.268   8.098  17.774  0.00  0.00    +0.000 A 
ATOM      9  C   UNL     1       2.225   7.337  18.945  0.00  0.00    +0.000 A 
ATOM     10  C   UNL     1       1.718   7.922  20.113  0.00  0.00    +0.000 A 
ATOM     11  C   UNL     1       1.342   9.275  20.112  0.00  0.00    +0.000 A 
BRANCH   9  12
ATOM     12  N   UNL     1       2.678   5.989  18.925  0.00  0.00    +0.000 N 
ATOM     13  C   UNL     1       3.604   5.412  19.771  0.00  0.00    +0.000 A 
ATOM     14  C   UNL     1       3.737   4.106  19.361  0.00  0.00    +0.000 A 
ATOM     15  N   UNL     1       2.919   3.845  18.302  0.00  0.00    +0.000 NA
ATOM     16  C   UNL     1       2.294   4.981  18.067  0.00  0.00    +0.000 A 
ENDBRANCH   9  12
ENDBRANCH   5   6
BRANCH   1  18
ATOM     17  C   UNL     1      -1.377  11.657  21.522  0.00  0.00    +0.000 C 
ATOM     18  C   UNL     1      -1.236  11.493  19.996  0.00  0.00    +0.000 C 
BRANCH  18  19
ATOM     19  C   UNL     1      -2.533  11.965  19.292  0.00  0.00    +0.000 C 
BRANCH  19  20
ATOM     20  C   UNL     1      -2.799  11.289  17.964  0.00  0.00    +0.000 A 
ATOM     21  C   UNL     1      -1.981  10.233  17.436  0.00  0.00    +0.000 A 
ATOM     22  C   UNL     1      -2.419   9.777  16.214  0.00  0.00    +0.000 A 
ATOM     23  S   UNL     1      -3.814  10.604  15.683  0.00  0.00    +0.000 S 
ATOM     24  C   UNL     1      -3.846  11.562  17.103  0.00  0.00    +0.000 A 
ENDBRANCH  19  20
ENDBRANCH  18  19
ENDBRANCH   1  18
TORSDOF 5
ENDMDL
MODEL 6
REMARK VINA RESULT:      -6.0      3.600      5.602
REMARK  Name = 
REMARK  6 active torsions:
REMARK  status: ('A' for Active; 'I' for Inactive)
REMARK    1  A    between atoms: C_1  and  C_2
REMARK    2  A    between atoms: C_2  and  C_3
REMARK    3  A    between atoms: C_2  and  N_9
REMARK    4  A    between atoms: C_3  and  C_4
REMARK    5  A    between atoms: C_13  and  C_14
REMARK    6  A    between atoms: C_17  and  N_18
REMARK                            x       y       z     vdW  Elec       q    Type
REMARK                         _______ _______ _______ _____ _____    ______ ____
ROOT
ATOM      1  N   UNL     1       5.736   4.977  17.339  0.00  0.00    +0.000 N 
ATOM      2  C   UNL     1       5.561   4.005  16.384  0.00  0.00    +0.000 A 
ATOM      3  C   UNL     1       6.464   4.282  15.389  0.00  0.00    +0.000 A 
ATOM      4  N   UNL     1       7.193   5.388  15.707  0.00  0.00    +0.000 NA
ATOM      5  C   UNL     1       6.741   5.828  16.874  0.00  0.00    +0.000 A 
ENDROOT
BRANCH   5   6
ATOM      6  C   UNL     1       7.330   6.988  17.560  0.00  0.00    +0.000 A 
ATOM      7  C   UNL     1       8.136   6.869  18.691  0.00  0.00    +0.000 A 
ATOM      8  C   UNL     1       8.833   7.964  19.206  0.00  0.00    +0.000 A 
ATOM      9  C   UNL     1       8.648   9.240  18.667  0.00  0.00    +0.000 A 
ATOM     10  C   UNL     1       7.743   9.400  17.609  0.00  0.00    +0.000 A 
ATOM     11  C   UNL     1       7.104   8.279  17.057  0.00  0.00    +0.000 A 
BRANCH   9  12
ATOM     12  N   UNL     1       9.364  10.343  19.207  0.00  0.00    +0.000 N 
ATOM     13  C   UNL     1      10.243  11.170  18.537  0.00  0.00    +0.000 A 
ATOM     14  C   UNL     1      10.703  12.074  19.465  0.00  0.00    +0.000 A 
ATOM     15  N   UNL     1      10.133  11.850  20.684  0.00  0.00    +0.000 NA
ATOM     16  C   UNL     1       9.334  10.818  20.501  0.00  0.00    +0.000 A 
ENDBRANCH   9  12
ENDBRANCH   5   6
BRANCH   1  18
ATOM     17  C   UNL     1       3.614   5.816  18.417  0.00  0.00    +0.000 C 
ATOM     18  C   UNL     1       4.959   5.085  18.586  0.00  0.00    +0.000 C 
BRANCH  18  19
ATOM     19  C   UNL     1       4.734   3.715  19.274  0.00  0.00    +0.000 C 
BRANCH  19  20
ATOM     20  C   UNL     1       3.281   3.303  19.376  0.00  0.00    +0.000 A 
ATOM     21  C   UNL     1       2.499   3.452  20.572  0.00  0.00    +0.000 A 
ATOM     22  C   UNL     1       1.206   3.006  20.425  0.00  0.00    +0.000 A 
ATOM     23  S   UNL     1       0.908   2.408  18.855  0.00  0.00    +0.000 S 
ATOM     24  C   UNL     1       2.510   2.764  18.362  0.00  0.00    +0.000 A 
ENDBRANCH  19  20
ENDBRANCH  18  19
ENDBRANCH   1  18
TORSDOF 5
ENDMDL
MODEL 7
REMARK VINA RESULT:      -6.0      2.171      3.653
REMARK  Name = 
REMARK  6 active torsions:
REMARK  status: ('A' for Active; 'I' for Inactive)
REMARK    1  A    between atoms: C_1  and  C_2
REMARK    2  A    between atoms: C_2  and  C_3
REMARK    3  A    between atoms: C_2  and  N_9
REMARK    4  A    between atoms: C_3  and  C_4
REMARK    5  A    between atoms: C_13  and  C_14
REMARK    6  A    between atoms: C_17  and  N_18
REMARK                            x       y       z     vdW  Elec       q    Type
REMARK                         _______ _______ _______ _____ _____    ______ ____
ROOT
ATOM      1  N   UNL     1       4.770   5.137  18.959  0.00  0.00    +0.000 N 
ATOM      2  C   UNL     1       4.867   3.767  18.980  0.00  0.00    +0.000 A 
ATOM      3  C   UNL     1       3.582   3.294  19.053  0.00  0.00    +0.000 A 
ATOM      4  N   UNL     1       2.698   4.331  19.069  0.00  0.00    +0.000 NA
ATOM      5  C   UNL     1       3.410   5.449  19.037  0.00  0.00    +0.000 A 
ENDROOT
BRANCH   5   6
ATOM      6  C   UNL     1       2.787   6.781  18.993  0.00  0.00    +0.000 A 
ATOM      7  C   UNL     1       2.770   7.570  17.844  0.00  0.00    +0.000 A 
ATOM      8  C   UNL     1       2.010   8.740  17.776  0.00  0.00    +0.000 A 
ATOM      9  C   UNL     1       1.335   9.212  18.904  0.00  0.00    +0.000 A 
ATOM     10  C   UNL     1       1.444   8.498  20.105  0.00  0.00    +0.000 A 
ATOM     11  C   UNL     1       2.154   7.287  20.138  0.00  0.00    +0.000 A 
BRANCH   9  12
ATOM     12  N   UNL     1       0.569  10.407  18.816  0.00  0.00    +0.000 N 
ATOM     13  C   UNL     1       1.025  11.700  18.976  0.00  0.00    +0.000 A 
ATOM     14  C   UNL     1      -0.071  12.516  18.823  0.00  0.00    +0.000 A 
ATOM     15  N   UNL     1      -1.189  11.781  18.557  0.00  0.00    +0.000 NA
ATOM     16  C   UNL     1      -0.779  10.529  18.552  0.00  0.00    +0.000 A 
ENDBRANCH   9  12
ENDBRANCH   5   6
BRANCH   1  18
ATOM     17  C   UNL     1       7.254   5.420  19.303  0.00  0.00    +0.000 C 
ATOM     18  C   UNL     1       5.913   6.064  18.903  0.00  0.00    +0.000 C 
BRANCH  18  19
ATOM     19  C   UNL     1       6.052   6.764  17.528  0.00  0.00    +0.000 C 
BRANCH  19  20
ATOM     20  C   UNL     1       6.097   5.815  16.350  0.00  0.00    +0.000 A 
ATOM     21  C   UNL     1       4.927   5.383  15.638  0.00  0.00    +0.000 A 
ATOM     22  C   UNL     1       5.216   4.521  14.606  0.00  0.00    +0.000 A 
ATOM     23  S   UNL     1       6.890   4.219  14.472  0.00  0.00    +0.000 S 
ATOM     24  C   UNL     1       7.233   5.262  15.788  0.00  0.00    +0.000 A 
ENDBRANCH  19  20
ENDBRANCH  18  19
ENDBRANCH   1  18
TORSDOF 5
ENDMDL
MODEL 8
REMARK VINA RESULT:      -6.0      2.247      3.906
REMARK  Name = 
REMARK  6 active torsions:
REMARK  status: ('A' for Active; 'I' for Inactive)
REMARK    1  A    between atoms: C_1  and  C_2
REMARK    2  A    between atoms: C_2  and  C_3
REMARK    3  A    between atoms: C_2  and  N_9
REMARK    4  A    between atoms: C_3  and  C_4
REMARK    5  A    between atoms: C_13  and  C_14
REMARK    6  A    between atoms: C_17  and  N_18
REMARK                            x       y       z     vdW  Elec       q    Type
REMARK                         _______ _______ _______ _____ _____    ______ ____
ROOT
ATOM      1  N   UNL     1       3.855   4.795  18.808  0.00  0.00    +0.000 N 
ATOM      2  C   UNL     1       3.700   3.438  18.660  0.00  0.00    +0.000 A 
ATOM      3  C   UNL     1       2.356   3.192  18.781  0.00  0.00    +0.000 A 
ATOM      4  N   UNL     1       1.681   4.356  18.992  0.00  0.00    +0.000 NA
ATOM      5  C   UNL     1       2.583   5.327  19.034  0.00  0.00    +0.000 A 
ENDROOT
BRANCH   5   6
ATOM      6  C   UNL     1       2.214   6.741  19.198  0.00  0.00    +0.000 A 
ATOM      7  C   UNL     1       2.230   7.654  18.145  0.00  0.00    +0.000 A 
ATOM      8  C   UNL     1       1.695   8.936  18.286  0.00  0.00    +0.000 A 
ATOM      9  C   UNL     1       1.231   9.378  19.527  0.00  0.00    +0.000 A 
ATOM     10  C   UNL     1       1.323   8.517  20.628  0.00  0.00    +0.000 A 
ATOM     11  C   UNL     1       1.799   7.207  20.456  0.00  0.00    +0.000 A 
BRANCH   9  12
ATOM     12  N   UNL     1       0.692  10.689  19.651  0.00  0.00    +0.000 N 
ATOM     13  C   UNL     1       0.933  11.593  20.665  0.00  0.00    +0.000 A 
ATOM     14  C   UNL     1       0.185  12.708  20.371  0.00  0.00    +0.000 A 
ATOM     15  N   UNL     1      -0.500  12.539  19.204  0.00  0.00    +0.000 NA
ATOM     16  C   UNL     1      -0.175  11.330  18.792  0.00  0.00    +0.000 A 
ENDBRANCH   9  12
ENDBRANCH   5   6
BRANCH   1  18
ATOM     17  C   UNL     1       6.366   4.589  18.962  0.00  0.00    +0.000 C 
ATOM     18  C   UNL     1       5.144   5.507  18.769  0.00  0.00    +0.000 C 
BRANCH  18  19
ATOM     19  C   UNL     1       5.321   6.359  17.488  0.00  0.00    +0.000 C 
BRANCH  19  20
ATOM     20  C   UNL     1       5.765   5.571  16.274  0.00  0.00    +0.000 A 
ATOM     21  C   UNL     1       7.114   5.572  15.781  0.00  0.00    +0.000 A 
ATOM     22  C   UNL     1       7.277   4.783  14.666  0.00  0.00    +0.000 A 
ATOM     23  S   UNL     1       5.820   4.028  14.196  0.00  0.00    +0.000 S 
ATOM     24  C   UNL     1       4.971   4.744  15.500  0.00  0.00    +0.000 A 
ENDBRANCH  19  20
ENDBRANCH  18  19
ENDBRANCH   1  18
TORSDOF 5
ENDMDL
MODEL 9
REMARK VINA RESULT:      -6.0      2.178      3.519
REMARK  Name = 
REMARK  6 active torsions:
REMARK  status: ('A' for Active; 'I' for Inactive)
REMARK    1  A    between atoms: C_1  and  C_2
REMARK    2  A    between atoms: C_2  and  C_3
REMARK    3  A    between atoms: C_2  and  N_9
REMARK    4  A    between atoms: C_3  and  C_4
REMARK    5  A    between atoms: C_13  and  C_14
REMARK    6  A    between atoms: C_17  and  N_18
REMARK                            x       y       z     vdW  Elec       q    Type
REMARK                         _______ _______ _______ _____ _____    ______ ____
ROOT
ATOM      1  N   UNL     1       4.800   5.040  18.910  0.00  0.00    +0.000 N 
ATOM      2  C   UNL     1       5.015   3.685  18.862  0.00  0.00    +0.000 A 
ATOM      3  C   UNL     1       3.774   3.100  18.887  0.00  0.00    +0.000 A 
ATOM      4  N   UNL     1       2.804   4.055  18.941  0.00  0.00    +0.000 NA
ATOM      5  C   UNL     1       3.417   5.230  18.980  0.00  0.00    +0.000 A 
ENDROOT
BRANCH   5   6
ATOM      6  C   UNL     1       2.682   6.504  18.993  0.00  0.00    +0.000 A 
ATOM      7  C   UNL     1       2.129   7.046  20.152  0.00  0.00    +0.000 A 
ATOM      8  C   UNL     1       1.605   8.341  20.171  0.00  0.00    +0.000 A 
ATOM      9  C   UNL     1       1.517   9.087  18.993  0.00  0.00    +0.000 A 
ATOM     10  C   UNL     1       1.952   8.509  17.793  0.00  0.00    +0.000 A 
ATOM     11  C   UNL     1       2.541   7.234  17.802  0.00  0.00    +0.000 A 
BRANCH   9  12
ATOM     12  N   UNL     1       0.978  10.402  19.033  0.00  0.00    +0.000 N 
ATOM     13  C   UNL     1      -0.318  10.760  19.345  0.00  0.00    +0.000 A 
ATOM     14  C   UNL     1      -0.377  12.128  19.234  0.00  0.00    +0.000 A 
ATOM     15  N   UNL     1       0.837  12.639  18.878  0.00  0.00    +0.000 NA
ATOM     16  C   UNL     1       1.628  11.590  18.772  0.00  0.00    +0.000 A 
ENDBRANCH   9  12
ENDBRANCH   5   6
BRANCH   1  18
ATOM     17  C   UNL     1       7.217   5.545  19.433  0.00  0.00    +0.000 C 
ATOM     18  C   UNL     1       5.859   6.064  18.923  0.00  0.00    +0.000 C 
BRANCH  18  19
ATOM     19  C   UNL     1       6.040   6.758  17.550  0.00  0.00    +0.000 C 
BRANCH  19  20
ATOM     20  C   UNL     1       6.066   5.807  16.372  0.00  0.00    +0.000 A 
ATOM     21  C   UNL     1       4.935   5.578  15.516  0.00  0.00    +0.000 A 
ATOM     22  C   UNL     1       5.197   4.672  14.515  0.00  0.00    +0.000 A 
ATOM     23  S   UNL     1       6.798   4.085  14.583  0.00  0.00    +0.000 S 
ATOM     24  C   UNL     1       7.150   5.062  15.946  0.00  0.00    +0.000 A 
ENDBRANCH  19  20
ENDBRANCH  18  19
ENDBRANCH   1  18
TORSDOF 5
ENDMDL
