MODEL 1
REMARK VINA RESULT:      -7.2      0.000      0.000
REMARK  Name = 
REMARK  3 active torsions:
REMARK  status: ('A' for Active; 'I' for Inactive)
REMARK    1  A    between atoms: C_2  and  C_3
REMARK    2  A    between atoms: C_3  and  N_4
REMARK    3  A    between atoms: N_10  and  C_11
REMARK                            x       y       z     vdW  Elec       q    Type
REMARK                         _______ _______ _______ _____ _____    ______ ____
ROOT
ATOM      1  O   UNL     1       4.074   4.423  16.782  0.00  0.00    +0.000 OA
ATOM      2  C   UNL     1       4.592   3.728  17.656  0.00  0.00    +0.000 C 
ATOM      3  N   UNL     1       5.761   4.031  18.339  0.00  0.00    +0.000 N 
ATOM      4  H   UNL     1       6.233   3.304  18.869  0.00  0.00    +0.000 HD
ENDROOT
BRANCH   3   5
ATOM      5  C   UNL     1       6.510   5.226  18.197  0.00  0.00    +0.000 A 
ATOM      6  C   UNL     1       7.622   5.531  18.988  0.00  0.00    +0.000 A 
ATOM      7  C   UNL     1       8.247   6.779  18.885  0.00  0.00    +0.000 A 
ATOM      8  C   UNL     1       7.771   7.719  17.977  0.00  0.00    +0.000 A 
ATOM      9 CL   UNL     1       8.478   9.285  17.917  0.00  0.00    +0.000 Cl
ATOM     10  C   UNL     1       6.716   7.399  17.128  0.00  0.00    +0.000 A 
ATOM     11  C   UNL     1       6.097   6.147  17.226  0.00  0.00    +0.000 A 
ENDBRANCH   3   5
BRANCH   2  12
ATOM     12  C   UNL     1       3.937   2.421  18.055  0.00  0.00    +0.000 C 
BRANCH  12  13
ATOM     13  N   UNL     1       2.943   2.511  19.158  0.00  0.00    +0.000 N 
ATOM     14  C   UNL     1       1.630   2.719  18.890  0.00  0.00    +0.000 A 
ATOM     15  C   UNL     1       0.722   2.944  19.921  0.00  0.00    +0.000 A 
ATOM     16  C   UNL     1       1.163   2.965  21.234  0.00  0.00    +0.000 A 
ATOM     17  C   UNL     1       2.504   2.736  21.499  0.00  0.00    +0.000 A 
ATOM     18  C   UNL     1       3.380   2.505  20.443  0.00  0.00    +0.000 A 
ENDBRANCH  12  13
ENDBRANCH   2  12
TORSDOF 3
ENDMDL
MODEL 2
REMARK VINA RESULT:      -7.1      0.232      1.168
REMARK  Name = 
REMARK  3 active torsions:
REMARK  status: ('A' for Active; 'I' for Inactive)
REMARK    1  A    between atoms: C_2  and  C_3
REMARK    2  A    between atoms: C_3  and  N_4
REMARK    3  A    between atoms: N_10  and  C_11
REMARK                            x       y       z     vdW  Elec       q    Type
REMARK                         _______ _______ _______ _____ _____    ______ ____
ROOT
ATOM      1  O   UNL     1       4.385   4.134  16.384  0.00  0.00    +0.000 OA
ATOM      2  C   UNL     1       4.594   3.684  17.511  0.00  0.00    +0.000 C 
ATOM      3  N   UNL     1       5.519   4.179  18.418  0.00  0.00    +0.000 N 
ATOM      4  H   UNL     1       5.785   3.614  19.220  0.00  0.00    +0.000 HD
ENDROOT
BRANCH   3   5
ATOM      5  C   UNL     1       6.323   5.332  18.227  0.00  0.00    +0.000 A 
ATOM      6  C   UNL     1       7.527   5.546  18.904  0.00  0.00    +0.000 A 
ATOM      7  C   UNL     1       8.214   6.757  18.766  0.00  0.00    +0.000 A 
ATOM      8  C   UNL     1       7.707   7.751  17.936  0.00  0.00    +0.000 A 
ATOM      9 CL   UNL     1       8.499   9.273  17.840  0.00  0.00    +0.000 Cl
ATOM     10  C   UNL     1       6.551   7.520  17.194  0.00  0.00    +0.000 A 
ATOM     11  C   UNL     1       5.869   6.305  17.327  0.00  0.00    +0.000 A 
ENDBRANCH   3   5
BRANCH   2  12
ATOM     12  C   UNL     1       3.799   2.487  17.994  0.00  0.00    +0.000 C 
BRANCH  12  13
ATOM     13  N   UNL     1       2.919   2.732  19.167  0.00  0.00    +0.000 N 
ATOM     14  C   UNL     1       3.379   2.543  20.428  0.00  0.00    +0.000 A 
ATOM     15  C   UNL     1       2.519   2.634  21.520  0.00  0.00    +0.000 A 
ATOM     16  C   UNL     1       1.176   2.913  21.316  0.00  0.00    +0.000 A 
ATOM     17  C   UNL     1       0.719   3.119  20.024  0.00  0.00    +0.000 A 
ATOM     18  C   UNL     1       1.611   3.029  18.960  0.00  0.00    +0.000 A 
ENDBRANCH  12  13
ENDBRANCH   2  12
TORSDOF 3
ENDMDL
MODEL 3
REMARK VINA RESULT:      -7.0      4.229      5.795
REMARK  Name = 
REMARK  3 active torsions:
REMARK  status: ('A' for Active; 'I' for Inactive)
REMARK    1  A    between atoms: C_2  and  C_3
REMARK    2  A    between atoms: C_3  and  N_4
REMARK    3  A    between atoms: N_10  and  C_11
REMARK                            x       y       z     vdW  Elec       q    Type
REMARK                         _______ _______ _______ _____ _____    ______ ____
ROOT
ATOM      1  O   UNL     1       1.698   4.940  17.765  0.00  0.00    +0.000 OA
ATOM      2  C   UNL     1       2.788   5.116  18.310  0.00  0.00    +0.000 C 
ATOM      3  N   UNL     1       3.213   6.298  18.899  0.00  0.00    +0.000 N 
ATOM      4  H   UNL     1       4.198   6.423  19.115  0.00  0.00    +0.000 HD
ENDROOT
BRANCH   3   5
ATOM      5  C   UNL     1       2.434   7.475  19.038  0.00  0.00    +0.000 A 
ATOM      6  C   UNL     1       1.801   7.839  20.230  0.00  0.00    +0.000 A 
ATOM      7  C   UNL     1       0.945   8.945  20.272  0.00  0.00    +0.000 A 
ATOM      8  C   UNL     1       0.736   9.703  19.124  0.00  0.00    +0.000 A 
ATOM      9 CL   UNL     1      -0.387  11.004  19.152  0.00  0.00    +0.000 Cl
ATOM     10  C   UNL     1       1.422   9.400  17.952  0.00  0.00    +0.000 A 
ATOM     11  C   UNL     1       2.284   8.297  17.913  0.00  0.00    +0.000 A 
ENDBRANCH   3   5
BRANCH   2  12
ATOM     12  C   UNL     1       3.785   3.976  18.368  0.00  0.00    +0.000 C 
BRANCH  12  13
ATOM     13  N   UNL     1       4.985   4.129  17.503  0.00  0.00    +0.000 N 
ATOM     14  C   UNL     1       6.199   4.392  18.046  0.00  0.00    +0.000 A 
ATOM     15  C   UNL     1       7.295   4.674  17.234  0.00  0.00    +0.000 A 
ATOM     16  C   UNL     1       7.142   4.695  15.856  0.00  0.00    +0.000 A 
ATOM     17  C   UNL     1       5.901   4.409  15.311  0.00  0.00    +0.000 A 
ATOM     18  C   UNL     1       4.833   4.123  16.155  0.00  0.00    +0.000 A 
ENDBRANCH  12  13
ENDBRANCH   2  12
TORSDOF 3
ENDMDL
MODEL 4
REMARK VINA RESULT:      -6.9      3.027      3.617
REMARK  Name = 
REMARK  3 active torsions:
REMARK  status: ('A' for Active; 'I' for Inactive)
REMARK    1  A    between atoms: C_2  and  C_3
REMARK    2  A    between atoms: C_3  and  N_4
REMARK    3  A    between atoms: N_10  and  C_11
REMARK                            x       y       z     vdW  Elec       q    Type
REMARK                         _______ _______ _______ _____ _____    ______ ____
ROOT
ATOM      1  O   UNL     1       6.298   4.111  18.680  0.00  0.00    +0.000 OA
ATOM      2  C   UNL     1       5.315   4.805  18.420  0.00  0.00    +0.000 C 
ATOM      3  N   UNL     1       4.962   5.263  17.159  0.00  0.00    +0.000 N 
ATOM      4  H   UNL     1       4.278   6.009  17.072  0.00  0.00    +0.000 HD
ENDROOT
BRANCH   3   5
ATOM      5  C   UNL     1       5.631   4.943  15.951  0.00  0.00    +0.000 A 
ATOM      6  C   UNL     1       6.871   5.484  15.596  0.00  0.00    +0.000 A 
ATOM      7  C   UNL     1       7.424   5.227  14.337  0.00  0.00    +0.000 A 
ATOM      8  C   UNL     1       6.747   4.412  13.436  0.00  0.00    +0.000 A 
ATOM      9 CL   UNL     1       7.381   4.173  11.856  0.00  0.00    +0.000 Cl
ATOM     10  C   UNL     1       5.552   3.802  13.806  0.00  0.00    +0.000 A 
ATOM     11  C   UNL     1       5.003   4.054  15.069  0.00  0.00    +0.000 A 
ENDBRANCH   3   5
BRANCH   2  12
ATOM     12  C   UNL     1       4.381   5.223  19.539  0.00  0.00    +0.000 C 
BRANCH  12  13
ATOM     13  N   UNL     1       3.170   4.379  19.714  0.00  0.00    +0.000 N 
ATOM     14  C   UNL     1       3.085   3.162  19.121  0.00  0.00    +0.000 A 
ATOM     15  C   UNL     1       1.900   2.431  19.167  0.00  0.00    +0.000 A 
ATOM     16  C   UNL     1       0.793   2.955  19.816  0.00  0.00    +0.000 A 
ATOM     17  C   UNL     1       0.896   4.193  20.431  0.00  0.00    +0.000 A 
ATOM     18  C   UNL     1       2.099   4.888  20.372  0.00  0.00    +0.000 A 
ENDBRANCH  12  13
ENDBRANCH   2  12
TORSDOF 3
ENDMDL
MODEL 5
REMARK VINA RESULT:      -6.8      4.285      5.651
REMARK  Name = 
REMARK  3 active torsions:
REMARK  status: ('A' for Active; 'I' for Inactive)
REMARK    1  A    between atoms: C_2  and  C_3
REMARK    2  A    between atoms: C_3  and  N_4
REMARK    3  A    between atoms: N_10  and  C_11
REMARK                            x       y       z     vdW  Elec       q    Type
REMARK                         _______ _______ _______ _____ _____    ______ ____
ROOT
ATOM      1  O   UNL     1       1.711   4.716  19.446  0.00  0.00    +0.000 OA
ATOM      2  C   UNL     1       2.846   5.058  19.116  0.00  0.00    +0.000 C 
ATOM      3  N   UNL     1       3.255   6.361  18.868  0.00  0.00    +0.000 N 
ATOM      4  H   UNL     1       4.133   6.525  18.383  0.00  0.00    +0.000 HD
ENDROOT
BRANCH   3   5
ATOM      5  C   UNL     1       2.453   7.519  19.028  0.00  0.00    +0.000 A 
ATOM      6  C   UNL     1       1.842   7.868  20.236  0.00  0.00    +0.000 A 
ATOM      7  C   UNL     1       0.963   8.954  20.301  0.00  0.00    +0.000 A 
ATOM      8  C   UNL     1       0.708   9.708  19.160  0.00  0.00    +0.000 A 
ATOM      9 CL   UNL     1      -0.443  10.983  19.217  0.00  0.00    +0.000 Cl
ATOM     10  C   UNL     1       1.371   9.421  17.970  0.00  0.00    +0.000 A 
ATOM     11  C   UNL     1       2.256   8.338  17.908  0.00  0.00    +0.000 A 
ENDBRANCH   3   5
BRANCH   2  12
ATOM     12  C   UNL     1       3.924   4.006  18.952  0.00  0.00    +0.000 C 
BRANCH  12  13
ATOM     13  N   UNL     1       4.919   4.268  17.879  0.00  0.00    +0.000 N 
ATOM     14  C   UNL     1       4.597   4.077  16.576  0.00  0.00    +0.000 A 
ATOM     15  C   UNL     1       5.565   4.185  15.581  0.00  0.00    +0.000 A 
ATOM     16  C   UNL     1       6.875   4.481  15.926  0.00  0.00    +0.000 A 
ATOM     17  C   UNL     1       7.191   4.690  17.259  0.00  0.00    +0.000 A 
ATOM     18  C   UNL     1       6.194   4.583  18.223  0.00  0.00    +0.000 A 
ENDBRANCH  12  13
ENDBRANCH   2  12
TORSDOF 3
ENDMDL
MODEL 6
REMARK VINA RESULT:      -6.8      4.007      6.814
REMARK  Name = 
REMARK  3 active torsions:
REMARK  status: ('A' for Active; 'I' for Inactive)
REMARK    1  A    between atoms: C_2  and  C_3
REMARK    2  A    between atoms: C_3  and  N_4
REMARK    3  A    between atoms: N_10  and  C_11
REMARK                            x       y       z     vdW  Elec       q    Type
REMARK                         _______ _______ _______ _____ _____    ______ ____
ROOT
ATOM      1  O   UNL     1       4.897   6.121  16.358  0.00  0.00    +0.000 OA
ATOM      2  C   UNL     1       5.727   5.233  16.554  0.00  0.00    +0.000 C 
ATOM      3  N   UNL     1       5.611   4.214  17.488  0.00  0.00    +0.000 N 
ATOM      4  H   UNL     1       6.432   3.671  17.740  0.00  0.00    +0.000 HD
ENDROOT
BRANCH   3   5
ATOM      5  C   UNL     1       4.484   3.982  18.317  0.00  0.00    +0.000 A 
ATOM      6  C   UNL     1       4.139   4.811  19.389  0.00  0.00    +0.000 A 
ATOM      7  C   UNL     1       3.089   4.463  20.246  0.00  0.00    +0.000 A 
ATOM      8  C   UNL     1       2.369   3.294  20.021  0.00  0.00    +0.000 A 
ATOM      9 CL   UNL     1       1.142   2.820  21.127  0.00  0.00    +0.000 Cl
ATOM     10  C   UNL     1       2.650   2.503  18.912  0.00  0.00    +0.000 A 
ATOM     11  C   UNL     1       3.696   2.855  18.051  0.00  0.00    +0.000 A 
ENDBRANCH   3   5
BRANCH   2  12
ATOM     12  C   UNL     1       7.001   5.209  15.733  0.00  0.00    +0.000 C 
BRANCH  12  13
ATOM     13  N   UNL     1       6.844   4.783  14.318  0.00  0.00    +0.000 N 
ATOM     14  C   UNL     1       5.932   3.838  13.977  0.00  0.00    +0.000 A 
ATOM     15  C   UNL     1       5.880   3.337  12.679  0.00  0.00    +0.000 A 
ATOM     16  C   UNL     1       6.774   3.800  11.726  0.00  0.00    +0.000 A 
ATOM     17  C   UNL     1       7.692   4.776  12.081  0.00  0.00    +0.000 A 
ATOM     18  C   UNL     1       7.707   5.259  13.385  0.00  0.00    +0.000 A 
ENDBRANCH  12  13
ENDBRANCH   2  12
TORSDOF 3
ENDMDL
MODEL 7
REMARK VINA RESULT:      -6.8      3.059      3.705
REMARK  Name = 
REMARK  3 active torsions:
REMARK  status: ('A' for Active; 'I' for Inactive)
REMARK    1  A    between atoms: C_2  and  C_3
REMARK    2  A    between atoms: C_3  and  N_4
REMARK    3  A    between atoms: N_10  and  C_11
REMARK                            x       y       z     vdW  Elec       q    Type
REMARK                         _______ _______ _______ _____ _____    ______ ____
ROOT
ATOM      1  O   UNL     1       4.265   6.160  17.508  0.00  0.00    +0.000 OA
ATOM      2  C   UNL     1       4.818   5.173  17.993  0.00  0.00    +0.000 C 
ATOM      3  N   UNL     1       5.587   4.255  17.292  0.00  0.00    +0.000 N 
ATOM      4  H   UNL     1       5.809   3.360  17.719  0.00  0.00    +0.000 HD
ENDROOT
BRANCH   3   5
ATOM      5  C   UNL     1       5.926   4.344  15.919  0.00  0.00    +0.000 A 
ATOM      6  C   UNL     1       5.140   3.798  14.899  0.00  0.00    +0.000 A 
ATOM      7  C   UNL     1       5.587   3.810  13.573  0.00  0.00    +0.000 A 
ATOM      8  C   UNL     1       6.814   4.386  13.261  0.00  0.00    +0.000 A 
ATOM      9 CL   UNL     1       7.405   4.317  11.649  0.00  0.00    +0.000 Cl
ATOM     10  C   UNL     1       7.568   5.005  14.253  0.00  0.00    +0.000 A 
ATOM     11  C   UNL     1       7.117   4.999  15.578  0.00  0.00    +0.000 A 
ENDBRANCH   3   5
BRANCH   2  12
ATOM     12  C   UNL     1       4.677   4.892  19.476  0.00  0.00    +0.000 C 
BRANCH  12  13
ATOM     13  N   UNL     1       3.412   4.226  19.885  0.00  0.00    +0.000 N 
ATOM     14  C   UNL     1       3.227   2.900  19.665  0.00  0.00    +0.000 A 
ATOM     15  C   UNL     1       1.994   2.304  19.917  0.00  0.00    +0.000 A 
ATOM     16  C   UNL     1       0.942   3.073  20.390  0.00  0.00    +0.000 A 
ATOM     17  C   UNL     1       1.146   4.423  20.626  0.00  0.00    +0.000 A 
ATOM     18  C   UNL     1       2.395   4.980  20.371  0.00  0.00    +0.000 A 
ENDBRANCH  12  13
ENDBRANCH   2  12
TORSDOF 3
ENDMDL
MODEL 8
REMARK VINA RESULT:      -6.8      4.459      6.288
REMARK  Name = 
REMARK  3 active torsions:
REMARK  status: ('A' for Active; 'I' for Inactive)
REMARK    1  A    between atoms: C_2  and  C_3
REMARK    2  A    between atoms: C_3  and  N_4
REMARK    3  A    between atoms: N_10  and  C_11
REMARK                            x       y       z     vdW  Elec       q    Type
REMARK                         _______ _______ _______ _____ _____    ______ ____
ROOT
ATOM      1  O   UNL     1       1.969   5.225  18.013  0.00  0.00    +0.000 OA
ATOM      2  C   UNL     1       3.009   5.876  17.902  0.00  0.00    +0.000 C 
ATOM      3  N   UNL     1       3.154   7.221  18.209  0.00  0.00    +0.000 N 
ATOM      4  H   UNL     1       3.971   7.724  17.873  0.00  0.00    +0.000 HD
ENDROOT
BRANCH   3   5
ATOM      5  C   UNL     1       2.150   8.050  18.770  0.00  0.00    +0.000 A 
ATOM      6  C   UNL     1       1.468   9.029  18.041  0.00  0.00    +0.000 A 
ATOM      7  C   UNL     1       0.577   9.898  18.679  0.00  0.00    +0.000 A 
ATOM      8  C   UNL     1       0.351   9.778  20.046  0.00  0.00    +0.000 A 
ATOM      9 CL   UNL     1      -0.671  10.905  20.846  0.00  0.00    +0.000 Cl
ATOM     10  C   UNL     1       0.961   8.757  20.768  0.00  0.00    +0.000 A 
ATOM     11  C   UNL     1       1.847   7.883  20.128  0.00  0.00    +0.000 A 
ENDBRANCH   3   5
BRANCH   2  12
ATOM     12  C   UNL     1       4.263   5.195  17.392  0.00  0.00    +0.000 C 
BRANCH  12  13
ATOM     13  N   UNL     1       5.547   5.773  17.870  0.00  0.00    +0.000 N 
ATOM     14  C   UNL     1       6.198   6.710  17.138  0.00  0.00    +0.000 A 
ATOM     15  C   UNL     1       7.466   7.148  17.511  0.00  0.00    +0.000 A 
ATOM     16  C   UNL     1       8.074   6.617  18.638  0.00  0.00    +0.000 A 
ATOM     17  C   UNL     1       7.393   5.671  19.388  0.00  0.00    +0.000 A 
ATOM     18  C   UNL     1       6.124   5.265  18.988  0.00  0.00    +0.000 A 
ENDBRANCH  12  13
ENDBRANCH   2  12
TORSDOF 3
ENDMDL
MODEL 9
REMARK VINA RESULT:      -6.8      3.993      6.907
REMARK  Name = 
REMARK  3 active torsions:
REMARK  status: ('A' for Active; 'I' for Inactive)
REMARK    1  A    between atoms: C_2  and  C_3
REMARK    2  A    between atoms: C_3  and  N_4
REMARK    3  A    between atoms: N_10  and  C_11
REMARK                            x       y       z     vdW  Elec       q    Type
REMARK                         _______ _______ _______ _____ _____    ______ ____
ROOT
ATOM      1  O   UNL     1       4.867   5.919  16.420  0.00  0.00    +0.000 OA
ATOM      2  C   UNL     1       5.710   5.034  16.568  0.00  0.00    +0.000 C 
ATOM      3  N   UNL     1       5.598   3.952  17.429  0.00  0.00    +0.000 N 
ATOM      4  H   UNL     1       6.426   3.407  17.656  0.00  0.00    +0.000 HD
ENDROOT
BRANCH   3   5
ATOM      5  C   UNL     1       4.464   3.644  18.222  0.00  0.00    +0.000 A 
ATOM      6  C   UNL     1       3.530   2.663  17.875  0.00  0.00    +0.000 A 
ATOM      7  C   UNL     1       2.367   2.490  18.633  0.00  0.00    +0.000 A 
ATOM      8  C   UNL     1       2.144   3.285  19.751  0.00  0.00    +0.000 A 
ATOM      9 CL   UNL     1       0.672   3.137  20.627  0.00  0.00    +0.000 Cl
ATOM     10  C   UNL     1       3.103   4.210  20.154  0.00  0.00    +0.000 A 
ATOM     11  C   UNL     1       4.270   4.378  19.399  0.00  0.00    +0.000 A 
ENDBRANCH   3   5
BRANCH   2  12
ATOM     12  C   UNL     1       6.996   5.088  15.768  0.00  0.00    +0.000 C 
BRANCH  12  13
ATOM     13  N   UNL     1       6.870   4.745  14.327  0.00  0.00    +0.000 N 
ATOM     14  C   UNL     1       6.005   3.784  13.918  0.00  0.00    +0.000 A 
ATOM     15  C   UNL     1       5.986   3.363  12.591  0.00  0.00    +0.000 A 
ATOM     16  C   UNL     1       6.866   3.924  11.679  0.00  0.00    +0.000 A 
ATOM     17  C   UNL     1       7.736   4.915  12.104  0.00  0.00    +0.000 A 
ATOM     18  C   UNL     1       7.718   5.316  13.436  0.00  0.00    +0.000 A 
ENDBRANCH  12  13
ENDBRANCH   2  12
TORSDOF 3
ENDMDL
