MODEL 1
REMARK VINA RESULT:      -7.4      0.000      0.000
REMARK  Name = 
REMARK  3 active torsions:
REMARK  status: ('A' for Active; 'I' for Inactive)
REMARK    1  A    between atoms: C_1  and  C_2
REMARK    2  A    between atoms: C_6  and  C_7
REMARK    3  A    between atoms: C_17  and  C_18
REMARK                            x       y       z     vdW  Elec       q    Type
REMARK                         _______ _______ _______ _____ _____    ______ ____
ROOT
ATOM      1  C   UNL     1       1.660   9.441  19.959  0.00  0.00    +0.000 C 
ATOM      2  C   UNL     1       1.000   9.392  21.350  0.00  0.00    +0.000 C 
ATOM      3  C   UNL     1      -0.366  10.032  21.395  0.00  0.00    +0.000 C 
ATOM      4  O   UNL     1      -0.855  10.486  22.421  0.00  0.00    +0.000 OA
ATOM      5  N   UNL     1      -1.078  10.026  20.197  0.00  0.00    +0.000 N 
ATOM      6  C   UNL     1      -0.457  10.080  18.954  0.00  0.00    +0.000 C 
ATOM      7  C   UNL     1       0.860  10.284  19.001  0.00  0.00    +0.000 C 
ATOM      8  C   UNL     1       0.949  11.809  19.005  0.00  0.00    +0.000 C 
ATOM      9  O   UNL     1       1.981  12.343  19.423  0.00  0.00    +0.000 OA
ATOM     10  C   UNL     1      -0.306  12.706  18.561  0.00  0.00    +0.000 C 
ATOM     11  C   UNL     1      -1.626  11.988  18.039  0.00  0.00    +0.000 C 
ATOM     12  C   UNL     1      -1.121  10.598  17.711  0.00  0.00    +0.000 C 
ATOM     13  H   UNL     1      -2.009  10.407  20.318  0.00  0.00    +0.000 HD
ENDROOT
BRANCH   1  19
ATOM     14  C   UNL     1       2.090   4.505  21.201  0.00  0.00    +0.000 C 
ATOM     15  C   UNL     1       2.144   5.588  20.156  0.00  0.00    +0.000 A 
ATOM     16  C   UNL     1       2.743   5.352  18.920  0.00  0.00    +0.000 A 
ATOM     17  C   UNL     1       2.841   6.383  17.985  0.00  0.00    +0.000 A 
ATOM     18  C   UNL     1       2.378   7.668  18.282  0.00  0.00    +0.000 A 
ATOM     19  C   UNL     1       1.808   7.951  19.534  0.00  0.00    +0.000 A 
ATOM     20  C   UNL     1       1.667   6.874  20.446  0.00  0.00    +0.000 A 
ENDBRANCH   1  19
BRANCH  11  21
ATOM     21  C   UNL     1      -3.008  11.912  18.759  0.00  0.00    +0.000 A 
ATOM     22  C   UNL     1      -4.097  11.265  18.093  0.00  0.00    +0.000 A 
ATOM     23  C   UNL     1      -5.409  11.252  18.561  0.00  0.00    +0.000 A 
ATOM     24  C   UNL     1      -5.711  11.929  19.733  0.00  0.00    +0.000 A 
ATOM     25  C   UNL     1      -4.679  12.543  20.429  0.00  0.00    +0.000 A 
ATOM     26  C   UNL     1      -3.348  12.540  19.965  0.00  0.00    +0.000 A 
ATOM     27 CL   UNL     1      -2.204  13.350  20.963  0.00  0.00    +0.000 Cl
ENDBRANCH  11  21
TORSDOF 2
ENDMDL
MODEL 2
REMARK VINA RESULT:      -7.3      1.168      1.341
REMARK  Name = 
REMARK  3 active torsions:
REMARK  status: ('A' for Active; 'I' for Inactive)
REMARK    1  A    between atoms: C_1  and  C_2
REMARK    2  A    between atoms: C_6  and  C_7
REMARK    3  A    between atoms: C_17  and  C_18
REMARK                            x       y       z     vdW  Elec       q    Type
REMARK                         _______ _______ _______ _____ _____    ______ ____
ROOT
ATOM      1  C   UNL     1       1.617   9.648  20.868  0.00  0.00    +0.000 C 
ATOM      2  C   UNL     1       0.952   9.320  22.219  0.00  0.00    +0.000 C 
ATOM      3  C   UNL     1      -0.370  10.019  22.429  0.00  0.00    +0.000 C 
ATOM      4  O   UNL     1      -0.830  10.253  23.537  0.00  0.00    +0.000 OA
ATOM      5  N   UNL     1      -1.077  10.337  21.271  0.00  0.00    +0.000 N 
ATOM      6  C   UNL     1      -0.451  10.638  20.066  0.00  0.00    +0.000 C 
ATOM      7  C   UNL     1       0.876  10.740  20.142  0.00  0.00    +0.000 C 
ATOM      8  C   UNL     1       1.065  12.214  20.498  0.00  0.00    +0.000 C 
ATOM      9  O   UNL     1       2.129  12.569  21.015  0.00  0.00    +0.000 OA
ATOM     10  C   UNL     1      -0.127  13.268  20.290  0.00  0.00    +0.000 C 
ATOM     11  C   UNL     1      -1.491  12.777  19.633  0.00  0.00    +0.000 C 
ATOM     12  C   UNL     1      -1.077  11.471  18.986  0.00  0.00    +0.000 C 
ATOM     13  H   UNL     1      -1.982  10.739  21.488  0.00  0.00    +0.000 HD
ENDROOT
BRANCH   1  19
ATOM     14  C   UNL     1       2.034   4.557  20.921  0.00  0.00    +0.000 C 
ATOM     15  C   UNL     1       2.000   5.847  20.144  0.00  0.00    +0.000 A 
ATOM     16  C   UNL     1       2.444   5.892  18.824  0.00  0.00    +0.000 A 
ATOM     17  C   UNL     1       2.465   7.106  18.137  0.00  0.00    +0.000 A 
ATOM     18  C   UNL     1       2.080   8.294  18.765  0.00  0.00    +0.000 A 
ATOM     19  C   UNL     1       1.668   8.291  20.109  0.00  0.00    +0.000 A 
ATOM     20  C   UNL     1       1.600   7.038  20.768  0.00  0.00    +0.000 A 
ENDBRANCH   1  19
BRANCH  11  21
ATOM     21  C   UNL     1      -2.876  12.625  20.333  0.00  0.00    +0.000 A 
ATOM     22  C   UNL     1      -4.014  12.272  19.540  0.00  0.00    +0.000 A 
ATOM     23  C   UNL     1      -5.324  12.241  20.013  0.00  0.00    +0.000 A 
ATOM     24  C   UNL     1      -5.571  12.603  21.328  0.00  0.00    +0.000 A 
ATOM     25  C   UNL     1      -4.493  12.921  22.143  0.00  0.00    +0.000 A 
ATOM     26  C   UNL     1      -3.166  12.933  21.669  0.00  0.00    +0.000 A 
ATOM     27 CL   UNL     1      -1.961  13.350  22.825  0.00  0.00    +0.000 Cl
ENDBRANCH  11  21
TORSDOF 2
ENDMDL
MODEL 3
REMARK VINA RESULT:      -6.9      1.324      1.747
REMARK  Name = 
REMARK  3 active torsions:
REMARK  status: ('A' for Active; 'I' for Inactive)
REMARK    1  A    between atoms: C_1  and  C_2
REMARK    2  A    between atoms: C_6  and  C_7
REMARK    3  A    between atoms: C_17  and  C_18
REMARK                            x       y       z     vdW  Elec       q    Type
REMARK                         _______ _______ _______ _____ _____    ______ ____
ROOT
ATOM      1  C   UNL     1       1.536   9.692  20.928  0.00  0.00    +0.000 C 
ATOM      2  C   UNL     1       0.737   9.392  22.211  0.00  0.00    +0.000 C 
ATOM      3  C   UNL     1      -0.572  10.139  22.298  0.00  0.00    +0.000 C 
ATOM      4  O   UNL     1      -1.124  10.394  23.359  0.00  0.00    +0.000 OA
ATOM      5  N   UNL     1      -1.157  10.479  21.079  0.00  0.00    +0.000 N 
ATOM      6  C   UNL     1      -0.411  10.753  19.938  0.00  0.00    +0.000 C 
ATOM      7  C   UNL     1       0.907  10.808  20.137  0.00  0.00    +0.000 C 
ATOM      8  C   UNL     1       1.115  12.274  20.509  0.00  0.00    +0.000 C 
ATOM      9  O   UNL     1       2.139  12.592  21.123  0.00  0.00    +0.000 OA
ATOM     10  C   UNL     1      -0.013  13.371  20.192  0.00  0.00    +0.000 C 
ATOM     11  C   UNL     1      -1.327  12.928  19.411  0.00  0.00    +0.000 C 
ATOM     12  C   UNL     1      -0.903  11.606  18.805  0.00  0.00    +0.000 C 
ATOM     13  H   UNL     1      -2.062  10.914  21.212  0.00  0.00    +0.000 HD
ENDROOT
BRANCH   1  19
ATOM     14  C   UNL     1       2.053   4.610  21.008  0.00  0.00    +0.000 C 
ATOM     15  C   UNL     1       1.987   5.894  20.224  0.00  0.00    +0.000 A 
ATOM     16  C   UNL     1       2.420   5.940  18.899  0.00  0.00    +0.000 A 
ATOM     17  C   UNL     1       2.412   7.150  18.205  0.00  0.00    +0.000 A 
ATOM     18  C   UNL     1       2.009   8.333  18.830  0.00  0.00    +0.000 A 
ATOM     19  C   UNL     1       1.607   8.331  20.176  0.00  0.00    +0.000 A 
ATOM     20  C   UNL     1       1.570   7.081  20.844  0.00  0.00    +0.000 A 
ENDBRANCH   1  19
BRANCH  11  21
ATOM     21  C   UNL     1      -2.776  12.829  19.980  0.00  0.00    +0.000 A 
ATOM     22  C   UNL     1      -3.011  13.216  21.338  0.00  0.00    +0.000 A 
ATOM     23  C   UNL     1      -4.220  13.045  22.007  0.00  0.00    +0.000 A 
ATOM     24  C   UNL     1      -5.273  12.433  21.344  0.00  0.00    +0.000 A 
ATOM     25  C   UNL     1      -5.100  12.071  20.015  0.00  0.00    +0.000 A 
ATOM     26  C   UNL     1      -3.882  12.262  19.333  0.00  0.00    +0.000 A 
ATOM     27 CL   UNL     1      -3.855  11.753  17.689  0.00  0.00    +0.000 Cl
ENDBRANCH  11  21
TORSDOF 2
ENDMDL
MODEL 4
REMARK VINA RESULT:      -6.8      1.082      1.427
REMARK  Name = 
REMARK  3 active torsions:
REMARK  status: ('A' for Active; 'I' for Inactive)
REMARK    1  A    between atoms: C_1  and  C_2
REMARK    2  A    between atoms: C_6  and  C_7
REMARK    3  A    between atoms: C_17  and  C_18
REMARK                            x       y       z     vdW  Elec       q    Type
REMARK                         _______ _______ _______ _____ _____    ______ ____
ROOT
ATOM      1  C   UNL     1       1.622   9.565  20.032  0.00  0.00    +0.000 C 
ATOM      2  C   UNL     1       0.959   9.533  21.422  0.00  0.00    +0.000 C 
ATOM      3  C   UNL     1      -0.380  10.228  21.470  0.00  0.00    +0.000 C 
ATOM      4  O   UNL     1      -0.851  10.694  22.498  0.00  0.00    +0.000 OA
ATOM      5  N   UNL     1      -1.089  10.260  20.271  0.00  0.00    +0.000 N 
ATOM      6  C   UNL     1      -0.465  10.297  19.029  0.00  0.00    +0.000 C 
ATOM      7  C   UNL     1       0.859  10.447  19.079  0.00  0.00    +0.000 C 
ATOM      8  C   UNL     1       1.011  11.966  19.094  0.00  0.00    +0.000 C 
ATOM      9  O   UNL     1       2.063  12.455  19.517  0.00  0.00    +0.000 OA
ATOM     10  C   UNL     1      -0.206  12.917  18.655  0.00  0.00    +0.000 C 
ATOM     11  C   UNL     1      -1.554  12.258  18.126  0.00  0.00    +0.000 C 
ATOM     12  C   UNL     1      -1.106  10.851  17.789  0.00  0.00    +0.000 C 
ATOM     13  H   UNL     1      -2.004  10.678  20.393  0.00  0.00    +0.000 HD
ENDROOT
BRANCH   1  19
ATOM     14  C   UNL     1       2.082   4.621  21.235  0.00  0.00    +0.000 C 
ATOM     15  C   UNL     1       2.061   5.704  20.188  0.00  0.00    +0.000 A 
ATOM     16  C   UNL     1       2.548   5.460  18.905  0.00  0.00    +0.000 A 
ATOM     17  C   UNL     1       2.581   6.490  17.965  0.00  0.00    +0.000 A 
ATOM     18  C   UNL     1       2.165   7.782  18.300  0.00  0.00    +0.000 A 
ATOM     19  C   UNL     1       1.710   8.073  19.597  0.00  0.00    +0.000 A 
ATOM     20  C   UNL     1       1.632   6.998  20.518  0.00  0.00    +0.000 A 
ENDBRANCH   1  19
BRANCH  11  21
ATOM     21  C   UNL     1      -2.938  12.233  18.844  0.00  0.00    +0.000 A 
ATOM     22  C   UNL     1      -3.032  12.744  20.178  0.00  0.00    +0.000 A 
ATOM     23  C   UNL     1      -4.169  12.653  20.978  0.00  0.00    +0.000 A 
ATOM     24  C   UNL     1      -5.288  12.001  20.482  0.00  0.00    +0.000 A 
ATOM     25  C   UNL     1      -5.252  11.519  19.181  0.00  0.00    +0.000 A 
ATOM     26  C   UNL     1      -4.108  11.628  18.365  0.00  0.00    +0.000 A 
ATOM     27 CL   UNL     1      -4.252  10.975  16.780  0.00  0.00    +0.000 Cl
ENDBRANCH  11  21
TORSDOF 2
ENDMDL
MODEL 5
REMARK VINA RESULT:      -6.7      6.017      8.493
REMARK  Name = 
REMARK  3 active torsions:
REMARK  status: ('A' for Active; 'I' for Inactive)
REMARK    1  A    between atoms: C_1  and  C_2
REMARK    2  A    between atoms: C_6  and  C_7
REMARK    3  A    between atoms: C_17  and  C_18
REMARK                            x       y       z     vdW  Elec       q    Type
REMARK                         _______ _______ _______ _____ _____    ______ ____
ROOT
ATOM      1  C   UNL     1       5.724   6.121  16.566  0.00  0.00    +0.000 C 
ATOM      2  C   UNL     1       6.567   5.652  17.767  0.00  0.00    +0.000 C 
ATOM      3  C   UNL     1       5.746   5.081  18.897  0.00  0.00    +0.000 C 
ATOM      4  O   UNL     1       6.131   5.065  20.058  0.00  0.00    +0.000 OA
ATOM      5  N   UNL     1       4.527   4.511  18.532  0.00  0.00    +0.000 N 
ATOM      6  C   UNL     1       3.782   4.960  17.448  0.00  0.00    +0.000 C 
ATOM      7  C   UNL     1       4.251   6.069  16.875  0.00  0.00    +0.000 C 
ATOM      8  C   UNL     1       3.560   7.166  17.682  0.00  0.00    +0.000 C 
ATOM      9  O   UNL     1       4.046   8.301  17.680  0.00  0.00    +0.000 OA
ATOM     10  C   UNL     1       2.278   6.833  18.589  0.00  0.00    +0.000 C 
ATOM     11  C   UNL     1       1.683   5.357  18.580  0.00  0.00    +0.000 C 
ATOM     12  C   UNL     1       2.297   4.777  17.323  0.00  0.00    +0.000 C 
ATOM     13  H   UNL     1       4.064   4.087  19.328  0.00  0.00    +0.000 HD
ENDROOT
BRANCH   1  19
ATOM     14  C   UNL     1       8.280   5.464  12.192  0.00  0.00    +0.000 C 
ATOM     15  C   UNL     1       7.300   4.946  13.211  0.00  0.00    +0.000 A 
ATOM     16  C   UNL     1       6.460   3.875  12.907  0.00  0.00    +0.000 A 
ATOM     17  C   UNL     1       5.514   3.446  13.838  0.00  0.00    +0.000 A 
ATOM     18  C   UNL     1       5.367   4.098  15.065  0.00  0.00    +0.000 A 
ATOM     19  C   UNL     1       6.167   5.208  15.386  0.00  0.00    +0.000 A 
ATOM     20  C   UNL     1       7.160   5.589  14.448  0.00  0.00    +0.000 A 
ENDBRANCH   1  19
BRANCH  11  21
ATOM     21  C   UNL     1       1.725   4.315  19.740  0.00  0.00    +0.000 A 
ATOM     22  C   UNL     1       2.308   4.698  20.990  0.00  0.00    +0.000 A 
ATOM     23  C   UNL     1       2.534   3.826  22.052  0.00  0.00    +0.000 A 
ATOM     24  C   UNL     1       2.209   2.486  21.903  0.00  0.00    +0.000 A 
ATOM     25  C   UNL     1       1.611   2.077  20.719  0.00  0.00    +0.000 A 
ATOM     26  C   UNL     1       1.365   2.963  19.651  0.00  0.00    +0.000 A 
ATOM     27 CL   UNL     1       0.614   2.276  18.263  0.00  0.00    +0.000 Cl
ENDBRANCH  11  21
TORSDOF 2
ENDMDL
MODEL 6
REMARK VINA RESULT:      -6.6      2.109      6.906
REMARK  Name = 
REMARK  3 active torsions:
REMARK  status: ('A' for Active; 'I' for Inactive)
REMARK    1  A    between atoms: C_1  and  C_2
REMARK    2  A    between atoms: C_6  and  C_7
REMARK    3  A    between atoms: C_17  and  C_18
REMARK                            x       y       z     vdW  Elec       q    Type
REMARK                         _______ _______ _______ _____ _____    ______ ____
ROOT
ATOM      1  C   UNL     1      -3.166  12.208  18.187  0.00  0.00    +0.000 C 
ATOM      2  C   UNL     1      -3.059  11.113  17.108  0.00  0.00    +0.000 C 
ATOM      3  C   UNL     1      -1.952  10.119  17.362  0.00  0.00    +0.000 C 
ATOM      4  O   UNL     1      -1.419   9.473  16.470  0.00  0.00    +0.000 OA
ATOM      5  N   UNL     1      -1.601   9.932  18.698  0.00  0.00    +0.000 N 
ATOM      6  C   UNL     1      -1.699  10.941  19.650  0.00  0.00    +0.000 C 
ATOM      7  C   UNL     1      -2.016  12.139  19.156  0.00  0.00    +0.000 C 
ATOM      8  C   UNL     1      -0.645  12.722  18.820  0.00  0.00    +0.000 C 
ATOM      9  O   UNL     1      -0.576  13.646  18.004  0.00  0.00    +0.000 OA
ATOM     10  C   UNL     1       0.692  12.088  19.443  0.00  0.00    +0.000 C 
ATOM     11  C   UNL     1       0.571  10.889  20.482  0.00  0.00    +0.000 C 
ATOM     12  C   UNL     1      -0.880  10.985  20.907  0.00  0.00    +0.000 C 
ATOM     13  H   UNL     1      -0.903   9.204  18.799  0.00  0.00    +0.000 HD
ENDROOT
BRANCH   1  19
ATOM     14  C   UNL     1      -6.320  12.692  22.176  0.00  0.00    +0.000 C 
ATOM     15  C   UNL     1      -6.034  12.122  20.812  0.00  0.00    +0.000 A 
ATOM     16  C   UNL     1      -6.797  11.069  20.308  0.00  0.00    +0.000 A 
ATOM     17  C   UNL     1      -6.480  10.510  19.070  0.00  0.00    +0.000 A 
ATOM     18  C   UNL     1      -5.381  10.966  18.336  0.00  0.00    +0.000 A 
ATOM     19  C   UNL     1      -4.566  11.996  18.833  0.00  0.00    +0.000 A 
ATOM     20  C   UNL     1      -4.941  12.587  20.066  0.00  0.00    +0.000 A 
ENDBRANCH   1  19
BRANCH  11  21
ATOM     21  C   UNL     1       0.976   9.399  20.257  0.00  0.00    +0.000 A 
ATOM     22  C   UNL     1       0.746   8.456  21.310  0.00  0.00    +0.000 A 
ATOM     23  C   UNL     1       1.187   7.135  21.291  0.00  0.00    +0.000 A 
ATOM     24  C   UNL     1       1.925   6.688  20.206  0.00  0.00    +0.000 A 
ATOM     25  C   UNL     1       2.143   7.559  19.148  0.00  0.00    +0.000 A 
ATOM     26  C   UNL     1       1.681   8.890  19.158  0.00  0.00    +0.000 A 
ATOM     27 CL   UNL     1       2.043   9.821  17.756  0.00  0.00    +0.000 Cl
ENDBRANCH  11  21
TORSDOF 2
ENDMDL
MODEL 7
REMARK VINA RESULT:      -6.5      3.553      7.361
REMARK  Name = 
REMARK  3 active torsions:
REMARK  status: ('A' for Active; 'I' for Inactive)
REMARK    1  A    between atoms: C_1  and  C_2
REMARK    2  A    between atoms: C_6  and  C_7
REMARK    3  A    between atoms: C_17  and  C_18
REMARK                            x       y       z     vdW  Elec       q    Type
REMARK                         _______ _______ _______ _____ _____    ______ ____
ROOT
ATOM      1  C   UNL     1       1.114  15.652  20.297  0.00  0.00    +0.000 C 
ATOM      2  C   UNL     1       2.419  15.121  20.922  0.00  0.00    +0.000 C 
ATOM      3  C   UNL     1       2.555  13.620  20.858  0.00  0.00    +0.000 C 
ATOM      4  O   UNL     1       3.243  12.980  21.641  0.00  0.00    +0.000 OA
ATOM      5  N   UNL     1       1.887  12.996  19.806  0.00  0.00    +0.000 N 
ATOM      6  C   UNL     1       0.706  13.491  19.266  0.00  0.00    +0.000 C 
ATOM      7  C   UNL     1       0.185  14.525  19.928  0.00  0.00    +0.000 C 
ATOM      8  C   UNL     1      -0.693  13.833  20.968  0.00  0.00    +0.000 C 
ATOM      9  O   UNL     1      -1.020  14.459  21.981  0.00  0.00    +0.000 OA
ATOM     10  C   UNL     1      -1.109  12.292  20.797  0.00  0.00    +0.000 C 
ATOM     11  C   UNL     1      -0.661  11.509  19.486  0.00  0.00    +0.000 C 
ATOM     12  C   UNL     1      -0.303  12.643  18.547  0.00  0.00    +0.000 C 
ATOM     13  H   UNL     1       2.079  12.001  19.784  0.00  0.00    +0.000 HD
ENDROOT
BRANCH   1  19
ATOM     14  C   UNL     1      -0.011  18.628  16.301  0.00  0.00    +0.000 C 
ATOM     15  C   UNL     1       1.009  17.855  17.095  0.00  0.00    +0.000 A 
ATOM     16  C   UNL     1       2.253  17.549  16.545  0.00  0.00    +0.000 A 
ATOM     17  C   UNL     1       3.164  16.778  17.268  0.00  0.00    +0.000 A 
ATOM     18  C   UNL     1       2.835  16.273  18.530  0.00  0.00    +0.000 A 
ATOM     19  C   UNL     1       1.574  16.527  19.095  0.00  0.00    +0.000 A 
ATOM     20  C   UNL     1       0.687  17.359  18.367  0.00  0.00    +0.000 A 
ENDBRANCH   1  19
BRANCH  11  21
ATOM     21  C   UNL     1       0.391  10.362  19.384  0.00  0.00    +0.000 A 
ATOM     22  C   UNL     1       0.908  10.014  18.095  0.00  0.00    +0.000 A 
ATOM     23  C   UNL     1       1.741   8.925  17.850  0.00  0.00    +0.000 A 
ATOM     24  C   UNL     1       2.082   8.089  18.902  0.00  0.00    +0.000 A 
ATOM     25  C   UNL     1       1.629   8.408  20.175  0.00  0.00    +0.000 A 
ATOM     26  C   UNL     1       0.802   9.521  20.427  0.00  0.00    +0.000 A 
ATOM     27 CL   UNL     1       0.343   9.759  22.068  0.00  0.00    +0.000 Cl
ENDBRANCH  11  21
TORSDOF 2
ENDMDL
MODEL 8
REMARK VINA RESULT:      -6.4      3.441      7.531
REMARK  Name = 
REMARK  3 active torsions:
REMARK  status: ('A' for Active; 'I' for Inactive)
REMARK    1  A    between atoms: C_1  and  C_2
REMARK    2  A    between atoms: C_6  and  C_7
REMARK    3  A    between atoms: C_17  and  C_18
REMARK                            x       y       z     vdW  Elec       q    Type
REMARK                         _______ _______ _______ _____ _____    ______ ____
ROOT
ATOM      1  C   UNL     1      -0.417  15.656  20.289  0.00  0.00    +0.000 C 
ATOM      2  C   UNL     1       1.050  15.442  20.709  0.00  0.00    +0.000 C 
ATOM      3  C   UNL     1       1.486  13.997  20.671  0.00  0.00    +0.000 C 
ATOM      4  O   UNL     1       2.405  13.561  21.350  0.00  0.00    +0.000 OA
ATOM      5  N   UNL     1       0.811  13.185  19.761  0.00  0.00    +0.000 N 
ATOM      6  C   UNL     1      -0.517  13.396  19.406  0.00  0.00    +0.000 C 
ATOM      7  C   UNL     1      -1.135  14.345  20.112  0.00  0.00    +0.000 C 
ATOM      8  C   UNL     1      -1.678  13.558  21.303  0.00  0.00    +0.000 C 
ATOM      9  O   UNL     1      -1.970  14.169  22.336  0.00  0.00    +0.000 OA
ATOM     10  C   UNL     1      -1.784  11.957  21.250  0.00  0.00    +0.000 C 
ATOM     11  C   UNL     1      -1.388  11.197  19.909  0.00  0.00    +0.000 C 
ATOM     12  C   UNL     1      -1.424  12.317  18.889  0.00  0.00    +0.000 C 
ATOM     13  H   UNL     1       1.201  12.250  19.740  0.00  0.00    +0.000 HD
ENDROOT
BRANCH   1  19
ATOM     14  C   UNL     1       2.324  17.783  16.539  0.00  0.00    +0.000 C 
ATOM     15  C   UNL     1       1.016  17.650  17.274  0.00  0.00    +0.000 A 
ATOM     16  C   UNL     1       0.008  18.599  17.105  0.00  0.00    +0.000 A 
ATOM     17  C   UNL     1      -1.174  18.498  17.840  0.00  0.00    +0.000 A 
ATOM     18  C   UNL     1      -1.352  17.474  18.776  0.00  0.00    +0.000 A 
ATOM     19  C   UNL     1      -0.340  16.527  19.002  0.00  0.00    +0.000 A 
ATOM     20  C   UNL     1       0.828  16.617  18.203  0.00  0.00    +0.000 A 
ENDBRANCH   1  19
BRANCH  11  21
ATOM     21  C   UNL     1      -0.147  10.283  19.672  0.00  0.00    +0.000 A 
ATOM     22  C   UNL     1       0.339  10.113  18.336  0.00  0.00    +0.000 A 
ATOM     23  C   UNL     1       1.344   9.220  17.972  0.00  0.00    +0.000 A 
ATOM     24  C   UNL     1       1.906   8.408  18.946  0.00  0.00    +0.000 A 
ATOM     25  C   UNL     1       1.488   8.562  20.260  0.00  0.00    +0.000 A 
ATOM     26  C   UNL     1       0.484   9.480  20.632  0.00  0.00    +0.000 A 
ATOM     27 CL   UNL     1       0.099   9.533  22.308  0.00  0.00    +0.000 Cl
ENDBRANCH  11  21
TORSDOF 2
ENDMDL
MODEL 9
REMARK VINA RESULT:      -6.4      4.117      6.659
REMARK  Name = 
REMARK  3 active torsions:
REMARK  status: ('A' for Active; 'I' for Inactive)
REMARK    1  A    between atoms: C_1  and  C_2
REMARK    2  A    between atoms: C_6  and  C_7
REMARK    3  A    between atoms: C_17  and  C_18
REMARK                            x       y       z     vdW  Elec       q    Type
REMARK                         _______ _______ _______ _____ _____    ______ ____
ROOT
ATOM      1  C   UNL     1       2.462  15.408  19.467  0.00  0.00    +0.000 C 
ATOM      2  C   UNL     1       2.260  15.605  20.981  0.00  0.00    +0.000 C 
ATOM      3  C   UNL     1       1.507  14.477  21.644  0.00  0.00    +0.000 C 
ATOM      4  O   UNL     1       0.874  14.618  22.681  0.00  0.00    +0.000 OA
ATOM      5  N   UNL     1       1.621  13.230  21.031  0.00  0.00    +0.000 N 
ATOM      6  C   UNL     1       1.795  13.080  19.659  0.00  0.00    +0.000 C 
ATOM      7  C   UNL     1       1.698  14.213  18.961  0.00  0.00    +0.000 C 
ATOM      8  C   UNL     1       0.201  14.282  18.667  0.00  0.00    +0.000 C 
ATOM      9  O   UNL     1      -0.298  15.373  18.376  0.00  0.00    +0.000 OA
ATOM     10  C   UNL     1      -0.727  12.981  18.823  0.00  0.00    +0.000 C 
ATOM     11  C   UNL     1      -0.057  11.592  19.212  0.00  0.00    +0.000 C 
ATOM     12  C   UNL     1       1.403  11.847  18.899  0.00  0.00    +0.000 C 
ATOM     13  H   UNL     1       1.150  12.510  21.566  0.00  0.00    +0.000 HD
ENDROOT
BRANCH   1  19
ATOM     14  C   UNL     1       7.153  17.230  20.347  0.00  0.00    +0.000 C 
ATOM     15  C   UNL     1       6.250  16.277  19.608  0.00  0.00    +0.000 A 
ATOM     16  C   UNL     1       6.695  15.623  18.461  0.00  0.00    +0.000 A 
ATOM     17  C   UNL     1       5.827  14.792  17.751  0.00  0.00    +0.000 A 
ATOM     18  C   UNL     1       4.498  14.632  18.153  0.00  0.00    +0.000 A 
ATOM     19  C   UNL     1       4.004  15.310  19.280  0.00  0.00    +0.000 A 
ATOM     20  C   UNL     1       4.920  16.104  20.017  0.00  0.00    +0.000 A 
ENDBRANCH   1  19
BRANCH  11  21
ATOM     21  C   UNL     1      -0.200  10.819  20.560  0.00  0.00    +0.000 A 
ATOM     22  C   UNL     1      -0.954  11.417  21.620  0.00  0.00    +0.000 A 
ATOM     23  C   UNL     1      -1.040  10.902  22.912  0.00  0.00    +0.000 A 
ATOM     24  C   UNL     1      -0.333   9.751  23.224  0.00  0.00    +0.000 A 
ATOM     25  C   UNL     1       0.385   9.120  22.218  0.00  0.00    +0.000 A 
ATOM     26  C   UNL     1       0.457   9.631  20.906  0.00  0.00    +0.000 A 
ATOM     27 CL   UNL     1       1.393   8.711  19.793  0.00  0.00    +0.000 Cl
ENDBRANCH  11  21
TORSDOF 2
ENDMDL
