MODEL 1
REMARK VINA RESULT:      -7.9      0.000      0.000
REMARK  Name = 
REMARK  10 active torsions:
REMARK  status: ('A' for Active; 'I' for Inactive)
REMARK    1  A    between atoms: C_1  and  C_2
REMARK    2  A    between atoms: C_2  and  O_3
REMARK    3  A    between atoms: O_3  and  C_4
REMARK    4  A    between atoms: C_4  and  C_6
REMARK    5  A    between atoms: C_10  and  O_11
REMARK    6  A    between atoms: O_11  and  C_12
REMARK    7  A    between atoms: C_17  and  C_18
REMARK    8  A    between atoms: N_23  and  C_24
REMARK    9  A    between atoms: C_29  and  O_30
REMARK   10  A    between atoms: O_30  and  C_31
REMARK                            x       y       z     vdW  Elec       q    Type
REMARK                         _______ _______ _______ _____ _____    ______ ____
ROOT
ATOM      1  C   UNL     1       3.483   4.551  19.564  0.00  0.00    +0.000 A 
ATOM      2  C   UNL     1       2.494   4.712  20.521  0.00  0.00    +0.000 A 
ATOM      3  N   UNL     1       1.794   5.846  20.713  0.00  0.00    +0.000 NA
ATOM      4  C   UNL     1       2.021   6.892  19.896  0.00  0.00    +0.000 A 
ATOM      5  C   UNL     1       1.314   8.098  20.093  0.00  0.00    +0.000 A 
ATOM      6  C   UNL     1       1.527   9.209  19.276  0.00  0.00    +0.000 A 
ATOM      7  C   UNL     1       2.346   9.089  18.170  0.00  0.00    +0.000 A 
ATOM      8  C   UNL     1       3.003   7.885  17.928  0.00  0.00    +0.000 A 
ATOM      9  C   UNL     1       2.956   6.798  18.826  0.00  0.00    +0.000 A 
ATOM     10  C   UNL     1       3.799   5.626  18.699  0.00  0.00    +0.000 A 
ENDROOT
BRANCH  10  11
ATOM     11  C   UNL     1       5.056   5.532  17.639  0.00  0.00    +0.000 C 
ATOM     12  C   UNL     1       6.092   6.715  17.508  0.00  0.00    +0.000 C 
ATOM     13  C   UNL     1       6.865   6.044  18.671  0.00  0.00    +0.000 C 
ATOM     14  C   UNL     1       6.388   4.721  18.041  0.00  0.00    +0.000 C 
ATOM     15  C   UNL     1       7.362   4.390  16.896  0.00  0.00    +0.000 C 
ATOM     16  N   UNL     1       7.153   5.303  15.758  0.00  0.00    +0.000 N 
ATOM     17  C   UNL     1       6.785   6.680  16.133  0.00  0.00    +0.000 C 
BRANCH  16  18
ATOM     18  C   UNL     1       6.760   4.787  14.517  0.00  0.00    +0.000 A 
ATOM     19  C   UNL     1       5.548   4.061  14.408  0.00  0.00    +0.000 A 
ATOM     20  C   UNL     1       5.128   3.421  13.238  0.00  0.00    +0.000 A 
ATOM     21  C   UNL     1       5.909   3.499  12.103  0.00  0.00    +0.000 A 
ATOM     22  C   UNL     1       7.080   4.260  12.137  0.00  0.00    +0.000 A 
ATOM     23  C   UNL     1       7.495   4.911  13.318  0.00  0.00    +0.000 A 
BRANCH  23  24
ATOM     24  O   UNL     1       8.562   5.759  13.134  0.00  0.00    +0.000 OA
ATOM     25  C   UNL     1       8.575   6.445  11.891  0.00  0.00    +0.000 C 
ENDBRANCH  23  24
ENDBRANCH  16  18
ENDBRANCH  10  11
BRANCH   1  26
ATOM     26  C   UNL     1       4.154   3.234  19.585  0.00  0.00    +0.000 C 
ATOM     27  O   UNL     1       4.789   2.844  20.552  0.00  0.00    +0.000 OA
BRANCH  26  28
ATOM     28  O   UNL     1       3.916   2.535  18.451  0.00  0.00    +0.000 OA
BRANCH  28  30
ATOM     29  C   UNL     1       1.571   2.004  18.463  0.00  0.00    +0.000 C 
ATOM     30  C   UNL     1       2.981   1.451  18.566  0.00  0.00    +0.000 C 
ENDBRANCH  28  30
ENDBRANCH  26  28
ENDBRANCH   1  26
BRANCH   5  31
ATOM     31  O   UNL     1       0.439   8.144  21.163  0.00  0.00    +0.000 OA
ATOM     32  C   UNL     1       0.503   9.321  21.963  0.00  0.00    +0.000 C 
ENDBRANCH   5  31
TORSDOF 7
ENDMDL
MODEL 2
REMARK VINA RESULT:      -6.5      0.902      1.174
REMARK  Name = 
REMARK  10 active torsions:
REMARK  status: ('A' for Active; 'I' for Inactive)
REMARK    1  A    between atoms: C_1  and  C_2
REMARK    2  A    between atoms: C_2  and  O_3
REMARK    3  A    between atoms: O_3  and  C_4
REMARK    4  A    between atoms: C_4  and  C_6
REMARK    5  A    between atoms: C_10  and  O_11
REMARK    6  A    between atoms: O_11  and  C_12
REMARK    7  A    between atoms: C_17  and  C_18
REMARK    8  A    between atoms: N_23  and  C_24
REMARK    9  A    between atoms: C_29  and  O_30
REMARK   10  A    between atoms: O_30  and  C_31
REMARK                            x       y       z     vdW  Elec       q    Type
REMARK                         _______ _______ _______ _____ _____    ______ ____
ROOT
ATOM      1  C   UNL     1       2.774   5.075  19.372  0.00  0.00    +0.000 A 
ATOM      2  C   UNL     1       1.728   5.398  20.222  0.00  0.00    +0.000 A 
ATOM      3  N   UNL     1       1.194   6.628  20.343  0.00  0.00    +0.000 NA
ATOM      4  C   UNL     1       1.661   7.616  19.556  0.00  0.00    +0.000 A 
ATOM      5  C   UNL     1       1.130   8.918  19.681  0.00  0.00    +0.000 A 
ATOM      6  C   UNL     1       1.594   9.972  18.893  0.00  0.00    +0.000 A 
ATOM      7  C   UNL     1       2.494   9.714  17.877  0.00  0.00    +0.000 A 
ATOM      8  C   UNL     1       2.980   8.420  17.703  0.00  0.00    +0.000 A 
ATOM      9  C   UNL     1       2.676   7.366  18.588  0.00  0.00    +0.000 A 
ATOM     10  C   UNL     1       3.338   6.077  18.547  0.00  0.00    +0.000 A 
ENDROOT
BRANCH  10  11
ATOM     11  C   UNL     1       4.667   5.778  17.621  0.00  0.00    +0.000 C 
ATOM     12  C   UNL     1       5.880   6.787  17.600  0.00  0.00    +0.000 C 
ATOM     13  C   UNL     1       6.418   6.023  18.836  0.00  0.00    +0.000 C 
ATOM     14  C   UNL     1       5.812   4.780  18.158  0.00  0.00    +0.000 C 
ATOM     15  C   UNL     1       6.836   4.288  17.119  0.00  0.00    +0.000 C 
ATOM     16  N   UNL     1       6.887   5.206  15.967  0.00  0.00    +0.000 N 
ATOM     17  C   UNL     1       6.696   6.628  16.304  0.00  0.00    +0.000 C 
BRANCH  16  18
ATOM     18  C   UNL     1       6.548   4.738  14.692  0.00  0.00    +0.000 A 
ATOM     19  C   UNL     1       5.329   4.043  14.497  0.00  0.00    +0.000 A 
ATOM     20  C   UNL     1       4.957   3.450  13.286  0.00  0.00    +0.000 A 
ATOM     21  C   UNL     1       5.798   3.546  12.196  0.00  0.00    +0.000 A 
ATOM     22  C   UNL     1       6.980   4.280  12.315  0.00  0.00    +0.000 A 
ATOM     23  C   UNL     1       7.347   4.884  13.537  0.00  0.00    +0.000 A 
BRANCH  23  24
ATOM     24  O   UNL     1       8.439   5.714  13.435  0.00  0.00    +0.000 OA
ATOM     25  C   UNL     1       8.673   6.240  12.137  0.00  0.00    +0.000 C 
ENDBRANCH  23  24
ENDBRANCH  16  18
ENDBRANCH  10  11
BRANCH   1  26
ATOM     26  C   UNL     1       3.230   3.672  19.460  0.00  0.00    +0.000 C 
ATOM     27  O   UNL     1       3.191   2.915  18.503  0.00  0.00    +0.000 OA
BRANCH  26  28
ATOM     28  O   UNL     1       3.730   3.386  20.684  0.00  0.00    +0.000 OA
BRANCH  28  30
ATOM     29  C   UNL     1       1.787   2.480  21.773  0.00  0.00    +0.000 C 
ATOM     30  C   UNL     1       3.208   2.206  21.316  0.00  0.00    +0.000 C 
ENDBRANCH  28  30
ENDBRANCH  26  28
ENDBRANCH   1  26
BRANCH   5  31
ATOM     31  O   UNL     1       0.169   9.112  20.655  0.00  0.00    +0.000 OA
ATOM     32  C   UNL     1       0.439  10.149  21.594  0.00  0.00    +0.000 C 
ENDBRANCH   5  31
TORSDOF 7
ENDMDL
MODEL 3
REMARK VINA RESULT:      -6.5      0.764      1.219
REMARK  Name = 
REMARK  10 active torsions:
REMARK  status: ('A' for Active; 'I' for Inactive)
REMARK    1  A    between atoms: C_1  and  C_2
REMARK    2  A    between atoms: C_2  and  O_3
REMARK    3  A    between atoms: O_3  and  C_4
REMARK    4  A    between atoms: C_4  and  C_6
REMARK    5  A    between atoms: C_10  and  O_11
REMARK    6  A    between atoms: O_11  and  C_12
REMARK    7  A    between atoms: C_17  and  C_18
REMARK    8  A    between atoms: N_23  and  C_24
REMARK    9  A    between atoms: C_29  and  O_30
REMARK   10  A    between atoms: O_30  and  C_31
REMARK                            x       y       z     vdW  Elec       q    Type
REMARK                         _______ _______ _______ _____ _____    ______ ____
ROOT
ATOM      1  C   UNL     1       3.061   4.384  19.380  0.00  0.00    +0.000 A 
ATOM      2  C   UNL     1       2.046   4.525  20.315  0.00  0.00    +0.000 A 
ATOM      3  N   UNL     1       1.426   5.685  20.600  0.00  0.00    +0.000 NA
ATOM      4  C   UNL     1       1.766   6.788  19.906  0.00  0.00    +0.000 A 
ATOM      5  C   UNL     1       1.144   8.019  20.204  0.00  0.00    +0.000 A 
ATOM      6  C   UNL     1       1.476   9.188  19.516  0.00  0.00    +0.000 A 
ATOM      7  C   UNL     1       2.331   9.117  18.433  0.00  0.00    +0.000 A 
ATOM      8  C   UNL     1       2.905   7.895  18.089  0.00  0.00    +0.000 A 
ATOM      9  C   UNL     1       2.737   6.730  18.865  0.00  0.00    +0.000 A 
ATOM     10  C   UNL     1       3.494   5.514  18.646  0.00  0.00    +0.000 A 
ENDROOT
BRANCH  10  11
ATOM     11  C   UNL     1       4.784   5.428  17.625  0.00  0.00    +0.000 C 
ATOM     12  C   UNL     1       5.822   6.614  17.536  0.00  0.00    +0.000 C 
ATOM     13  C   UNL     1       6.558   5.936  18.719  0.00  0.00    +0.000 C 
ATOM     14  C   UNL     1       6.104   4.617  18.065  0.00  0.00    +0.000 C 
ATOM     15  C   UNL     1       7.116   4.295  16.949  0.00  0.00    +0.000 C 
ATOM     16  N   UNL     1       6.942   5.216  15.811  0.00  0.00    +0.000 N 
ATOM     17  C   UNL     1       6.559   6.590  16.184  0.00  0.00    +0.000 C 
BRANCH  16  18
ATOM     18  C   UNL     1       6.589   4.707  14.555  0.00  0.00    +0.000 A 
ATOM     19  C   UNL     1       5.356   4.030  14.390  0.00  0.00    +0.000 A 
ATOM     20  C   UNL     1       4.969   3.400  13.204  0.00  0.00    +0.000 A 
ATOM     21  C   UNL     1       5.807   3.439  12.108  0.00  0.00    +0.000 A 
ATOM     22  C   UNL     1       7.005   4.153  12.197  0.00  0.00    +0.000 A 
ATOM     23  C   UNL     1       7.387   4.794  13.394  0.00  0.00    +0.000 A 
BRANCH  23  24
ATOM     24  O   UNL     1       8.495   5.598  13.258  0.00  0.00    +0.000 OA
ATOM     25  C   UNL     1       8.554   6.339  12.049  0.00  0.00    +0.000 C 
ENDBRANCH  23  24
ENDBRANCH  16  18
ENDBRANCH  10  11
BRANCH   1  26
ATOM     26  C   UNL     1       3.629   3.023  19.287  0.00  0.00    +0.000 C 
ATOM     27  O   UNL     1       3.619   2.385  18.246  0.00  0.00    +0.000 OA
BRANCH  26  28
ATOM     28  O   UNL     1       4.189   2.636  20.456  0.00  0.00    +0.000 OA
BRANCH  28  30
ATOM     29  C   UNL     1       5.332   0.948  21.731  0.00  0.00    +0.000 C 
ATOM     30  C   UNL     1       5.170   1.589  20.365  0.00  0.00    +0.000 C 
ENDBRANCH  28  30
ENDBRANCH  26  28
ENDBRANCH   1  26
BRANCH   5  31
ATOM     31  O   UNL     1       0.231   8.026  21.241  0.00  0.00    +0.000 OA
ATOM     32  C   UNL     1       0.381   9.078  22.190  0.00  0.00    +0.000 C 
ENDBRANCH   5  31
TORSDOF 7
ENDMDL
MODEL 4
REMARK VINA RESULT:      -6.2      8.408     12.680
REMARK  Name = 
REMARK  10 active torsions:
REMARK  status: ('A' for Active; 'I' for Inactive)
REMARK    1  A    between atoms: C_1  and  C_2
REMARK    2  A    between atoms: C_2  and  O_3
REMARK    3  A    between atoms: O_3  and  C_4
REMARK    4  A    between atoms: C_4  and  C_6
REMARK    5  A    between atoms: C_10  and  O_11
REMARK    6  A    between atoms: O_11  and  C_12
REMARK    7  A    between atoms: C_17  and  C_18
REMARK    8  A    between atoms: N_23  and  C_24
REMARK    9  A    between atoms: C_29  and  O_30
REMARK   10  A    between atoms: O_30  and  C_31
REMARK                            x       y       z     vdW  Elec       q    Type
REMARK                         _______ _______ _______ _____ _____    ______ ____
ROOT
ATOM      1  C   UNL     1       0.762  12.592  20.546  0.00  0.00    +0.000 A 
ATOM      2  C   UNL     1       1.930  12.790  19.826  0.00  0.00    +0.000 A 
ATOM      3  N   UNL     1       2.377  13.990  19.412  0.00  0.00    +0.000 NA
ATOM      4  C   UNL     1       1.683  15.092  19.751  0.00  0.00    +0.000 A 
ATOM      5  C   UNL     1       2.123  16.358  19.309  0.00  0.00    +0.000 A 
ATOM      6  C   UNL     1       1.425  17.525  19.631  0.00  0.00    +0.000 A 
ATOM      7  C   UNL     1       0.361  17.457  20.508  0.00  0.00    +0.000 A 
ATOM      8  C   UNL     1      -0.046  16.219  21.002  0.00  0.00    +0.000 A 
ATOM      9  C   UNL     1       0.516  15.003  20.563  0.00  0.00    +0.000 A 
ATOM     10  C   UNL     1      -0.036  13.706  20.901  0.00  0.00    +0.000 A 
ENDROOT
BRANCH  10  11
ATOM     11  C   UNL     1      -1.498  13.513  21.635  0.00  0.00    +0.000 C 
ATOM     12  C   UNL     1      -1.613  12.762  23.018  0.00  0.00    +0.000 C 
ATOM     13  C   UNL     1      -1.325  14.132  23.682  0.00  0.00    +0.000 C 
ATOM     14  C   UNL     1      -2.127  14.716  22.502  0.00  0.00    +0.000 C 
ATOM     15  C   UNL     1      -3.618  14.594  22.867  0.00  0.00    +0.000 C 
ATOM     16  N   UNL     1      -4.053  13.187  22.799  0.00  0.00    +0.000 N 
ATOM     17  C   UNL     1      -3.036  12.206  23.217  0.00  0.00    +0.000 C 
BRANCH  16  18
ATOM     18  C   UNL     1      -5.054  12.815  21.893  0.00  0.00    +0.000 A 
ATOM     19  C   UNL     1      -4.775  12.789  20.505  0.00  0.00    +0.000 A 
ATOM     20  C   UNL     1      -5.737  12.532  19.523  0.00  0.00    +0.000 A 
ATOM     21  C   UNL     1      -7.038  12.268  19.899  0.00  0.00    +0.000 A 
ATOM     22  C   UNL     1      -7.352  12.212  21.259  0.00  0.00    +0.000 A 
ATOM     23  C   UNL     1      -6.376  12.464  22.246  0.00  0.00    +0.000 A 
BRANCH  23  24
ATOM     24  O   UNL     1      -6.803  12.192  23.525  0.00  0.00    +0.000 OA
ATOM     25  C   UNL     1      -7.461  13.268  24.178  0.00  0.00    +0.000 C 
ENDBRANCH  23  24
ENDBRANCH  16  18
ENDBRANCH  10  11
BRANCH   1  26
ATOM     26  C   UNL     1       0.447  11.177  20.834  0.00  0.00    +0.000 C 
ATOM     27  O   UNL     1      -0.397  10.558  20.206  0.00  0.00    +0.000 OA
BRANCH  26  28
ATOM     28  O   UNL     1       1.240  10.679  21.811  0.00  0.00    +0.000 OA
BRANCH  28  30
ATOM     29  C   UNL     1      -0.117   9.435  23.356  0.00  0.00    +0.000 C 
ATOM     30  C   UNL     1       0.927   9.351  22.258  0.00  0.00    +0.000 C 
ENDBRANCH  28  30
ENDBRANCH  26  28
ENDBRANCH   1  26
BRANCH   5  31
ATOM     31  O   UNL     1       3.244  16.386  18.502  0.00  0.00    +0.000 OA
ATOM     32  C   UNL     1       3.032  16.830  17.165  0.00  0.00    +0.000 C 
ENDBRANCH   5  31
TORSDOF 7
ENDMDL
MODEL 5
REMARK VINA RESULT:      -6.2      5.558     10.132
REMARK  Name = 
REMARK  10 active torsions:
REMARK  status: ('A' for Active; 'I' for Inactive)
REMARK    1  A    between atoms: C_1  and  C_2
REMARK    2  A    between atoms: C_2  and  O_3
REMARK    3  A    between atoms: O_3  and  C_4
REMARK    4  A    between atoms: C_4  and  C_6
REMARK    5  A    between atoms: C_10  and  O_11
REMARK    6  A    between atoms: O_11  and  C_12
REMARK    7  A    between atoms: C_17  and  C_18
REMARK    8  A    between atoms: N_23  and  C_24
REMARK    9  A    between atoms: C_29  and  O_30
REMARK   10  A    between atoms: O_30  and  C_31
REMARK                            x       y       z     vdW  Elec       q    Type
REMARK                         _______ _______ _______ _____ _____    ______ ____
ROOT
ATOM      1  C   UNL     1       0.735  14.571  22.109  0.00  0.00    +0.000 A 
ATOM      2  C   UNL     1       0.428  15.491  23.099  0.00  0.00    +0.000 A 
ATOM      3  N   UNL     1      -0.685  15.456  23.855  0.00  0.00    +0.000 NA
ATOM      4  C   UNL     1      -1.549  14.437  23.688  0.00  0.00    +0.000 A 
ATOM      5  C   UNL     1      -2.733  14.392  24.455  0.00  0.00    +0.000 A 
ATOM      6  C   UNL     1      -3.660  13.359  24.305  0.00  0.00    +0.000 A 
ATOM      7  C   UNL     1      -3.354  12.289  23.487  0.00  0.00    +0.000 A 
ATOM      8  C   UNL     1      -2.160  12.291  22.770  0.00  0.00    +0.000 A 
ATOM      9  C   UNL     1      -1.282  13.394  22.755  0.00  0.00    +0.000 A 
ATOM     10  C   UNL     1      -0.152  13.498  21.854  0.00  0.00    +0.000 A 
ENDROOT
BRANCH  10  11
ATOM     11  C   UNL     1       0.098  12.459  20.600  0.00  0.00    +0.000 C 
ATOM     12  C   UNL     1      -1.030  12.205  19.526  0.00  0.00    +0.000 C 
ATOM     13  C   UNL     1      -0.465  13.437  18.776  0.00  0.00    +0.000 C 
ATOM     14  C   UNL     1       0.903  12.953  19.295  0.00  0.00    +0.000 C 
ATOM     15  C   UNL     1       1.388  11.855  18.332  0.00  0.00    +0.000 C 
ATOM     16  N   UNL     1       0.598  10.623  18.510  0.00  0.00    +0.000 N 
ATOM     17  C   UNL     1      -0.823  10.845  18.834  0.00  0.00    +0.000 C 
BRANCH  16  18
ATOM     18  C   UNL     1       1.234   9.445  18.920  0.00  0.00    +0.000 A 
ATOM     19  C   UNL     1       2.042   8.726  18.006  0.00  0.00    +0.000 A 
ATOM     20  C   UNL     1       2.629   7.489  18.293  0.00  0.00    +0.000 A 
ATOM     21  C   UNL     1       2.441   6.921  19.537  0.00  0.00    +0.000 A 
ATOM     22  C   UNL     1       1.709   7.622  20.499  0.00  0.00    +0.000 A 
ATOM     23  C   UNL     1       1.127   8.873  20.207  0.00  0.00    +0.000 A 
BRANCH  23  24
ATOM     24  O   UNL     1       0.600   9.506  21.308  0.00  0.00    +0.000 OA
ATOM     25  C   UNL     1       1.243   9.205  22.537  0.00  0.00    +0.000 C 
ENDBRANCH  23  24
ENDBRANCH  16  18
ENDBRANCH  10  11
BRANCH   1  26
ATOM     26  C   UNL     1       1.984  14.853  21.371  0.00  0.00    +0.000 C 
ATOM     27  O   UNL     1       2.077  15.781  20.583  0.00  0.00    +0.000 OA
BRANCH  26  28
ATOM     28  O   UNL     1       2.977  14.007  21.730  0.00  0.00    +0.000 OA
BRANCH  28  30
ATOM     29  C   UNL     1       4.937  14.613  22.984  0.00  0.00    +0.000 C 
ATOM     30  C   UNL     1       4.313  14.518  21.603  0.00  0.00    +0.000 C 
ENDBRANCH  28  30
ENDBRANCH  26  28
ENDBRANCH   1  26
BRANCH   5  31
ATOM     31  O   UNL     1      -2.957  15.444  25.324  0.00  0.00    +0.000 OA
ATOM     32  C   UNL     1      -3.978  16.359  24.937  0.00  0.00    +0.000 C 
ENDBRANCH   5  31
TORSDOF 7
ENDMDL
MODEL 6
REMARK VINA RESULT:      -6.2      5.805     10.479
REMARK  Name = 
REMARK  10 active torsions:
REMARK  status: ('A' for Active; 'I' for Inactive)
REMARK    1  A    between atoms: C_1  and  C_2
REMARK    2  A    between atoms: C_2  and  O_3
REMARK    3  A    between atoms: O_3  and  C_4
REMARK    4  A    between atoms: C_4  and  C_6
REMARK    5  A    between atoms: C_10  and  O_11
REMARK    6  A    between atoms: O_11  and  C_12
REMARK    7  A    between atoms: C_17  and  C_18
REMARK    8  A    between atoms: N_23  and  C_24
REMARK    9  A    between atoms: C_29  and  O_30
REMARK   10  A    between atoms: O_30  and  C_31
REMARK                            x       y       z     vdW  Elec       q    Type
REMARK                         _______ _______ _______ _____ _____    ______ ____
ROOT
ATOM      1  C   UNL     1       0.355  14.712  22.262  0.00  0.00    +0.000 A 
ATOM      2  C   UNL     1      -0.045  15.640  23.211  0.00  0.00    +0.000 A 
ATOM      3  N   UNL     1      -1.259  15.660  23.794  0.00  0.00    +0.000 NA
ATOM      4  C   UNL     1      -2.141  14.692  23.485  0.00  0.00    +0.000 A 
ATOM      5  C   UNL     1      -3.427  14.706  24.069  0.00  0.00    +0.000 A 
ATOM      6  C   UNL     1      -4.375  13.727  23.767  0.00  0.00    +0.000 A 
ATOM      7  C   UNL     1      -4.009  12.647  22.987  0.00  0.00    +0.000 A 
ATOM      8  C   UNL     1      -2.723  12.589  22.454  0.00  0.00    +0.000 A 
ATOM      9  C   UNL     1      -1.795  13.642  22.586  0.00  0.00    +0.000 A 
ATOM     10  C   UNL     1      -0.540  13.691  21.863  0.00  0.00    +0.000 A 
ENDROOT
BRANCH  10  11
ATOM     11  C   UNL     1      -0.163  12.649  20.644  0.00  0.00    +0.000 C 
ATOM     12  C   UNL     1      -1.170  12.400  19.455  0.00  0.00    +0.000 C 
ATOM     13  C   UNL     1      -0.521  13.628  18.769  0.00  0.00    +0.000 C 
ATOM     14  C   UNL     1       0.780  13.137  19.433  0.00  0.00    +0.000 C 
ATOM     15  C   UNL     1       1.359  12.035  18.527  0.00  0.00    +0.000 C 
ATOM     16  N   UNL     1       0.548  10.808  18.620  0.00  0.00    +0.000 N 
ATOM     17  C   UNL     1      -0.898  11.038  18.790  0.00  0.00    +0.000 C 
BRANCH  16  18
ATOM     18  C   UNL     1       1.130   9.627  19.097  0.00  0.00    +0.000 A 
ATOM     19  C   UNL     1       1.856   8.792  18.213  0.00  0.00    +0.000 A 
ATOM     20  C   UNL     1       2.380   7.547  18.573  0.00  0.00    +0.000 A 
ATOM     21  C   UNL     1       2.211   7.086  19.863  0.00  0.00    +0.000 A 
ATOM     22  C   UNL     1       1.561   7.901  20.793  0.00  0.00    +0.000 A 
ATOM     23  C   UNL     1       1.042   9.160  20.427  0.00  0.00    +0.000 A 
BRANCH  23  24
ATOM     24  O   UNL     1       0.599   9.906  21.494  0.00  0.00    +0.000 OA
ATOM     25  C   UNL     1      -0.334   9.248  22.339  0.00  0.00    +0.000 C 
ENDBRANCH  23  24
ENDBRANCH  16  18
ENDBRANCH  10  11
BRANCH   1  26
ATOM     26  C   UNL     1       1.713  14.930  21.721  0.00  0.00    +0.000 C 
ATOM     27  O   UNL     1       2.659  14.225  22.035  0.00  0.00    +0.000 OA
BRANCH  26  28
ATOM     28  O   UNL     1       1.734  15.941  20.822  0.00  0.00    +0.000 OA
BRANCH  28  30
ATOM     29  C   UNL     1       2.594  16.202  18.592  0.00  0.00    +0.000 C 
ATOM     30  C   UNL     1       2.946  16.081  20.063  0.00  0.00    +0.000 C 
ENDBRANCH  28  30
ENDBRANCH  26  28
ENDBRANCH   1  26
BRANCH   5  31
ATOM     31  O   UNL     1      -3.720  15.762  24.912  0.00  0.00    +0.000 OA
ATOM     32  C   UNL     1      -4.919  16.472  24.617  0.00  0.00    +0.000 C 
ENDBRANCH   5  31
TORSDOF 7
ENDMDL
MODEL 7
REMARK VINA RESULT:      -6.1      8.001     12.333
REMARK  Name = 
REMARK  10 active torsions:
REMARK  status: ('A' for Active; 'I' for Inactive)
REMARK    1  A    between atoms: C_1  and  C_2
REMARK    2  A    between atoms: C_2  and  O_3
REMARK    3  A    between atoms: O_3  and  C_4
REMARK    4  A    between atoms: C_4  and  C_6
REMARK    5  A    between atoms: C_10  and  O_11
REMARK    6  A    between atoms: O_11  and  C_12
REMARK    7  A    between atoms: C_17  and  C_18
REMARK    8  A    between atoms: N_23  and  C_24
REMARK    9  A    between atoms: C_29  and  O_30
REMARK   10  A    between atoms: O_30  and  C_31
REMARK                            x       y       z     vdW  Elec       q    Type
REMARK                         _______ _______ _______ _____ _____    ______ ____
ROOT
ATOM      1  C   UNL     1       0.609  11.870  19.623  0.00  0.00    +0.000 A 
ATOM      2  C   UNL     1       1.715  11.885  18.787  0.00  0.00    +0.000 A 
ATOM      3  N   UNL     1       2.334  13.003  18.362  0.00  0.00    +0.000 NA
ATOM      4  C   UNL     1       1.896  14.195  18.807  0.00  0.00    +0.000 A 
ATOM      5  C   UNL     1       2.517  15.380  18.357  0.00  0.00    +0.000 A 
ATOM      6  C   UNL     1       2.086  16.637  18.786  0.00  0.00    +0.000 A 
ATOM      7  C   UNL     1       1.121  16.722  19.771  0.00  0.00    +0.000 A 
ATOM      8  C   UNL     1       0.542  15.557  20.269  0.00  0.00    +0.000 A 
ATOM      9  C   UNL     1       0.820  14.281  19.737  0.00  0.00    +0.000 A 
ATOM     10  C   UNL     1       0.073  13.092  20.094  0.00  0.00    +0.000 A 
ENDROOT
BRANCH  10  11
ATOM     11  C   UNL     1      -1.318  13.134  20.976  0.00  0.00    +0.000 C 
ATOM     12  C   UNL     1      -1.366  12.533  22.435  0.00  0.00    +0.000 C 
ATOM     13  C   UNL     1      -0.872  13.918  22.923  0.00  0.00    +0.000 C 
ATOM     14  C   UNL     1      -1.727  14.475  21.768  0.00  0.00    +0.000 C 
ATOM     15  C   UNL     1      -3.177  14.555  22.279  0.00  0.00    +0.000 C 
ATOM     16  N   UNL     1      -3.759  13.206  22.399  0.00  0.00    +0.000 N 
ATOM     17  C   UNL     1      -2.810  12.161  22.821  0.00  0.00    +0.000 C 
BRANCH  16  18
ATOM     18  C   UNL     1      -4.881  12.865  21.633  0.00  0.00    +0.000 A 
ATOM     19  C   UNL     1      -4.784  12.821  20.221  0.00  0.00    +0.000 A 
ATOM     20  C   UNL     1      -5.872  12.594  19.374  0.00  0.00    +0.000 A 
ATOM     21  C   UNL     1      -7.123  12.378  19.916  0.00  0.00    +0.000 A 
ATOM     22  C   UNL     1      -7.261  12.342  21.306  0.00  0.00    +0.000 A 
ATOM     23  C   UNL     1      -6.157  12.563  22.157  0.00  0.00    +0.000 A 
BRANCH  23  24
ATOM     24  O   UNL     1      -6.425  12.315  23.483  0.00  0.00    +0.000 OA
ATOM     25  C   UNL     1      -7.283  13.257  24.108  0.00  0.00    +0.000 C 
ENDBRANCH  23  24
ENDBRANCH  16  18
ENDBRANCH  10  11
BRANCH   1  26
ATOM     26  C   UNL     1       0.066  10.524  19.902  0.00  0.00    +0.000 C 
ATOM     27  O   UNL     1       0.686   9.695  20.550  0.00  0.00    +0.000 OA
BRANCH  26  28
ATOM     28  O   UNL     1      -1.186  10.379  19.409  0.00  0.00    +0.000 OA
BRANCH  28  30
ATOM     29  C   UNL     1      -2.387  11.211  17.499  0.00  0.00    +0.000 C 
ATOM     30  C   UNL     1      -1.290  10.278  17.980  0.00  0.00    +0.000 C 
ENDBRANCH  28  30
ENDBRANCH  26  28
ENDBRANCH   1  26
BRANCH   5  31
ATOM     31  O   UNL     1       3.536  15.241  17.434  0.00  0.00    +0.000 OA
ATOM     32  C   UNL     1       4.859  15.303  17.959  0.00  0.00    +0.000 C 
ENDBRANCH   5  31
TORSDOF 7
ENDMDL
MODEL 8
REMARK VINA RESULT:      -6.1      8.557     10.874
REMARK  Name = 
REMARK  10 active torsions:
REMARK  status: ('A' for Active; 'I' for Inactive)
REMARK    1  A    between atoms: C_1  and  C_2
REMARK    2  A    between atoms: C_2  and  O_3
REMARK    3  A    between atoms: O_3  and  C_4
REMARK    4  A    between atoms: C_4  and  C_6
REMARK    5  A    between atoms: C_10  and  O_11
REMARK    6  A    between atoms: O_11  and  C_12
REMARK    7  A    between atoms: C_17  and  C_18
REMARK    8  A    between atoms: N_23  and  C_24
REMARK    9  A    between atoms: C_29  and  O_30
REMARK   10  A    between atoms: O_30  and  C_31
REMARK                            x       y       z     vdW  Elec       q    Type
REMARK                         _______ _______ _______ _____ _____    ______ ____
ROOT
ATOM      1  C   UNL     1      -2.714  12.998  21.610  0.00  0.00    +0.000 A 
ATOM      2  C   UNL     1      -4.080  12.885  21.818  0.00  0.00    +0.000 A 
ATOM      3  N   UNL     1      -4.964  12.496  20.881  0.00  0.00    +0.000 NA
ATOM      4  C   UNL     1      -4.506  12.140  19.666  0.00  0.00    +0.000 A 
ATOM      5  C   UNL     1      -5.418  11.750  18.662  0.00  0.00    +0.000 A 
ATOM      6  C   UNL     1      -4.984  11.384  17.386  0.00  0.00    +0.000 A 
ATOM      7  C   UNL     1      -3.630  11.272  17.137  0.00  0.00    +0.000 A 
ATOM      8  C   UNL     1      -2.718  11.595  18.139  0.00  0.00    +0.000 A 
ATOM      9  C   UNL     1      -3.110  12.139  19.380  0.00  0.00    +0.000 A 
ATOM     10  C   UNL     1      -2.171  12.678  20.343  0.00  0.00    +0.000 A 
ENDROOT
BRANCH  10  11
ATOM     11  C   UNL     1      -0.578  12.925  20.006  0.00  0.00    +0.000 C 
ATOM     12  C   UNL     1       0.536  12.563  21.063  0.00  0.00    +0.000 C 
ATOM     13  C   UNL     1       0.507  11.133  20.467  0.00  0.00    +0.000 C 
ATOM     14  C   UNL     1       0.235  11.847  19.128  0.00  0.00    +0.000 C 
ATOM     15  C   UNL     1       1.598  12.300  18.574  0.00  0.00    +0.000 C 
ATOM     16  N   UNL     1       2.128  13.428  19.360  0.00  0.00    +0.000 N 
ATOM     17  C   UNL     1       1.819  13.374  20.800  0.00  0.00    +0.000 C 
BRANCH  16  18
ATOM     18  C   UNL     1       2.350  14.662  18.738  0.00  0.00    +0.000 A 
ATOM     19  C   UNL     1       1.392  15.697  18.862  0.00  0.00    +0.000 A 
ATOM     20  C   UNL     1       1.478  16.922  18.192  0.00  0.00    +0.000 A 
ATOM     21  C   UNL     1       2.559  17.172  17.370  0.00  0.00    +0.000 A 
ATOM     22  C   UNL     1       3.568  16.211  17.267  0.00  0.00    +0.000 A 
ATOM     23  C   UNL     1       3.480  14.981  17.952  0.00  0.00    +0.000 A 
BRANCH  23  24
ATOM     24  O   UNL     1       4.631  14.231  17.888  0.00  0.00    +0.000 OA
ATOM     25  C   UNL     1       5.832  14.956  18.109  0.00  0.00    +0.000 C 
ENDBRANCH  23  24
ENDBRANCH  16  18
ENDBRANCH  10  11
BRANCH   1  26
ATOM     26  C   UNL     1      -1.953  13.503  22.773  0.00  0.00    +0.000 C 
ATOM     27  O   UNL     1      -1.326  12.761  23.511  0.00  0.00    +0.000 OA
BRANCH  26  28
ATOM     28  O   UNL     1      -2.004  14.853  22.852  0.00  0.00    +0.000 OA
BRANCH  28  30
ATOM     29  C   UNL     1      -0.873  16.532  21.556  0.00  0.00    +0.000 C 
ATOM     30  C   UNL     1      -0.752  15.539  22.697  0.00  0.00    +0.000 C 
ENDBRANCH  28  30
ENDBRANCH  26  28
ENDBRANCH   1  26
BRANCH   5  31
ATOM     31  O   UNL     1      -6.761  11.796  18.983  0.00  0.00    +0.000 OA
ATOM     32  C   UNL     1      -7.520  12.808  18.327  0.00  0.00    +0.000 C 
ENDBRANCH   5  31
TORSDOF 7
ENDMDL
MODEL 9
REMARK VINA RESULT:      -6.1      7.751     12.192
REMARK  Name = 
REMARK  10 active torsions:
REMARK  status: ('A' for Active; 'I' for Inactive)
REMARK    1  A    between atoms: C_1  and  C_2
REMARK    2  A    between atoms: C_2  and  O_3
REMARK    3  A    between atoms: O_3  and  C_4
REMARK    4  A    between atoms: C_4  and  C_6
REMARK    5  A    between atoms: C_10  and  O_11
REMARK    6  A    between atoms: O_11  and  C_12
REMARK    7  A    between atoms: C_17  and  C_18
REMARK    8  A    between atoms: N_23  and  C_24
REMARK    9  A    between atoms: C_29  and  O_30
REMARK   10  A    between atoms: O_30  and  C_31
REMARK                            x       y       z     vdW  Elec       q    Type
REMARK                         _______ _______ _______ _____ _____    ______ ____
ROOT
ATOM      1  C   UNL     1       0.694  11.868  19.516  0.00  0.00    +0.000 A 
ATOM      2  C   UNL     1       1.820  11.860  18.708  0.00  0.00    +0.000 A 
ATOM      3  N   UNL     1       2.444  12.965  18.259  0.00  0.00    +0.000 NA
ATOM      4  C   UNL     1       1.989  14.170  18.650  0.00  0.00    +0.000 A 
ATOM      5  C   UNL     1       2.615  15.342  18.174  0.00  0.00    +0.000 A 
ATOM      6  C   UNL     1       2.167  16.611  18.548  0.00  0.00    +0.000 A 
ATOM      7  C   UNL     1       1.178  16.725  19.505  0.00  0.00    +0.000 A 
ATOM      8  C   UNL     1       0.593  15.575  20.030  0.00  0.00    +0.000 A 
ATOM      9  C   UNL     1       0.890  14.283  19.550  0.00  0.00    +0.000 A 
ATOM     10  C   UNL     1       0.140  13.102  19.931  0.00  0.00    +0.000 A 
ENDROOT
BRANCH  10  11
ATOM     11  C   UNL     1      -1.272  13.167  20.776  0.00  0.00    +0.000 C 
ATOM     12  C   UNL     1      -1.352  12.624  22.256  0.00  0.00    +0.000 C 
ATOM     13  C   UNL     1      -0.881  14.031  22.701  0.00  0.00    +0.000 C 
ATOM     14  C   UNL     1      -1.711  14.535  21.504  0.00  0.00    +0.000 C 
ATOM     15  C   UNL     1      -3.174  14.623  21.977  0.00  0.00    +0.000 C 
ATOM     16  N   UNL     1      -3.749  13.275  22.135  0.00  0.00    +0.000 N 
ATOM     17  C   UNL     1      -2.802  12.255  22.621  0.00  0.00    +0.000 C 
BRANCH  16  18
ATOM     18  C   UNL     1      -4.849  12.895  21.356  0.00  0.00    +0.000 A 
ATOM     19  C   UNL     1      -4.677  12.631  19.975  0.00  0.00    +0.000 A 
ATOM     20  C   UNL     1      -5.731  12.348  19.101  0.00  0.00    +0.000 A 
ATOM     21  C   UNL     1      -7.022  12.299  19.586  0.00  0.00    +0.000 A 
ATOM     22  C   UNL     1      -7.239  12.484  20.954  0.00  0.00    +0.000 A 
ATOM     23  C   UNL     1      -6.171  12.760  21.834  0.00  0.00    +0.000 A 
BRANCH  23  24
ATOM     24  O   UNL     1      -6.529  12.734  23.161  0.00  0.00    +0.000 OA
ATOM     25  C   UNL     1      -7.706  11.994  23.450  0.00  0.00    +0.000 C 
ENDBRANCH  23  24
ENDBRANCH  16  18
ENDBRANCH  10  11
BRANCH   1  26
ATOM     26  C   UNL     1       0.151  10.529  19.829  0.00  0.00    +0.000 C 
ATOM     27  O   UNL     1      -0.740  10.019  19.170  0.00  0.00    +0.000 OA
BRANCH  26  28
ATOM     28  O   UNL     1       0.803   9.958  20.869  0.00  0.00    +0.000 OA
BRANCH  28  30
ATOM     29  C   UNL     1      -0.040   9.341  23.035  0.00  0.00    +0.000 C 
ATOM     30  C   UNL     1       0.082   8.937  21.577  0.00  0.00    +0.000 C 
ENDBRANCH  28  30
ENDBRANCH  26  28
ENDBRANCH   1  26
BRANCH   5  31
ATOM     31  O   UNL     1       3.658  15.177  17.282  0.00  0.00    +0.000 OA
ATOM     32  C   UNL     1       4.967  15.256  17.839  0.00  0.00    +0.000 C 
ENDBRANCH   5  31
TORSDOF 7
ENDMDL
