MODEL 1
REMARK VINA RESULT:      -7.9      0.000      0.000
REMARK  Name = 
REMARK  5 active torsions:
REMARK  status: ('A' for Active; 'I' for Inactive)
REMARK    1  A    between atoms: C_1  and  C_2
REMARK    2  A    between atoms: C_5  and  O_6
REMARK    3  A    between atoms: O_6  and  S_7
REMARK    4  A    between atoms: S_7  and  N_9
REMARK    5  A    between atoms: N_9  and  C_10
REMARK                            x       y       z     vdW  Elec       q    Type
REMARK                         _______ _______ _______ _____ _____    ______ ____
ROOT
ATOM      1  N   UNL     1       4.625   2.898  18.027  0.00  0.00    +0.000 N 
ATOM      2  H   UNL     1       4.878   2.157  17.374  0.00  0.00    +0.000 HD
ENDROOT
BRANCH   1   3
ATOM      3  C   UNL     1       5.535   3.995  17.890  0.00  0.00    +0.000 A 
ATOM      4  C   UNL     1       5.945   4.752  19.000  0.00  0.00    +0.000 A 
ATOM      5  C   UNL     1       6.806   5.832  18.852  0.00  0.00    +0.000 A 
ATOM      6  C   UNL     1       7.298   6.146  17.595  0.00  0.00    +0.000 A 
ATOM      7  C   UNL     1       6.960   5.390  16.482  0.00  0.00    +0.000 A 
ATOM      8  N   UNL     1       7.493   5.737  15.300  0.00  0.00    +0.000 NA
ATOM      9  C   UNL     1       7.152   4.977  14.238  0.00  0.00    +0.000 A 
ATOM     10  C   UNL     1       6.290   3.907  14.353  0.00  0.00    +0.000 A 
ATOM     11  N   UNL     1       5.725   3.549  15.531  0.00  0.00    +0.000 NA
ATOM     12  C   UNL     1       6.068   4.289  16.617  0.00  0.00    +0.000 A 
ENDBRANCH   1   3
BRANCH   1  13
ATOM     13  S   UNL     1       2.991   3.186  18.228  0.00  0.00    +0.000 S 
ATOM     14  O   UNL     1       2.178   2.231  17.409  0.00  0.00    +0.000 OA
BRANCH  13  15
ATOM     15  O   UNL     1       2.816   4.660  17.614  0.00  0.00    +0.000 OA
BRANCH  15  20
ATOM     16  C   UNL     1       1.242   8.602  21.414  0.00  0.00    +0.000 C 
ATOM     17  C   UNL     1       1.691   7.578  20.414  0.00  0.00    +0.000 A 
ATOM     18  C   UNL     1       1.686   6.211  20.718  0.00  0.00    +0.000 A 
ATOM     19  C   UNL     1       2.087   5.271  19.764  0.00  0.00    +0.000 A 
ATOM     20  C   UNL     1       2.490   5.677  18.489  0.00  0.00    +0.000 A 
ATOM     21  C   UNL     1       2.543   7.048  18.205  0.00  0.00    +0.000 A 
ATOM     22  C   UNL     1       2.134   7.988  19.154  0.00  0.00    +0.000 A 
ENDBRANCH  15  20
ENDBRANCH  13  15
ENDBRANCH   1  13
TORSDOF 4
ENDMDL
MODEL 2
REMARK VINA RESULT:      -7.8      1.110      1.354
REMARK  Name = 
REMARK  5 active torsions:
REMARK  status: ('A' for Active; 'I' for Inactive)
REMARK    1  A    between atoms: C_1  and  C_2
REMARK    2  A    between atoms: C_5  and  O_6
REMARK    3  A    between atoms: O_6  and  S_7
REMARK    4  A    between atoms: S_7  and  N_9
REMARK    5  A    between atoms: N_9  and  C_10
REMARK                            x       y       z     vdW  Elec       q    Type
REMARK                         _______ _______ _______ _____ _____    ______ ____
ROOT
ATOM      1  N   UNL     1       3.802   3.833  18.225  0.00  0.00    +0.000 N 
ATOM      2  H   UNL     1       3.777   3.023  17.607  0.00  0.00    +0.000 HD
ENDROOT
BRANCH   1   3
ATOM      3  C   UNL     1       5.069   4.490  18.113  0.00  0.00    +0.000 A 
ATOM      4  C   UNL     1       5.740   4.991  19.241  0.00  0.00    +0.000 A 
ATOM      5  C   UNL     1       6.955   5.651  19.117  0.00  0.00    +0.000 A 
ATOM      6  C   UNL     1       7.534   5.787  17.865  0.00  0.00    +0.000 A 
ATOM      7  C   UNL     1       6.930   5.260  16.733  0.00  0.00    +0.000 A 
ATOM      8  N   UNL     1       7.560   5.407  15.557  0.00  0.00    +0.000 NA
ATOM      9  C   UNL     1       6.952   4.876  14.476  0.00  0.00    +0.000 A 
ATOM     10  C   UNL     1       5.739   4.225  14.567  0.00  0.00    +0.000 A 
ATOM     11  N   UNL     1       5.076   4.080  15.739  0.00  0.00    +0.000 NA
ATOM     12  C   UNL     1       5.679   4.591  16.844  0.00  0.00    +0.000 A 
ENDBRANCH   1   3
BRANCH   1  13
ATOM     13  S   UNL     1       2.398   4.734  18.325  0.00  0.00    +0.000 S 
ATOM     14  O   UNL     1       1.372   4.228  17.357  0.00  0.00    +0.000 OA
BRANCH  13  15
ATOM     15  O   UNL     1       2.879   6.188  17.841  0.00  0.00    +0.000 OA
BRANCH  15  20
ATOM     16  C   UNL     1       0.432  10.460  20.710  0.00  0.00    +0.000 C 
ATOM     17  C   UNL     1       1.106   9.358  19.948  0.00  0.00    +0.000 A 
ATOM     18  C   UNL     1       1.515   8.177  20.581  0.00  0.00    +0.000 A 
ATOM     19  C   UNL     1       2.120   7.152  19.847  0.00  0.00    +0.000 A 
ATOM     20  C   UNL     1       2.319   7.283  18.470  0.00  0.00    +0.000 A 
ATOM     21  C   UNL     1       1.956   8.485  17.849  0.00  0.00    +0.000 A 
ATOM     22  C   UNL     1       1.343   9.507  18.578  0.00  0.00    +0.000 A 
ENDBRANCH  15  20
ENDBRANCH  13  15
ENDBRANCH   1  13
TORSDOF 4
ENDMDL
MODEL 3
REMARK VINA RESULT:      -7.6      0.916      1.392
REMARK  Name = 
REMARK  5 active torsions:
REMARK  status: ('A' for Active; 'I' for Inactive)
REMARK    1  A    between atoms: C_1  and  C_2
REMARK    2  A    between atoms: C_5  and  O_6
REMARK    3  A    between atoms: O_6  and  S_7
REMARK    4  A    between atoms: S_7  and  N_9
REMARK    5  A    between atoms: N_9  and  C_10
REMARK                            x       y       z     vdW  Elec       q    Type
REMARK                         _______ _______ _______ _____ _____    ______ ____
ROOT
ATOM      1  N   UNL     1       5.212   3.337  18.857  0.00  0.00    +0.000 N 
ATOM      2  H   UNL     1       5.229   2.557  18.201  0.00  0.00    +0.000 HD
ENDROOT
BRANCH   1   3
ATOM      3  C   UNL     1       6.007   4.414  18.350  0.00  0.00    +0.000 A 
ATOM      4  C   UNL     1       6.588   5.365  19.205  0.00  0.00    +0.000 A 
ATOM      5  C   UNL     1       7.333   6.422  18.700  0.00  0.00    +0.000 A 
ATOM      6  C   UNL     1       7.539   6.521  17.333  0.00  0.00    +0.000 A 
ATOM      7  C   UNL     1       7.027   5.573  16.459  0.00  0.00    +0.000 A 
ATOM      8  N   UNL     1       7.287   5.719  15.150  0.00  0.00    +0.000 NA
ATOM      9  C   UNL     1       6.783   4.776  14.327  0.00  0.00    +0.000 A 
ATOM     10  C   UNL     1       6.030   3.722  14.799  0.00  0.00    +0.000 A 
ATOM     11  N   UNL     1       5.739   3.563  16.112  0.00  0.00    +0.000 NA
ATOM     12  C   UNL     1       6.251   4.491  16.962  0.00  0.00    +0.000 A 
ENDBRANCH   1   3
BRANCH   1  13
ATOM     13  S   UNL     1       3.748   3.653  19.598  0.00  0.00    +0.000 S 
ATOM     14  O   UNL     1       2.915   2.410  19.681  0.00  0.00    +0.000 OA
BRANCH  13  15
ATOM     15  O   UNL     1       3.046   4.667  18.568  0.00  0.00    +0.000 OA
BRANCH  15  20
ATOM     16  C   UNL     1       1.055   9.651  20.480  0.00  0.00    +0.000 C 
ATOM     17  C   UNL     1       1.544   8.325  19.978  0.00  0.00    +0.000 A 
ATOM     18  C   UNL     1       2.084   8.185  18.693  0.00  0.00    +0.000 A 
ATOM     19  C   UNL     1       2.556   6.945  18.254  0.00  0.00    +0.000 A 
ATOM     20  C   UNL     1       2.506   5.826  19.089  0.00  0.00    +0.000 A 
ATOM     21  C   UNL     1       1.919   5.957  20.355  0.00  0.00    +0.000 A 
ATOM     22  C   UNL     1       1.455   7.198  20.800  0.00  0.00    +0.000 A 
ENDBRANCH  15  20
ENDBRANCH  13  15
ENDBRANCH   1  13
TORSDOF 4
ENDMDL
MODEL 4
REMARK VINA RESULT:      -7.4      3.125      6.549
REMARK  Name = 
REMARK  5 active torsions:
REMARK  status: ('A' for Active; 'I' for Inactive)
REMARK    1  A    between atoms: C_1  and  C_2
REMARK    2  A    between atoms: C_5  and  O_6
REMARK    3  A    between atoms: O_6  and  S_7
REMARK    4  A    between atoms: S_7  and  N_9
REMARK    5  A    between atoms: N_9  and  C_10
REMARK                            x       y       z     vdW  Elec       q    Type
REMARK                         _______ _______ _______ _____ _____    ______ ____
ROOT
ATOM      1  N   UNL     1       2.455   6.025  20.587  0.00  0.00    +0.000 N 
ATOM      2  H   UNL     1       3.353   6.127  21.059  0.00  0.00    +0.000 HD
ENDROOT
BRANCH   1   3
ATOM      3  C   UNL     1       2.213   7.163  19.753  0.00  0.00    +0.000 A 
ATOM      4  C   UNL     1       2.603   7.182  18.404  0.00  0.00    +0.000 A 
ATOM      5  C   UNL     1       2.388   8.302  17.612  0.00  0.00    +0.000 A 
ATOM      6  C   UNL     1       1.747   9.407  18.151  0.00  0.00    +0.000 A 
ATOM      7  C   UNL     1       1.298   9.407  19.463  0.00  0.00    +0.000 A 
ATOM      8  N   UNL     1       0.663  10.502  19.910  0.00  0.00    +0.000 NA
ATOM      9  C   UNL     1       0.232  10.469  21.188  0.00  0.00    +0.000 A 
ATOM     10  C   UNL     1       0.441   9.375  22.001  0.00  0.00    +0.000 A 
ATOM     11  N   UNL     1       1.095   8.267  21.579  0.00  0.00    +0.000 NA
ATOM     12  C   UNL     1       1.523   8.270  20.289  0.00  0.00    +0.000 A 
ENDBRANCH   1   3
BRANCH   1  13
ATOM     13  S   UNL     1       2.073   4.491  20.042  0.00  0.00    +0.000 S 
ATOM     14  O   UNL     1       1.235   3.764  21.049  0.00  0.00    +0.000 OA
BRANCH  13  15
ATOM     15  O   UNL     1       3.510   3.778  19.967  0.00  0.00    +0.000 OA
BRANCH  15  20
ATOM     16  C   UNL     1       6.834   5.025  15.511  0.00  0.00    +0.000 C 
ATOM     17  C   UNL     1       5.964   4.661  16.677  0.00  0.00    +0.000 A 
ATOM     18  C   UNL     1       6.345   4.955  17.992  0.00  0.00    +0.000 A 
ATOM     19  C   UNL     1       5.507   4.627  19.063  0.00  0.00    +0.000 A 
ATOM     20  C   UNL     1       4.275   4.009  18.840  0.00  0.00    +0.000 A 
ATOM     21  C   UNL     1       3.919   3.669  17.528  0.00  0.00    +0.000 A 
ATOM     22  C   UNL     1       4.750   4.004  16.456  0.00  0.00    +0.000 A 
ENDBRANCH  15  20
ENDBRANCH  13  15
ENDBRANCH   1  13
TORSDOF 4
ENDMDL
MODEL 5
REMARK VINA RESULT:      -7.4      2.818      6.470
REMARK  Name = 
REMARK  5 active torsions:
REMARK  status: ('A' for Active; 'I' for Inactive)
REMARK    1  A    between atoms: C_1  and  C_2
REMARK    2  A    between atoms: C_5  and  O_6
REMARK    3  A    between atoms: O_6  and  S_7
REMARK    4  A    between atoms: S_7  and  N_9
REMARK    5  A    between atoms: N_9  and  C_10
REMARK                            x       y       z     vdW  Elec       q    Type
REMARK                         _______ _______ _______ _____ _____    ______ ____
ROOT
ATOM      1  N   UNL     1       6.431   5.926  17.748  0.00  0.00    +0.000 N 
ATOM      2  H   UNL     1       6.726   6.848  17.429  0.00  0.00    +0.000 HD
ENDROOT
BRANCH   1   3
ATOM      3  C   UNL     1       5.025   5.931  18.015  0.00  0.00    +0.000 A 
ATOM      4  C   UNL     1       4.194   6.966  17.556  0.00  0.00    +0.000 A 
ATOM      5  C   UNL     1       2.836   6.976  17.845  0.00  0.00    +0.000 A 
ATOM      6  C   UNL     1       2.283   5.928  18.567  0.00  0.00    +0.000 A 
ATOM      7  C   UNL     1       3.060   4.860  18.991  0.00  0.00    +0.000 A 
ATOM      8  N   UNL     1       2.454   3.869  19.663  0.00  0.00    +0.000 NA
ATOM      9  C   UNL     1       3.235   2.841  20.055  0.00  0.00    +0.000 A 
ATOM     10  C   UNL     1       4.588   2.810  19.792  0.00  0.00    +0.000 A 
ATOM     11  N   UNL     1       5.225   3.806  19.132  0.00  0.00    +0.000 NA
ATOM     12  C   UNL     1       4.456   4.844  18.712  0.00  0.00    +0.000 A 
ENDBRANCH   1   3
BRANCH   1  13
ATOM     13  S   UNL     1       7.133   4.616  16.982  0.00  0.00    +0.000 S 
ATOM     14  O   UNL     1       8.369   4.176  17.707  0.00  0.00    +0.000 OA
BRANCH  13  15
ATOM     15  O   UNL     1       7.569   5.232  15.564  0.00  0.00    +0.000 OA
BRANCH  15  20
ATOM     16  C   UNL     1       4.883   2.846  11.142  0.00  0.00    +0.000 C 
ATOM     17  C   UNL     1       5.589   3.507  12.288  0.00  0.00    +0.000 A 
ATOM     18  C   UNL     1       4.997   3.598  13.554  0.00  0.00    +0.000 A 
ATOM     19  C   UNL     1       5.683   4.198  14.616  0.00  0.00    +0.000 A 
ATOM     20  C   UNL     1       6.970   4.708  14.434  0.00  0.00    +0.000 A 
ATOM     21  C   UNL     1       7.539   4.662  13.155  0.00  0.00    +0.000 A 
ATOM     22  C   UNL     1       6.860   4.055  12.095  0.00  0.00    +0.000 A 
ENDBRANCH  15  20
ENDBRANCH  13  15
ENDBRANCH   1  13
TORSDOF 4
ENDMDL
MODEL 6
REMARK VINA RESULT:      -7.3      3.203      6.640
REMARK  Name = 
REMARK  5 active torsions:
REMARK  status: ('A' for Active; 'I' for Inactive)
REMARK    1  A    between atoms: C_1  and  C_2
REMARK    2  A    between atoms: C_5  and  O_6
REMARK    3  A    between atoms: O_6  and  S_7
REMARK    4  A    between atoms: S_7  and  N_9
REMARK    5  A    between atoms: N_9  and  C_10
REMARK                            x       y       z     vdW  Elec       q    Type
REMARK                         _______ _______ _______ _____ _____    ______ ____
ROOT
ATOM      1  N   UNL     1       2.305   6.179  20.603  0.00  0.00    +0.000 N 
ATOM      2  H   UNL     1       3.139   6.312  21.175  0.00  0.00    +0.000 HD
ENDROOT
BRANCH   1   3
ATOM      3  C   UNL     1       2.095   7.329  19.777  0.00  0.00    +0.000 A 
ATOM      4  C   UNL     1       2.442   7.329  18.416  0.00  0.00    +0.000 A 
ATOM      5  C   UNL     1       2.259   8.460  17.631  0.00  0.00    +0.000 A 
ATOM      6  C   UNL     1       1.692   9.595  18.189  0.00  0.00    +0.000 A 
ATOM      7  C   UNL     1       1.286   9.617  19.515  0.00  0.00    +0.000 A 
ATOM      8  N   UNL     1       0.721  10.742  19.981  0.00  0.00    +0.000 NA
ATOM      9  C   UNL     1       0.329  10.729  21.273  0.00  0.00    +0.000 A 
ATOM     10  C   UNL     1       0.508   9.625  22.079  0.00  0.00    +0.000 A 
ATOM     11  N   UNL     1       1.092   8.486  21.637  0.00  0.00    +0.000 NA
ATOM     12  C   UNL     1       1.479   8.469  20.334  0.00  0.00    +0.000 A 
ENDBRANCH   1   3
BRANCH   1  13
ATOM     13  S   UNL     1       2.069   4.646  19.981  0.00  0.00    +0.000 S 
ATOM     14  O   UNL     1       1.156   3.849  20.862  0.00  0.00    +0.000 OA
BRANCH  13  15
ATOM     15  O   UNL     1       3.540   4.004  20.061  0.00  0.00    +0.000 OA
BRANCH  15  20
ATOM     16  C   UNL     1       6.944   4.731  15.550  0.00  0.00    +0.000 C 
ATOM     17  C   UNL     1       6.043   4.577  16.739  0.00  0.00    +0.000 A 
ATOM     18  C   UNL     1       4.813   3.913  16.642  0.00  0.00    +0.000 A 
ATOM     19  C   UNL     1       3.999   3.760  17.768  0.00  0.00    +0.000 A 
ATOM     20  C   UNL     1       4.400   4.258  19.010  0.00  0.00    +0.000 A 
ATOM     21  C   UNL     1       5.606   4.966  19.095  0.00  0.00    +0.000 A 
ATOM     22  C   UNL     1       6.426   5.112  17.972  0.00  0.00    +0.000 A 
ENDBRANCH  15  20
ENDBRANCH  13  15
ENDBRANCH   1  13
TORSDOF 4
ENDMDL
MODEL 7
REMARK VINA RESULT:      -7.3      1.207      1.761
REMARK  Name = 
REMARK  5 active torsions:
REMARK  status: ('A' for Active; 'I' for Inactive)
REMARK    1  A    between atoms: C_1  and  C_2
REMARK    2  A    between atoms: C_5  and  O_6
REMARK    3  A    between atoms: O_6  and  S_7
REMARK    4  A    between atoms: S_7  and  N_9
REMARK    5  A    between atoms: N_9  and  C_10
REMARK                            x       y       z     vdW  Elec       q    Type
REMARK                         _______ _______ _______ _____ _____    ______ ____
ROOT
ATOM      1  N   UNL     1       4.293   3.886  18.772  0.00  0.00    +0.000 N 
ATOM      2  H   UNL     1       4.235   3.037  18.212  0.00  0.00    +0.000 HD
ENDROOT
BRANCH   1   3
ATOM      3  C   UNL     1       5.464   4.626  18.412  0.00  0.00    +0.000 A 
ATOM      4  C   UNL     1       6.244   5.283  19.377  0.00  0.00    +0.000 A 
ATOM      5  C   UNL     1       7.363   6.021  19.014  0.00  0.00    +0.000 A 
ATOM      6  C   UNL     1       7.738   6.081  17.680  0.00  0.00    +0.000 A 
ATOM      7  C   UNL     1       7.025   5.402  16.703  0.00  0.00    +0.000 A 
ATOM      8  N   UNL     1       7.460   5.484  15.435  0.00  0.00    +0.000 NA
ATOM      9  C   UNL     1       6.751   4.806  14.509  0.00  0.00    +0.000 A 
ATOM     10  C   UNL     1       5.629   4.075  14.840  0.00  0.00    +0.000 A 
ATOM     11  N   UNL     1       5.161   3.991  16.108  0.00  0.00    +0.000 NA
ATOM     12  C   UNL     1       5.869   4.652  17.060  0.00  0.00    +0.000 A 
ENDBRANCH   1   3
BRANCH   1  13
ATOM     13  S   UNL     1       2.854   4.685  19.060  0.00  0.00    +0.000 S 
ATOM     14  O   UNL     1       1.716   3.999  18.367  0.00  0.00    +0.000 OA
BRANCH  13  15
ATOM     15  O   UNL     1       3.095   6.108  18.354  0.00  0.00    +0.000 OA
BRANCH  15  20
ATOM     16  C   UNL     1       0.348  10.782  20.106  0.00  0.00    +0.000 C 
ATOM     17  C   UNL     1       1.041   9.531  19.652  0.00  0.00    +0.000 A 
ATOM     18  C   UNL     1       1.449   9.365  18.322  0.00  0.00    +0.000 A 
ATOM     19  C   UNL     1       2.114   8.201  17.925  0.00  0.00    +0.000 A 
ATOM     20  C   UNL     1       2.390   7.188  18.847  0.00  0.00    +0.000 A 
ATOM     21  C   UNL     1       1.936   7.335  20.164  0.00  0.00    +0.000 A 
ATOM     22  C   UNL     1       1.279   8.501  20.566  0.00  0.00    +0.000 A 
ENDBRANCH  15  20
ENDBRANCH  13  15
ENDBRANCH   1  13
TORSDOF 4
ENDMDL
MODEL 8
REMARK VINA RESULT:      -7.3      0.977      2.522
REMARK  Name = 
REMARK  5 active torsions:
REMARK  status: ('A' for Active; 'I' for Inactive)
REMARK    1  A    between atoms: C_1  and  C_2
REMARK    2  A    between atoms: C_5  and  O_6
REMARK    3  A    between atoms: O_6  and  S_7
REMARK    4  A    between atoms: S_7  and  N_9
REMARK    5  A    between atoms: N_9  and  C_10
REMARK                            x       y       z     vdW  Elec       q    Type
REMARK                         _______ _______ _______ _____ _____    ______ ____
ROOT
ATOM      1  N   UNL     1       4.536   2.836  17.577  0.00  0.00    +0.000 N 
ATOM      2  H   UNL     1       4.612   1.906  17.167  0.00  0.00    +0.000 HD
ENDROOT
BRANCH   1   3
ATOM      3  C   UNL     1       5.322   3.765  16.822  0.00  0.00    +0.000 A 
ATOM      4  C   UNL     1       5.234   3.833  15.422  0.00  0.00    +0.000 A 
ATOM      5  C   UNL     1       6.022   4.718  14.697  0.00  0.00    +0.000 A 
ATOM      6  C   UNL     1       6.883   5.573  15.369  0.00  0.00    +0.000 A 
ATOM      7  C   UNL     1       6.959   5.574  16.754  0.00  0.00    +0.000 A 
ATOM      8  N   UNL     1       7.796   6.447  17.337  0.00  0.00    +0.000 NA
ATOM      9  C   UNL     1       7.841   6.429  18.685  0.00  0.00    +0.000 A 
ATOM     10  C   UNL     1       7.079   5.553  19.430  0.00  0.00    +0.000 A 
ATOM     11  N   UNL     1       6.242   4.652  18.864  0.00  0.00    +0.000 NA
ATOM     12  C   UNL     1       6.166   4.664  17.507  0.00  0.00    +0.000 A 
ENDBRANCH   1   3
BRANCH   1  13
ATOM     13  S   UNL     1       3.025   3.280  18.137  0.00  0.00    +0.000 S 
ATOM     14  O   UNL     1       1.949   2.522  17.421  0.00  0.00    +0.000 OA
BRANCH  13  15
ATOM     15  O   UNL     1       2.932   4.825  17.707  0.00  0.00    +0.000 OA
BRANCH  15  20
ATOM     16  C   UNL     1       1.238   8.792  21.430  0.00  0.00    +0.000 C 
ATOM     17  C   UNL     1       1.649   7.733  20.450  0.00  0.00    +0.000 A 
ATOM     18  C   UNL     1       2.028   8.057  19.142  0.00  0.00    +0.000 A 
ATOM     19  C   UNL     1       2.431   7.057  18.252  0.00  0.00    +0.000 A 
ATOM     20  C   UNL     1       2.471   5.719  18.654  0.00  0.00    +0.000 A 
ATOM     21  C   UNL     1       2.042   5.392  19.947  0.00  0.00    +0.000 A 
ATOM     22  C   UNL     1       1.648   6.391  20.841  0.00  0.00    +0.000 A 
ENDBRANCH  15  20
ENDBRANCH  13  15
ENDBRANCH   1  13
TORSDOF 4
ENDMDL
MODEL 9
REMARK VINA RESULT:      -7.2      3.209      7.029
REMARK  Name = 
REMARK  5 active torsions:
REMARK  status: ('A' for Active; 'I' for Inactive)
REMARK    1  A    between atoms: C_1  and  C_2
REMARK    2  A    between atoms: C_5  and  O_6
REMARK    3  A    between atoms: O_6  and  S_7
REMARK    4  A    between atoms: S_7  and  N_9
REMARK    5  A    between atoms: N_9  and  C_10
REMARK                            x       y       z     vdW  Elec       q    Type
REMARK                         _______ _______ _______ _____ _____    ______ ____
ROOT
ATOM      1  N   UNL     1       2.578   6.391  20.326  0.00  0.00    +0.000 N 
ATOM      2  H   UNL     1       3.094   6.639  21.170  0.00  0.00    +0.000 HD
ENDROOT
BRANCH   1   3
ATOM      3  C   UNL     1       2.104   7.578  19.682  0.00  0.00    +0.000 A 
ATOM      4  C   UNL     1       2.290   7.792  18.306  0.00  0.00    +0.000 A 
ATOM      5  C   UNL     1       1.851   8.960  17.697  0.00  0.00    +0.000 A 
ATOM      6  C   UNL     1       1.185   9.915  18.451  0.00  0.00    +0.000 A 
ATOM      7  C   UNL     1       0.934   9.717  19.800  0.00  0.00    +0.000 A 
ATOM      8  N   UNL     1       0.262  10.673  20.461  0.00  0.00    +0.000 NA
ATOM      9  C   UNL     1       0.026  10.448  21.771  0.00  0.00    +0.000 A 
ATOM     10  C   UNL     1       0.460   9.303  22.405  0.00  0.00    +0.000 A 
ATOM     11  N   UNL     1       1.155   8.333  21.764  0.00  0.00    +0.000 NA
ATOM     12  C   UNL     1       1.390   8.530  20.440  0.00  0.00    +0.000 A 
ENDBRANCH   1   3
BRANCH   1  13
ATOM     13  S   UNL     1       3.202   5.136  19.416  0.00  0.00    +0.000 S 
ATOM     14  O   UNL     1       3.041   3.829  20.131  0.00  0.00    +0.000 OA
BRANCH  13  15
ATOM     15  O   UNL     1       4.768   5.492  19.354  0.00  0.00    +0.000 OA
BRANCH  15  20
ATOM     16  C   UNL     1       7.071   4.761  14.195  0.00  0.00    +0.000 C 
ATOM     17  C   UNL     1       6.493   4.977  15.562  0.00  0.00    +0.000 A 
ATOM     18  C   UNL     1       5.256   5.610  15.739  0.00  0.00    +0.000 A 
ATOM     19  C   UNL     1       4.724   5.780  17.022  0.00  0.00    +0.000 A 
ATOM     20  C   UNL     1       5.411   5.314  18.145  0.00  0.00    +0.000 A 
ATOM     21  C   UNL     1       6.671   4.727  17.969  0.00  0.00    +0.000 A 
ATOM     22  C   UNL     1       7.200   4.548  16.688  0.00  0.00    +0.000 A 
ENDBRANCH  15  20
ENDBRANCH  13  15
ENDBRANCH   1  13
TORSDOF 4
ENDMDL
