MODEL 1
REMARK VINA RESULT:      -6.6      0.000      0.000
REMARK  Name = 
REMARK  8 active torsions:
REMARK  status: ('A' for Active; 'I' for Inactive)
REMARK    1  A    between atoms: C_1  and  C_2
REMARK    2  A    between atoms: C_2  and  N_3
REMARK    3  A    between atoms: C_7  and  C_8
REMARK    4  A    between atoms: C_8  and  N_9
REMARK    5  A    between atoms: N_9  and  C_10
REMARK    6  A    between atoms: N_9  and  C_11
REMARK    7  A    between atoms: C_11  and  C_12
REMARK    8  A    between atoms: C_12  and  C_13
REMARK                            x       y       z     vdW  Elec       q    Type
REMARK                         _______ _______ _______ _____ _____    ______ ____
ROOT
ATOM      1  N   UNL     1       3.609   3.707  18.101  0.00  0.00    +0.000 NA
ATOM      2  C   UNL     1       3.304   2.289  18.310  0.00  0.00    +0.000 C 
ENDROOT
BRANCH   1   3
ATOM      3  C   UNL     1       4.980   4.038  18.552  0.00  0.00    +0.000 C 
BRANCH   3   8
ATOM      4  N   UNL     1       5.396   5.641  16.634  0.00  0.00    +0.000 NA
ATOM      5  C   UNL     1       5.954   6.901  17.145  0.00  0.00    +0.000 C 
ATOM      6  C   UNL     1       7.361   6.563  17.589  0.00  0.00    +0.000 C 
ATOM      7  C   UNL     1       7.212   5.177  18.179  0.00  0.00    +0.000 C 
ATOM      8  C   UNL     1       5.982   4.565  17.482  0.00  0.00    +0.000 C 
BRANCH   4  10
ATOM      9  C   UNL     1       6.100   3.964  14.906  0.00  0.00    +0.000 C 
ATOM     10  C   UNL     1       5.693   5.398  15.215  0.00  0.00    +0.000 C 
ENDBRANCH   4  10
ENDBRANCH   3   8
ENDBRANCH   1   3
BRANCH   1  11
ATOM     11  C   UNL     1       2.597   4.537  18.793  0.00  0.00    +0.000 C 
BRANCH  11  12
ATOM     12  C   UNL     1       3.200   5.685  19.625  0.00  0.00    +0.000 C 
BRANCH  12  13
ATOM     13  C   UNL     1       2.482   6.994  19.399  0.00  0.00    +0.000 A 
ATOM     14  C   UNL     1       2.467   7.589  18.134  0.00  0.00    +0.000 A 
ATOM     15  C   UNL     1       1.812   8.805  17.935  0.00  0.00    +0.000 A 
ATOM     16  C   UNL     1       1.160   9.438  18.997  0.00  0.00    +0.000 A 
ATOM     17 CL   UNL     1       0.373  10.942  18.676  0.00  0.00    +0.000 Cl
ATOM     18  C   UNL     1       1.165   8.849  20.265  0.00  0.00    +0.000 A 
ATOM     19 CL   UNL     1       0.386   9.571  21.629  0.00  0.00    +0.000 Cl
ATOM     20  C   UNL     1       1.822   7.629  20.462  0.00  0.00    +0.000 A 
ENDBRANCH  12  13
ENDBRANCH  11  12
ENDBRANCH   1  11
TORSDOF 6
ENDMDL
MODEL 2
REMARK VINA RESULT:      -6.5      0.934      1.168
REMARK  Name = 
REMARK  8 active torsions:
REMARK  status: ('A' for Active; 'I' for Inactive)
REMARK    1  A    between atoms: C_1  and  C_2
REMARK    2  A    between atoms: C_2  and  N_3
REMARK    3  A    between atoms: C_7  and  C_8
REMARK    4  A    between atoms: C_8  and  N_9
REMARK    5  A    between atoms: N_9  and  C_10
REMARK    6  A    between atoms: N_9  and  C_11
REMARK    7  A    between atoms: C_11  and  C_12
REMARK    8  A    between atoms: C_12  and  C_13
REMARK                            x       y       z     vdW  Elec       q    Type
REMARK                         _______ _______ _______ _____ _____    ______ ____
ROOT
ATOM      1  N   UNL     1       4.035   4.529  18.509  0.00  0.00    +0.000 NA
ATOM      2  C   UNL     1       3.295   3.275  18.674  0.00  0.00    +0.000 C 
ENDROOT
BRANCH   1   3
ATOM      3  C   UNL     1       5.375   4.453  19.137  0.00  0.00    +0.000 C 
BRANCH   3   8
ATOM      4  N   UNL     1       6.224   5.327  16.915  0.00  0.00    +0.000 NA
ATOM      5  C   UNL     1       6.479   6.771  17.008  0.00  0.00    +0.000 C 
ATOM      6  C   UNL     1       7.701   6.904  17.891  0.00  0.00    +0.000 C 
ATOM      7  C   UNL     1       7.500   5.815  18.923  0.00  0.00    +0.000 C 
ATOM      8  C   UNL     1       6.609   4.761  18.238  0.00  0.00    +0.000 C 
BRANCH   4  10
ATOM      9  C   UNL     1       6.244   4.662  14.495  0.00  0.00    +0.000 C 
ATOM     10  C   UNL     1       6.969   4.666  15.834  0.00  0.00    +0.000 C 
ENDBRANCH   4  10
ENDBRANCH   3   8
ENDBRANCH   1   3
BRANCH   1  11
ATOM     11  C   UNL     1       3.241   5.647  19.063  0.00  0.00    +0.000 C 
BRANCH  11  12
ATOM     12  C   UNL     1       3.055   6.822  18.084  0.00  0.00    +0.000 C 
BRANCH  12  13
ATOM     13  C   UNL     1       2.185   7.914  18.659  0.00  0.00    +0.000 A 
ATOM     14  C   UNL     1       1.689   8.933  17.839  0.00  0.00    +0.000 A 
ATOM     15  C   UNL     1       0.897   9.947  18.379  0.00  0.00    +0.000 A 
ATOM     16  C   UNL     1       0.586   9.953  19.741  0.00  0.00    +0.000 A 
ATOM     17 CL   UNL     1      -0.398  11.241  20.338  0.00  0.00    +0.000 Cl
ATOM     18  C   UNL     1       1.074   8.935  20.568  0.00  0.00    +0.000 A 
ATOM     19 CL   UNL     1       0.738   8.873  22.262  0.00  0.00    +0.000 Cl
ATOM     20  C   UNL     1       1.867   7.919  20.025  0.00  0.00    +0.000 A 
ENDBRANCH  12  13
ENDBRANCH  11  12
ENDBRANCH   1  11
TORSDOF 6
ENDMDL
MODEL 3
REMARK VINA RESULT:      -6.4      4.040      6.737
REMARK  Name = 
REMARK  8 active torsions:
REMARK  status: ('A' for Active; 'I' for Inactive)
REMARK    1  A    between atoms: C_1  and  C_2
REMARK    2  A    between atoms: C_2  and  N_3
REMARK    3  A    between atoms: C_7  and  C_8
REMARK    4  A    between atoms: C_8  and  N_9
REMARK    5  A    between atoms: N_9  and  C_10
REMARK    6  A    between atoms: N_9  and  C_11
REMARK    7  A    between atoms: C_11  and  C_12
REMARK    8  A    between atoms: C_12  and  C_13
REMARK                            x       y       z     vdW  Elec       q    Type
REMARK                         _______ _______ _______ _____ _____    ______ ____
ROOT
ATOM      1  N   UNL     1       3.463   5.974  18.439  0.00  0.00    +0.000 NA
ATOM      2  C   UNL     1       2.512   7.005  18.863  0.00  0.00    +0.000 C 
ENDROOT
BRANCH   1   3
ATOM      3  C   UNL     1       3.935   5.168  19.589  0.00  0.00    +0.000 C 
BRANCH   3   8
ATOM      4  N   UNL     1       2.036   3.586  19.029  0.00  0.00    +0.000 NA
ATOM      5  C   UNL     1       2.376   2.797  17.836  0.00  0.00    +0.000 C 
ATOM      6  C   UNL     1       3.463   1.844  18.285  0.00  0.00    +0.000 C 
ATOM      7  C   UNL     1       4.280   2.682  19.245  0.00  0.00    +0.000 C 
ATOM      8  C   UNL     1       3.311   3.753  19.781  0.00  0.00    +0.000 C 
BRANCH   4  10
ATOM      9  C   UNL     1       1.356   2.967  21.363  0.00  0.00    +0.000 C 
ATOM     10  C   UNL     1       1.015   2.959  19.879  0.00  0.00    +0.000 C 
ENDBRANCH   4  10
ENDBRANCH   3   8
ENDBRANCH   1   3
BRANCH   1  11
ATOM     11  C   UNL     1       4.592   6.608  17.723  0.00  0.00    +0.000 C 
BRANCH  11  12
ATOM     12  C   UNL     1       5.835   5.706  17.603  0.00  0.00    +0.000 C 
BRANCH  12  13
ATOM     13  C   UNL     1       5.977   5.105  16.225  0.00  0.00    +0.000 A 
ATOM     14  C   UNL     1       5.138   4.064  15.813  0.00  0.00    +0.000 A 
ATOM     15  C   UNL     1       5.282   3.505  14.543  0.00  0.00    +0.000 A 
ATOM     16  C   UNL     1       6.262   3.982  13.667  0.00  0.00    +0.000 A 
ATOM     17 CL   UNL     1       6.383   3.239  12.112  0.00  0.00    +0.000 Cl
ATOM     18  C   UNL     1       7.102   5.026  14.068  0.00  0.00    +0.000 A 
ATOM     19 CL   UNL     1       8.338   5.669  13.046  0.00  0.00    +0.000 Cl
ATOM     20  C   UNL     1       6.955   5.586  15.342  0.00  0.00    +0.000 A 
ENDBRANCH  12  13
ENDBRANCH  11  12
ENDBRANCH   1  11
TORSDOF 6
ENDMDL
MODEL 4
REMARK VINA RESULT:      -6.4      0.983      1.896
REMARK  Name = 
REMARK  8 active torsions:
REMARK  status: ('A' for Active; 'I' for Inactive)
REMARK    1  A    between atoms: C_1  and  C_2
REMARK    2  A    between atoms: C_2  and  N_3
REMARK    3  A    between atoms: C_7  and  C_8
REMARK    4  A    between atoms: C_8  and  N_9
REMARK    5  A    between atoms: N_9  and  C_10
REMARK    6  A    between atoms: N_9  and  C_11
REMARK    7  A    between atoms: C_11  and  C_12
REMARK    8  A    between atoms: C_12  and  C_13
REMARK                            x       y       z     vdW  Elec       q    Type
REMARK                         _______ _______ _______ _____ _____    ______ ____
ROOT
ATOM      1  N   UNL     1       3.020   3.981  18.353  0.00  0.00    +0.000 NA
ATOM      2  C   UNL     1       3.224   3.763  19.787  0.00  0.00    +0.000 C 
ENDROOT
BRANCH   1   3
ATOM      3  C   UNL     1       4.224   3.611  17.573  0.00  0.00    +0.000 C 
BRANCH   3   8
ATOM      4  N   UNL     1       6.133   5.268  17.395  0.00  0.00    +0.000 NA
ATOM      5  C   UNL     1       7.269   4.651  16.696  0.00  0.00    +0.000 C 
ATOM      6  C   UNL     1       6.826   4.519  15.255  0.00  0.00    +0.000 C 
ATOM      7  C   UNL     1       5.361   4.159  15.376  0.00  0.00    +0.000 C 
ATOM      8  C   UNL     1       4.911   4.730  16.735  0.00  0.00    +0.000 C 
BRANCH   4  10
ATOM      9  C   UNL     1       7.505   7.358  17.611  0.00  0.00    +0.000 C 
ATOM     10  C   UNL     1       6.139   6.737  17.349  0.00  0.00    +0.000 C 
ENDBRANCH   4  10
ENDBRANCH   3   8
ENDBRANCH   1   3
BRANCH   1  11
ATOM     11  C   UNL     1       2.637   5.391  18.117  0.00  0.00    +0.000 C 
BRANCH  11  12
ATOM     12  C   UNL     1       3.031   6.341  19.264  0.00  0.00    +0.000 C 
BRANCH  12  13
ATOM     13  C   UNL     1       2.235   7.624  19.244  0.00  0.00    +0.000 A 
ATOM     14  C   UNL     1       2.102   8.361  18.063  0.00  0.00    +0.000 A 
ATOM     15  C   UNL     1       1.376   9.552  18.054  0.00  0.00    +0.000 A 
ATOM     16  C   UNL     1       0.769  10.019  19.224  0.00  0.00    +0.000 A 
ATOM     17 CL   UNL     1      -0.112  11.502  19.138  0.00  0.00    +0.000 Cl
ATOM     18  C   UNL     1       0.891   9.286  20.409  0.00  0.00    +0.000 A 
ATOM     19 CL   UNL     1       0.175   9.797  21.896  0.00  0.00    +0.000 Cl
ATOM     20  C   UNL     1       1.620   8.091  20.415  0.00  0.00    +0.000 A 
ENDBRANCH  12  13
ENDBRANCH  11  12
ENDBRANCH   1  11
TORSDOF 6
ENDMDL
MODEL 5
REMARK VINA RESULT:      -6.3      0.948      1.812
REMARK  Name = 
REMARK  8 active torsions:
REMARK  status: ('A' for Active; 'I' for Inactive)
REMARK    1  A    between atoms: C_1  and  C_2
REMARK    2  A    between atoms: C_2  and  N_3
REMARK    3  A    between atoms: C_7  and  C_8
REMARK    4  A    between atoms: C_8  and  N_9
REMARK    5  A    between atoms: N_9  and  C_10
REMARK    6  A    between atoms: N_9  and  C_11
REMARK    7  A    between atoms: C_11  and  C_12
REMARK    8  A    between atoms: C_12  and  C_13
REMARK                            x       y       z     vdW  Elec       q    Type
REMARK                         _______ _______ _______ _____ _____    ______ ____
ROOT
ATOM      1  N   UNL     1       3.609   4.353  18.361  0.00  0.00    +0.000 NA
ATOM      2  C   UNL     1       3.042   3.205  19.074  0.00  0.00    +0.000 C 
ENDROOT
BRANCH   1   3
ATOM      3  C   UNL     1       4.724   4.965  19.120  0.00  0.00    +0.000 C 
BRANCH   3   8
ATOM      4  N   UNL     1       6.217   5.397  17.118  0.00  0.00    +0.000 NA
ATOM      5  C   UNL     1       6.833   6.727  17.230  0.00  0.00    +0.000 C 
ATOM      6  C   UNL     1       7.836   6.608  18.356  0.00  0.00    +0.000 C 
ATOM      7  C   UNL     1       7.138   5.700  19.345  0.00  0.00    +0.000 C 
ATOM      8  C   UNL     1       6.153   4.862  18.507  0.00  0.00    +0.000 C 
BRANCH   4  10
ATOM      9  C   UNL     1       6.489   4.486  14.796  0.00  0.00    +0.000 C 
ATOM     10  C   UNL     1       6.958   4.476  16.245  0.00  0.00    +0.000 C 
ENDBRANCH   4  10
ENDBRANCH   3   8
ENDBRANCH   1   3
BRANCH   1  11
ATOM     11  C   UNL     1       2.540   5.338  18.083  0.00  0.00    +0.000 C 
BRANCH  11  12
ATOM     12  C   UNL     1       3.038   6.794  18.026  0.00  0.00    +0.000 C 
BRANCH  12  13
ATOM     13  C   UNL     1       2.239   7.708  18.924  0.00  0.00    +0.000 A 
ATOM     14  C   UNL     1       1.940   7.332  20.238  0.00  0.00    +0.000 A 
ATOM     15  C   UNL     1       1.190   8.176  21.058  0.00  0.00    +0.000 A 
ATOM     16  C   UNL     1       0.734   9.407  20.578  0.00  0.00    +0.000 A 
ATOM     17 CL   UNL     1      -0.190  10.398  21.650  0.00  0.00    +0.000 Cl
ATOM     18  C   UNL     1       1.033   9.795  19.267  0.00  0.00    +0.000 A 
ATOM     19 CL   UNL     1       0.503  11.298  18.600  0.00  0.00    +0.000 Cl
ATOM     20  C   UNL     1       1.785   8.947  18.447  0.00  0.00    +0.000 A 
ENDBRANCH  12  13
ENDBRANCH  11  12
ENDBRANCH   1  11
TORSDOF 6
ENDMDL
MODEL 6
REMARK VINA RESULT:      -6.2      0.847      1.627
REMARK  Name = 
REMARK  8 active torsions:
REMARK  status: ('A' for Active; 'I' for Inactive)
REMARK    1  A    between atoms: C_1  and  C_2
REMARK    2  A    between atoms: C_2  and  N_3
REMARK    3  A    between atoms: C_7  and  C_8
REMARK    4  A    between atoms: C_8  and  N_9
REMARK    5  A    between atoms: N_9  and  C_10
REMARK    6  A    between atoms: N_9  and  C_11
REMARK    7  A    between atoms: C_11  and  C_12
REMARK    8  A    between atoms: C_12  and  C_13
REMARK                            x       y       z     vdW  Elec       q    Type
REMARK                         _______ _______ _______ _____ _____    ______ ____
ROOT
ATOM      1  N   UNL     1       3.666   3.513  17.633  0.00  0.00    +0.000 NA
ATOM      2  C   UNL     1       3.338   2.114  17.921  0.00  0.00    +0.000 C 
ENDROOT
BRANCH   1   3
ATOM      3  C   UNL     1       4.990   3.883  18.186  0.00  0.00    +0.000 C 
BRANCH   3   8
ATOM      4  N   UNL     1       5.445   5.568  16.348  0.00  0.00    +0.000 NA
ATOM      5  C   UNL     1       5.890   6.840  16.933  0.00  0.00    +0.000 C 
ATOM      6  C   UNL     1       7.280   6.568  17.467  0.00  0.00    +0.000 C 
ATOM      7  C   UNL     1       7.172   5.158  18.006  0.00  0.00    +0.000 C 
ATOM      8  C   UNL     1       6.031   4.500  17.205  0.00  0.00    +0.000 C 
BRANCH   4  10
ATOM      9  C   UNL     1       6.184   3.947  14.581  0.00  0.00    +0.000 C 
ATOM     10  C   UNL     1       5.854   5.387  14.948  0.00  0.00    +0.000 C 
ENDBRANCH   4  10
ENDBRANCH   3   8
ENDBRANCH   1   3
BRANCH   1  11
ATOM     11  C   UNL     1       2.597   4.389  18.161  0.00  0.00    +0.000 C 
BRANCH  11  12
ATOM     12  C   UNL     1       2.894   4.957  19.562  0.00  0.00    +0.000 C 
BRANCH  12  13
ATOM     13  C   UNL     1       2.314   6.338  19.756  0.00  0.00    +0.000 A 
ATOM     14  C   UNL     1       1.651   6.671  20.941  0.00  0.00    +0.000 A 
ATOM     15  C   UNL     1       1.107   7.945  21.109  0.00  0.00    +0.000 A 
ATOM     16  C   UNL     1       1.222   8.902  20.097  0.00  0.00    +0.000 A 
ATOM     17 CL   UNL     1       0.521  10.457  20.375  0.00  0.00    +0.000 Cl
ATOM     18  C   UNL     1       1.888   8.580  18.910  0.00  0.00    +0.000 A 
ATOM     19 CL   UNL     1       2.069   9.706  17.611  0.00  0.00    +0.000 Cl
ATOM     20  C   UNL     1       2.434   7.302  18.744  0.00  0.00    +0.000 A 
ENDBRANCH  12  13
ENDBRANCH  11  12
ENDBRANCH   1  11
TORSDOF 6
ENDMDL
MODEL 7
REMARK VINA RESULT:      -6.2      1.325      2.237
REMARK  Name = 
REMARK  8 active torsions:
REMARK  status: ('A' for Active; 'I' for Inactive)
REMARK    1  A    between atoms: C_1  and  C_2
REMARK    2  A    between atoms: C_2  and  N_3
REMARK    3  A    between atoms: C_7  and  C_8
REMARK    4  A    between atoms: C_8  and  N_9
REMARK    5  A    between atoms: N_9  and  C_10
REMARK    6  A    between atoms: N_9  and  C_11
REMARK    7  A    between atoms: C_11  and  C_12
REMARK    8  A    between atoms: C_12  and  C_13
REMARK                            x       y       z     vdW  Elec       q    Type
REMARK                         _______ _______ _______ _____ _____    ______ ____
ROOT
ATOM      1  N   UNL     1       4.827   3.154  18.657  0.00  0.00    +0.000 NA
ATOM      2  C   UNL     1       4.345   2.442  19.844  0.00  0.00    +0.000 C 
ENDROOT
BRANCH   1   3
ATOM      3  C   UNL     1       5.570   4.382  19.027  0.00  0.00    +0.000 C 
BRANCH   3   8
ATOM      4  N   UNL     1       6.228   5.373  16.790  0.00  0.00    +0.000 NA
ATOM      5  C   UNL     1       6.330   6.835  16.899  0.00  0.00    +0.000 C 
ATOM      6  C   UNL     1       7.566   7.087  17.735  0.00  0.00    +0.000 C 
ATOM      7  C   UNL     1       7.526   5.969  18.754  0.00  0.00    +0.000 C 
ATOM      8  C   UNL     1       6.726   4.834  18.086  0.00  0.00    +0.000 C 
BRANCH   4  10
ATOM      9  C   UNL     1       6.159   4.528  14.428  0.00  0.00    +0.000 C 
ATOM     10  C   UNL     1       6.995   4.811  15.669  0.00  0.00    +0.000 C 
ENDBRANCH   4  10
ENDBRANCH   3   8
ENDBRANCH   1   3
BRANCH   1  11
ATOM     11  C   UNL     1       3.685   3.462  17.768  0.00  0.00    +0.000 C 
BRANCH  11  12
ATOM     12  C   UNL     1       2.340   3.590  18.507  0.00  0.00    +0.000 C 
BRANCH  12  13
ATOM     13  C   UNL     1       2.131   4.970  19.083  0.00  0.00    +0.000 A 
ATOM     14  C   UNL     1       1.662   5.132  20.391  0.00  0.00    +0.000 A 
ATOM     15  C   UNL     1       1.459   6.410  20.913  0.00  0.00    +0.000 A 
ATOM     16  C   UNL     1       1.728   7.541  20.137  0.00  0.00    +0.000 A 
ATOM     17 CL   UNL     1       1.451   9.091  20.849  0.00  0.00    +0.000 Cl
ATOM     18  C   UNL     1       2.203   7.390  18.830  0.00  0.00    +0.000 A 
ATOM     19 CL   UNL     1       2.554   8.737  17.807  0.00  0.00    +0.000 Cl
ATOM     20  C   UNL     1       2.406   6.107  18.309  0.00  0.00    +0.000 A 
ENDBRANCH  12  13
ENDBRANCH  11  12
ENDBRANCH   1  11
TORSDOF 6
ENDMDL
MODEL 8
REMARK VINA RESULT:      -6.2      1.956      4.229
REMARK  Name = 
REMARK  8 active torsions:
REMARK  status: ('A' for Active; 'I' for Inactive)
REMARK    1  A    between atoms: C_1  and  C_2
REMARK    2  A    between atoms: C_2  and  N_3
REMARK    3  A    between atoms: C_7  and  C_8
REMARK    4  A    between atoms: C_8  and  N_9
REMARK    5  A    between atoms: N_9  and  C_10
REMARK    6  A    between atoms: N_9  and  C_11
REMARK    7  A    between atoms: C_11  and  C_12
REMARK    8  A    between atoms: C_12  and  C_13
REMARK                            x       y       z     vdW  Elec       q    Type
REMARK                         _______ _______ _______ _____ _____    ______ ____
ROOT
ATOM      1  N   UNL     1       3.685   6.352  18.479  0.00  0.00    +0.000 NA
ATOM      2  C   UNL     1       4.314   5.723  17.315  0.00  0.00    +0.000 C 
ENDROOT
BRANCH   1   3
ATOM      3  C   UNL     1       3.620   5.420  19.629  0.00  0.00    +0.000 C 
BRANCH   3   8
ATOM      4  N   UNL     1       3.137   2.943  19.855  0.00  0.00    +0.000 NA
ATOM      5  C   UNL     1       2.765   2.629  21.242  0.00  0.00    +0.000 C 
ATOM      6  C   UNL     1       1.395   3.240  21.436  0.00  0.00    +0.000 C 
ATOM      7  C   UNL     1       1.478   4.530  20.649  0.00  0.00    +0.000 C 
ATOM      8  C   UNL     1       2.555   4.285  19.574  0.00  0.00    +0.000 C 
BRANCH   4  10
ATOM      9  C   UNL     1       3.501   1.874  17.615  0.00  0.00    +0.000 C 
ATOM     10  C   UNL     1       2.655   1.956  18.879  0.00  0.00    +0.000 C 
ENDBRANCH   4  10
ENDBRANCH   3   8
ENDBRANCH   1   3
BRANCH   1  11
ATOM     11  C   UNL     1       2.341   6.847  18.107  0.00  0.00    +0.000 C 
BRANCH  11  12
ATOM     12  C   UNL     1       2.219   8.382  18.121  0.00  0.00    +0.000 C 
BRANCH  12  13
ATOM     13  C   UNL     1       1.454   8.886  19.322  0.00  0.00    +0.000 A 
ATOM     14  C   UNL     1       1.581   8.253  20.563  0.00  0.00    +0.000 A 
ATOM     15  C   UNL     1       0.862   8.715  21.665  0.00  0.00    +0.000 A 
ATOM     16  C   UNL     1       0.011   9.817  21.543  0.00  0.00    +0.000 A 
ATOM     17 CL   UNL     1      -0.849  10.331  22.950  0.00  0.00    +0.000 Cl
ATOM     18  C   UNL     1      -0.119  10.460  20.307  0.00  0.00    +0.000 A 
ATOM     19 CL   UNL     1      -1.153  11.825  20.074  0.00  0.00    +0.000 Cl
ATOM     20  C   UNL     1       0.604   9.995  19.203  0.00  0.00    +0.000 A 
ENDBRANCH  12  13
ENDBRANCH  11  12
ENDBRANCH   1  11
TORSDOF 6
ENDMDL
MODEL 9
REMARK VINA RESULT:      -6.2      1.988      4.045
REMARK  Name = 
REMARK  8 active torsions:
REMARK  status: ('A' for Active; 'I' for Inactive)
REMARK    1  A    between atoms: C_1  and  C_2
REMARK    2  A    between atoms: C_2  and  N_3
REMARK    3  A    between atoms: C_7  and  C_8
REMARK    4  A    between atoms: C_8  and  N_9
REMARK    5  A    between atoms: N_9  and  C_10
REMARK    6  A    between atoms: N_9  and  C_11
REMARK    7  A    between atoms: C_11  and  C_12
REMARK    8  A    between atoms: C_12  and  C_13
REMARK                            x       y       z     vdW  Elec       q    Type
REMARK                         _______ _______ _______ _____ _____    ______ ____
ROOT
ATOM      1  N   UNL     1       3.717   6.246  18.493  0.00  0.00    +0.000 NA
ATOM      2  C   UNL     1       4.317   5.518  17.371  0.00  0.00    +0.000 C 
ENDROOT
BRANCH   1   3
ATOM      3  C   UNL     1       3.576   5.379  19.686  0.00  0.00    +0.000 C 
BRANCH   3   8
ATOM      4  N   UNL     1       3.290   2.872  19.920  0.00  0.00    +0.000 NA
ATOM      5  C   UNL     1       2.851   2.542  21.284  0.00  0.00    +0.000 C 
ATOM      6  C   UNL     1       1.423   3.035  21.373  0.00  0.00    +0.000 C 
ATOM      7  C   UNL     1       1.452   4.319  20.572  0.00  0.00    +0.000 C 
ATOM      8  C   UNL     1       2.617   4.155  19.577  0.00  0.00    +0.000 C 
BRANCH   4  10
ATOM      9  C   UNL     1       2.453   2.389  17.605  0.00  0.00    +0.000 C 
ATOM     10  C   UNL     1       2.963   1.837  18.930  0.00  0.00    +0.000 C 
ENDBRANCH   4  10
ENDBRANCH   3   8
ENDBRANCH   1   3
BRANCH   1  11
ATOM     11  C   UNL     1       2.412   6.807  18.076  0.00  0.00    +0.000 C 
BRANCH  11  12
ATOM     12  C   UNL     1       2.452   8.319  17.786  0.00  0.00    +0.000 C 
BRANCH  12  13
ATOM     13  C   UNL     1       1.514   9.098  18.678  0.00  0.00    +0.000 A 
ATOM     14  C   UNL     1       0.707  10.111  18.150  0.00  0.00    +0.000 A 
ATOM     15  C   UNL     1      -0.147  10.836  18.981  0.00  0.00    +0.000 A 
ATOM     16  C   UNL     1      -0.211  10.553  20.349  0.00  0.00    +0.000 A 
ATOM     17 CL   UNL     1      -1.291  11.493  21.316  0.00  0.00    +0.000 Cl
ATOM     18  C   UNL     1       0.588   9.538  20.885  0.00  0.00    +0.000 A 
ATOM     19 CL   UNL     1       0.569   9.132  22.565  0.00  0.00    +0.000 Cl
ATOM     20  C   UNL     1       1.444   8.812  20.050  0.00  0.00    +0.000 A 
ENDBRANCH  12  13
ENDBRANCH  11  12
ENDBRANCH   1  11
TORSDOF 6
ENDMDL
