MODEL 1
REMARK VINA RESULT:      -7.4      0.000      0.000
REMARK  Name = 
REMARK  10 active torsions:
REMARK  status: ('A' for Active; 'I' for Inactive)
REMARK    1  A    between atoms: C_1  and  C_2
REMARK    2  A    between atoms: C_12  and  O_13
REMARK    3  A    between atoms: O_13  and  C_14
REMARK    4  A    between atoms: C_14  and  C_15
REMARK    5  A    between atoms: C_15  and  N_16
REMARK    6  A    between atoms: N_16  and  C_17
REMARK    7  A    between atoms: N_16  and  C_18
REMARK    8  A    between atoms: C_21  and  C_23
REMARK    9  A    between atoms: C_26  and  C_27
REMARK   10  A    between atoms: C_27  and  O_29
REMARK                            x       y       z     vdW  Elec       q    Type
REMARK                         _______ _______ _______ _____ _____    ______ ____
ROOT
ATOM      1  C   UNL     1       3.018  15.341  17.869  0.00  0.00    +0.000 C 
ATOM      2  C   UNL     1       2.376  14.389  18.843  0.00  0.00    +0.000 A 
ATOM      3  C   UNL     1       2.291  13.014  18.560  0.00  0.00    +0.000 A 
ATOM      4  C   UNL     1       1.706  12.121  19.485  0.00  0.00    +0.000 A 
ATOM      5  C   UNL     1       1.606  10.727  19.257  0.00  0.00    +0.000 A 
ATOM      6  C   UNL     1       1.039   9.910  20.270  0.00  0.00    +0.000 A 
ATOM      7  C   UNL     1       0.528  10.524  21.425  0.00  0.00    +0.000 A 
ATOM      8  O   UNL     1       0.007   9.855  22.300  0.00  0.00    +0.000 OA
ATOM      9  O   UNL     1       0.623  11.834  21.585  0.00  0.00    +0.000 OA
ATOM     10  C   UNL     1       1.190  12.635  20.693  0.00  0.00    +0.000 A 
ATOM     11  C   UNL     1       1.266  13.999  20.966  0.00  0.00    +0.000 A 
ATOM     12  C   UNL     1       1.863  14.885  20.051  0.00  0.00    +0.000 A 
ATOM     13  C   UNL     1       0.980   8.400  20.131  0.00  0.00    +0.000 C 
ATOM     14  N   UNL     1       1.780   7.938  18.998  0.00  0.00    +0.000 N 
ATOM     15  C   UNL     1       2.618   6.842  19.101  0.00  0.00    +0.000 C 
ATOM     16  O   UNL     1       2.618   6.193  20.139  0.00  0.00    +0.000 OA
ATOM     17  C   UNL     1       1.536   8.686  17.778  0.00  0.00    +0.000 C 
ATOM     18  C   UNL     1       2.085  10.105  17.961  0.00  0.00    +0.000 C 
ENDROOT
BRANCH  15  19
ATOM     19  C   UNL     1       3.465   6.318  17.976  0.00  0.00    +0.000 A 
ATOM     20  C   UNL     1       3.473   4.967  17.588  0.00  0.00    +0.000 A 
ATOM     21  C   UNL     1       4.363   4.499  16.630  0.00  0.00    +0.000 A 
ATOM     22  C   UNL     1       5.264   5.366  15.997  0.00  0.00    +0.000 A 
ATOM     23  C   UNL     1       5.198   6.738  16.308  0.00  0.00    +0.000 A 
ATOM     24  C   UNL     1       4.302   7.207  17.277  0.00  0.00    +0.000 A 
BRANCH  22  25
ATOM     25  C   UNL     1       6.265   4.802  15.043  0.00  0.00    +0.000 C 
ATOM     26  O   UNL     1       7.429   5.167  15.111  0.00  0.00    +0.000 OA
BRANCH  25  27
ATOM     27  O   UNL     1       5.928   3.938  14.060  0.00  0.00    +0.000 OA
ATOM     28  H   UNL     1       6.383   3.105  13.892  0.00  0.00    +0.000 HD
ENDBRANCH  25  27
ENDBRANCH  22  25
ENDBRANCH  15  19
BRANCH  12  29
ATOM     29  O   UNL     1       1.973  16.213  20.307  0.00  0.00    +0.000 OA
BRANCH  29  30
ATOM     30  C   UNL     1       0.948  17.014  20.759  0.00  0.00    +0.000 C 
BRANCH  30  31
ATOM     31  C   UNL     1       0.627  18.086  19.719  0.00  0.00    +0.000 C 
BRANCH  31  32
ATOM     32  N   UNL     1      -0.723  17.908  19.139  0.00  0.00    +0.000 NA
ATOM     33  C   UNL     1      -0.677  17.394  17.757  0.00  0.00    +0.000 C 
ATOM     34  C   UNL     1      -1.503  16.986  19.978  0.00  0.00    +0.000 C 
ENDBRANCH  31  32
ENDBRANCH  30  31
ENDBRANCH  29  30
ENDBRANCH  12  29
TORSDOF 7
ENDMDL
MODEL 2
REMARK VINA RESULT:      -7.3      2.005      2.623
REMARK  Name = 
REMARK  10 active torsions:
REMARK  status: ('A' for Active; 'I' for Inactive)
REMARK    1  A    between atoms: C_1  and  C_2
REMARK    2  A    between atoms: C_12  and  O_13
REMARK    3  A    between atoms: O_13  and  C_14
REMARK    4  A    between atoms: C_14  and  C_15
REMARK    5  A    between atoms: C_15  and  N_16
REMARK    6  A    between atoms: N_16  and  C_17
REMARK    7  A    between atoms: N_16  and  C_18
REMARK    8  A    between atoms: C_21  and  C_23
REMARK    9  A    between atoms: C_26  and  C_27
REMARK   10  A    between atoms: C_27  and  O_29
REMARK                            x       y       z     vdW  Elec       q    Type
REMARK                         _______ _______ _______ _____ _____    ______ ____
ROOT
ATOM      1  C   UNL     1       3.592  15.707  17.221  0.00  0.00    +0.000 C 
ATOM      2  C   UNL     1       2.831  14.991  18.306  0.00  0.00    +0.000 A 
ATOM      3  C   UNL     1       2.559  13.614  18.208  0.00  0.00    +0.000 A 
ATOM      4  C   UNL     1       1.864  12.941  19.238  0.00  0.00    +0.000 A 
ATOM      5  C   UNL     1       1.575  11.556  19.198  0.00  0.00    +0.000 A 
ATOM      6  C   UNL     1       0.907  10.968  20.304  0.00  0.00    +0.000 A 
ATOM      7  C   UNL     1       0.490  11.795  21.358  0.00  0.00    +0.000 A 
ATOM      8  O   UNL     1      -0.113  11.326  22.309  0.00  0.00    +0.000 OA
ATOM      9  O   UNL     1       0.761  13.090  21.342  0.00  0.00    +0.000 OA
ATOM     10  C   UNL     1       1.427  13.679  20.358  0.00  0.00    +0.000 A 
ATOM     11  C   UNL     1       1.689  15.045  20.446  0.00  0.00    +0.000 A 
ATOM     12  C   UNL     1       2.395  15.710  19.429  0.00  0.00    +0.000 A 
ATOM     13  C   UNL     1       0.644   9.474  20.368  0.00  0.00    +0.000 C 
ATOM     14  N   UNL     1       1.369   8.759  19.319  0.00  0.00    +0.000 N 
ATOM     15  C   UNL     1       2.052   7.585  19.581  0.00  0.00    +0.000 C 
ATOM     16  O   UNL     1       1.968   7.088  20.696  0.00  0.00    +0.000 OA
ATOM     17  C   UNL     1       1.222   9.362  18.007  0.00  0.00    +0.000 C 
ATOM     18  C   UNL     1       1.959  10.706  18.004  0.00  0.00    +0.000 C 
ENDROOT
BRANCH  15  19
ATOM     19  C   UNL     1       2.814   6.804  18.548  0.00  0.00    +0.000 A 
ATOM     20  C   UNL     1       2.557   5.451  18.266  0.00  0.00    +0.000 A 
ATOM     21  C   UNL     1       3.367   4.731  17.398  0.00  0.00    +0.000 A 
ATOM     22  C   UNL     1       4.452   5.338  16.752  0.00  0.00    +0.000 A 
ATOM     23  C   UNL     1       4.661   6.717  16.952  0.00  0.00    +0.000 A 
ATOM     24  C   UNL     1       3.844   7.441  17.831  0.00  0.00    +0.000 A 
BRANCH  22  25
ATOM     25  C   UNL     1       5.351   4.502  15.901  0.00  0.00    +0.000 C 
ATOM     26  O   UNL     1       5.319   4.634  14.687  0.00  0.00    +0.000 OA
BRANCH  25  27
ATOM     27  O   UNL     1       6.169   3.557  16.414  0.00  0.00    +0.000 OA
ATOM     28  H   UNL     1       7.053   3.367  16.082  0.00  0.00    +0.000 HD
ENDBRANCH  25  27
ENDBRANCH  22  25
ENDBRANCH  15  19
BRANCH  12  29
ATOM     29  O   UNL     1       2.685  17.034  19.504  0.00  0.00    +0.000 OA
BRANCH  29  30
ATOM     30  C   UNL     1       3.290  17.646  20.579  0.00  0.00    +0.000 C 
BRANCH  30  31
ATOM     31  C   UNL     1       4.728  17.149  20.719  0.00  0.00    +0.000 C 
BRANCH  31  32
ATOM     32  N   UNL     1       4.901  16.278  21.902  0.00  0.00    +0.000 NA
ATOM     33  C   UNL     1       5.340  14.918  21.538  0.00  0.00    +0.000 C 
ATOM     34  C   UNL     1       5.880  16.879  22.820  0.00  0.00    +0.000 C 
ENDBRANCH  31  32
ENDBRANCH  30  31
ENDBRANCH  29  30
ENDBRANCH  12  29
TORSDOF 7
ENDMDL
MODEL 3
REMARK VINA RESULT:      -7.2      1.280      1.541
REMARK  Name = 
REMARK  10 active torsions:
REMARK  status: ('A' for Active; 'I' for Inactive)
REMARK    1  A    between atoms: C_1  and  C_2
REMARK    2  A    between atoms: C_12  and  O_13
REMARK    3  A    between atoms: O_13  and  C_14
REMARK    4  A    between atoms: C_14  and  C_15
REMARK    5  A    between atoms: C_15  and  N_16
REMARK    6  A    between atoms: N_16  and  C_17
REMARK    7  A    between atoms: N_16  and  C_18
REMARK    8  A    between atoms: C_21  and  C_23
REMARK    9  A    between atoms: C_26  and  C_27
REMARK   10  A    between atoms: C_27  and  O_29
REMARK                            x       y       z     vdW  Elec       q    Type
REMARK                         _______ _______ _______ _____ _____    ______ ____
ROOT
ATOM      1  C   UNL     1       2.353  14.844  17.819  0.00  0.00    +0.000 C 
ATOM      2  C   UNL     1       1.894  13.826  18.831  0.00  0.00    +0.000 A 
ATOM      3  C   UNL     1       1.955  12.450  18.548  0.00  0.00    +0.000 A 
ATOM      4  C   UNL     1       1.544  11.497  19.506  0.00  0.00    +0.000 A 
ATOM      5  C   UNL     1       1.595  10.100  19.280  0.00  0.00    +0.000 A 
ATOM      6  C   UNL     1       1.198   9.226  20.325  0.00  0.00    +0.000 A 
ATOM      7  C   UNL     1       0.696   9.779  21.514  0.00  0.00    +0.000 A 
ATOM      8  O   UNL     1       0.318   9.055  22.419  0.00  0.00    +0.000 OA
ATOM      9  O   UNL     1       0.644  11.091  21.673  0.00  0.00    +0.000 OA
ATOM     10  C   UNL     1       1.051  11.951  20.748  0.00  0.00    +0.000 A 
ATOM     11  C   UNL     1       0.983  13.315  21.021  0.00  0.00    +0.000 A 
ATOM     12  C   UNL     1       1.408  14.262  20.072  0.00  0.00    +0.000 A 
ATOM     13  C   UNL     1       1.310   7.718  20.184  0.00  0.00    +0.000 C 
ATOM     14  N   UNL     1       2.082   7.350  18.998  0.00  0.00    +0.000 N 
ATOM     15  C   UNL     1       3.050   6.363  19.041  0.00  0.00    +0.000 C 
ATOM     16  O   UNL     1       3.196   5.722  20.074  0.00  0.00    +0.000 OA
ATOM     17  C   UNL     1       1.670   8.060  17.801  0.00  0.00    +0.000 C 
ATOM     18  C   UNL     1       2.057   9.535  17.952  0.00  0.00    +0.000 C 
ENDROOT
BRANCH  15  19
ATOM     19  C   UNL     1       3.876   5.939  17.860  0.00  0.00    +0.000 A 
ATOM     20  C   UNL     1       3.840   4.639  17.327  0.00  0.00    +0.000 A 
ATOM     21  C   UNL     1       4.712   4.251  16.318  0.00  0.00    +0.000 A 
ATOM     22  C   UNL     1       5.638   5.153  15.778  0.00  0.00    +0.000 A 
ATOM     23  C   UNL     1       5.617   6.485  16.237  0.00  0.00    +0.000 A 
ATOM     24  C   UNL     1       4.739   6.873  17.257  0.00  0.00    +0.000 A 
BRANCH  22  25
ATOM     25  C   UNL     1       6.618   4.666  14.761  0.00  0.00    +0.000 C 
ATOM     26  O   UNL     1       7.618   5.328  14.527  0.00  0.00    +0.000 OA
BRANCH  25  27
ATOM     27  O   UNL     1       6.420   3.541  14.038  0.00  0.00    +0.000 OA
ATOM     28  H   UNL     1       5.686   2.932  14.175  0.00  0.00    +0.000 HD
ENDBRANCH  25  27
ENDBRANCH  22  25
ENDBRANCH  15  19
BRANCH  12  29
ATOM     29  O   UNL     1       1.375  15.595  20.325  0.00  0.00    +0.000 OA
BRANCH  29  30
ATOM     30  C   UNL     1       1.354  16.156  21.582  0.00  0.00    +0.000 C 
BRANCH  30  31
ATOM     31  C   UNL     1       0.364  17.320  21.616  0.00  0.00    +0.000 C 
BRANCH  31  32
ATOM     32  N   UNL     1      -0.500  17.277  22.817  0.00  0.00    +0.000 NA
ATOM     33  C   UNL     1      -1.592  16.293  22.687  0.00  0.00    +0.000 C 
ATOM     34  C   UNL     1       0.313  16.953  23.999  0.00  0.00    +0.000 C 
ENDBRANCH  31  32
ENDBRANCH  30  31
ENDBRANCH  29  30
ENDBRANCH  12  29
TORSDOF 7
ENDMDL
MODEL 4
REMARK VINA RESULT:      -7.2      1.313      1.791
REMARK  Name = 
REMARK  10 active torsions:
REMARK  status: ('A' for Active; 'I' for Inactive)
REMARK    1  A    between atoms: C_1  and  C_2
REMARK    2  A    between atoms: C_12  and  O_13
REMARK    3  A    between atoms: O_13  and  C_14
REMARK    4  A    between atoms: C_14  and  C_15
REMARK    5  A    between atoms: C_15  and  N_16
REMARK    6  A    between atoms: N_16  and  C_17
REMARK    7  A    between atoms: N_16  and  C_18
REMARK    8  A    between atoms: C_21  and  C_23
REMARK    9  A    between atoms: C_26  and  C_27
REMARK   10  A    between atoms: C_27  and  O_29
REMARK                            x       y       z     vdW  Elec       q    Type
REMARK                         _______ _______ _______ _____ _____    ______ ____
ROOT
ATOM      1  C   UNL     1       2.374  14.431  17.798  0.00  0.00    +0.000 C 
ATOM      2  C   UNL     1       1.870  13.395  18.767  0.00  0.00    +0.000 A 
ATOM      3  C   UNL     1       2.022  12.022  18.499  0.00  0.00    +0.000 A 
ATOM      4  C   UNL     1       1.566  11.052  19.419  0.00  0.00    +0.000 A 
ATOM      5  C   UNL     1       1.704   9.659  19.207  0.00  0.00    +0.000 A 
ATOM      6  C   UNL     1       1.251   8.768  20.215  0.00  0.00    +0.000 A 
ATOM      7  C   UNL     1       0.613   9.298  21.346  0.00  0.00    +0.000 A 
ATOM      8  O   UNL     1       0.184   8.558  22.216  0.00  0.00    +0.000 OA
ATOM      9  O   UNL     1       0.484  10.607  21.492  0.00  0.00    +0.000 OA
ATOM     10  C   UNL     1       0.937  11.483  20.606  0.00  0.00    +0.000 A 
ATOM     11  C   UNL     1       0.779  12.844  20.863  0.00  0.00    +0.000 A 
ATOM     12  C   UNL     1       1.247  13.808  19.954  0.00  0.00    +0.000 A 
ATOM     13  C   UNL     1       1.446   7.267  20.093  0.00  0.00    +0.000 C 
ATOM     14  N   UNL     1       2.344   6.935  18.988  0.00  0.00    +0.000 N 
ATOM     15  C   UNL     1       3.349   5.994  19.128  0.00  0.00    +0.000 C 
ATOM     16  O   UNL     1       3.426   5.362  20.174  0.00  0.00    +0.000 OA
ATOM     17  C   UNL     1       2.015   7.623  17.753  0.00  0.00    +0.000 C 
ATOM     18  C   UNL     1       2.317   9.115  17.932  0.00  0.00    +0.000 C 
ENDROOT
BRANCH  15  19
ATOM     19  C   UNL     1       4.302   5.608  18.033  0.00  0.00    +0.000 A 
ATOM     20  C   UNL     1       5.375   6.422  17.629  0.00  0.00    +0.000 A 
ATOM     21  C   UNL     1       6.154   6.090  16.529  0.00  0.00    +0.000 A 
ATOM     22  C   UNL     1       5.915   4.917  15.801  0.00  0.00    +0.000 A 
ATOM     23  C   UNL     1       4.905   4.045  16.256  0.00  0.00    +0.000 A 
ATOM     24  C   UNL     1       4.118   4.384  17.364  0.00  0.00    +0.000 A 
BRANCH  22  25
ATOM     25  C   UNL     1       6.718   4.648  14.571  0.00  0.00    +0.000 C 
ATOM     26  O   UNL     1       7.621   5.412  14.266  0.00  0.00    +0.000 OA
BRANCH  25  27
ATOM     27  O   UNL     1       6.453   3.616  13.739  0.00  0.00    +0.000 OA
ATOM     28  H   UNL     1       6.375   3.698  12.783  0.00  0.00    +0.000 HD
ENDBRANCH  25  27
ENDBRANCH  22  25
ENDBRANCH  15  19
BRANCH  12  29
ATOM     29  O   UNL     1       1.128  15.138  20.196  0.00  0.00    +0.000 OA
BRANCH  29  30
ATOM     30  C   UNL     1       0.095  15.721  20.894  0.00  0.00    +0.000 C 
BRANCH  30  31
ATOM     31  C   UNL     1      -1.092  15.963  19.963  0.00  0.00    +0.000 C 
BRANCH  31  32
ATOM     32  N   UNL     1      -2.380  15.618  20.607  0.00  0.00    +0.000 NA
ATOM     33  C   UNL     1      -2.195  14.920  21.893  0.00  0.00    +0.000 C 
ATOM     34  C   UNL     1      -3.166  16.842  20.824  0.00  0.00    +0.000 C 
ENDBRANCH  31  32
ENDBRANCH  30  31
ENDBRANCH  29  30
ENDBRANCH  12  29
TORSDOF 7
ENDMDL
MODEL 5
REMARK VINA RESULT:      -7.1      0.863      1.010
REMARK  Name = 
REMARK  10 active torsions:
REMARK  status: ('A' for Active; 'I' for Inactive)
REMARK    1  A    between atoms: C_1  and  C_2
REMARK    2  A    between atoms: C_12  and  O_13
REMARK    3  A    between atoms: O_13  and  C_14
REMARK    4  A    between atoms: C_14  and  C_15
REMARK    5  A    between atoms: C_15  and  N_16
REMARK    6  A    between atoms: N_16  and  C_17
REMARK    7  A    between atoms: N_16  and  C_18
REMARK    8  A    between atoms: C_21  and  C_23
REMARK    9  A    between atoms: C_26  and  C_27
REMARK   10  A    between atoms: C_27  and  O_29
REMARK                            x       y       z     vdW  Elec       q    Type
REMARK                         _______ _______ _______ _____ _____    ______ ____
ROOT
ATOM      1  C   UNL     1       2.237  14.794  17.697  0.00  0.00    +0.000 C 
ATOM      2  C   UNL     1       1.813  13.790  18.736  0.00  0.00    +0.000 A 
ATOM      3  C   UNL     1       1.882  12.409  18.474  0.00  0.00    +0.000 A 
ATOM      4  C   UNL     1       1.503  11.468  19.457  0.00  0.00    +0.000 A 
ATOM      5  C   UNL     1       1.564  10.069  19.253  0.00  0.00    +0.000 A 
ATOM      6  C   UNL     1       1.201   9.208  20.322  0.00  0.00    +0.000 A 
ATOM      7  C   UNL     1       0.721   9.775  21.512  0.00  0.00    +0.000 A 
ATOM      8  O   UNL     1       0.372   9.063  22.438  0.00  0.00    +0.000 OA
ATOM      9  O   UNL     1       0.659  11.090  21.651  0.00  0.00    +0.000 OA
ATOM     10  C   UNL     1       1.035  11.938  20.703  0.00  0.00    +0.000 A 
ATOM     11  C   UNL     1       0.959  13.306  20.955  0.00  0.00    +0.000 A 
ATOM     12  C   UNL     1       1.351  14.241  19.981  0.00  0.00    +0.000 A 
ATOM     13  C   UNL     1       1.326   7.699  20.202  0.00  0.00    +0.000 C 
ATOM     14  N   UNL     1       2.074   7.320  19.005  0.00  0.00    +0.000 N 
ATOM     15  C   UNL     1       3.053   6.343  19.041  0.00  0.00    +0.000 C 
ATOM     16  O   UNL     1       3.230   5.721  20.081  0.00  0.00    +0.000 OA
ATOM     17  C   UNL     1       1.626   8.005  17.806  0.00  0.00    +0.000 C 
ATOM     18  C   UNL     1       2.001   9.486  17.924  0.00  0.00    +0.000 C 
ENDROOT
BRANCH  15  19
ATOM     19  C   UNL     1       3.855   5.908  17.848  0.00  0.00    +0.000 A 
ATOM     20  C   UNL     1       4.008   4.560  17.477  0.00  0.00    +0.000 A 
ATOM     21  C   UNL     1       4.862   4.191  16.446  0.00  0.00    +0.000 A 
ATOM     22  C   UNL     1       5.577   5.153  15.721  0.00  0.00    +0.000 A 
ATOM     23  C   UNL     1       5.358   6.512  16.020  0.00  0.00    +0.000 A 
ATOM     24  C   UNL     1       4.499   6.883  17.063  0.00  0.00    +0.000 A 
BRANCH  22  25
ATOM     25  C   UNL     1       6.554   4.703  14.684  0.00  0.00    +0.000 C 
ATOM     26  O   UNL     1       7.573   5.351  14.499  0.00  0.00    +0.000 OA
BRANCH  25  27
ATOM     27  O   UNL     1       6.333   3.630  13.892  0.00  0.00    +0.000 OA
ATOM     28  H   UNL     1       7.024   3.158  13.415  0.00  0.00    +0.000 HD
ENDBRANCH  25  27
ENDBRANCH  22  25
ENDBRANCH  15  19
BRANCH  12  29
ATOM     29  O   UNL     1       1.310  15.577  20.213  0.00  0.00    +0.000 OA
BRANCH  29  30
ATOM     30  C   UNL     1       0.259  16.241  20.803  0.00  0.00    +0.000 C 
BRANCH  30  31
ATOM     31  C   UNL     1      -0.776  16.622  19.745  0.00  0.00    +0.000 C 
BRANCH  31  32
ATOM     32  N   UNL     1      -1.194  18.037  19.863  0.00  0.00    +0.000 NA
ATOM     33  C   UNL     1      -2.661  18.187  19.910  0.00  0.00    +0.000 C 
ATOM     34  C   UNL     1      -0.604  18.626  21.075  0.00  0.00    +0.000 C 
ENDBRANCH  31  32
ENDBRANCH  30  31
ENDBRANCH  29  30
ENDBRANCH  12  29
TORSDOF 7
ENDMDL
MODEL 6
REMARK VINA RESULT:      -7.1      1.594      2.289
REMARK  Name = 
REMARK  10 active torsions:
REMARK  status: ('A' for Active; 'I' for Inactive)
REMARK    1  A    between atoms: C_1  and  C_2
REMARK    2  A    between atoms: C_12  and  O_13
REMARK    3  A    between atoms: O_13  and  C_14
REMARK    4  A    between atoms: C_14  and  C_15
REMARK    5  A    between atoms: C_15  and  N_16
REMARK    6  A    between atoms: N_16  and  C_17
REMARK    7  A    between atoms: N_16  and  C_18
REMARK    8  A    between atoms: C_21  and  C_23
REMARK    9  A    between atoms: C_26  and  C_27
REMARK   10  A    between atoms: C_27  and  O_29
REMARK                            x       y       z     vdW  Elec       q    Type
REMARK                         _______ _______ _______ _____ _____    ______ ____
ROOT
ATOM      1  C   UNL     1       2.545  14.690  17.791  0.00  0.00    +0.000 C 
ATOM      2  C   UNL     1       2.018  13.674  18.769  0.00  0.00    +0.000 A 
ATOM      3  C   UNL     1       2.117  12.296  18.502  0.00  0.00    +0.000 A 
ATOM      4  C   UNL     1       1.640  11.345  19.431  0.00  0.00    +0.000 A 
ATOM      5  C   UNL     1       1.725   9.948  19.219  0.00  0.00    +0.000 A 
ATOM      6  C   UNL     1       1.255   9.075  20.236  0.00  0.00    +0.000 A 
ATOM      7  C   UNL     1       0.653   9.630  21.376  0.00  0.00    +0.000 A 
ATOM      8  O   UNL     1       0.211   8.908  22.253  0.00  0.00    +0.000 OA
ATOM      9  O   UNL     1       0.574  10.942  21.521  0.00  0.00    +0.000 OA
ATOM     10  C   UNL     1       1.044  11.801  20.626  0.00  0.00    +0.000 A 
ATOM     11  C   UNL     1       0.940  13.166  20.882  0.00  0.00    +0.000 A 
ATOM     12  C   UNL     1       1.429  14.112  19.964  0.00  0.00    +0.000 A 
ATOM     13  C   UNL     1       1.394   7.568  20.114  0.00  0.00    +0.000 C 
ATOM     14  N   UNL     1       2.263   7.202  18.997  0.00  0.00    +0.000 N 
ATOM     15  C   UNL     1       3.235   6.226  19.125  0.00  0.00    +0.000 C 
ATOM     16  O   UNL     1       3.305   5.593  20.170  0.00  0.00    +0.000 OA
ATOM     17  C   UNL     1       1.941   7.899  17.765  0.00  0.00    +0.000 C 
ATOM     18  C   UNL     1       2.298   9.379  17.937  0.00  0.00    +0.000 C 
ENDROOT
BRANCH  15  19
ATOM     19  C   UNL     1       4.158   5.804  18.016  0.00  0.00    +0.000 A 
ATOM     20  C   UNL     1       5.202   6.614  17.538  0.00  0.00    +0.000 A 
ATOM     21  C   UNL     1       5.950   6.244  16.429  0.00  0.00    +0.000 A 
ATOM     22  C   UNL     1       5.706   5.034  15.765  0.00  0.00    +0.000 A 
ATOM     23  C   UNL     1       4.727   4.169  16.293  0.00  0.00    +0.000 A 
ATOM     24  C   UNL     1       3.972   4.547  17.411  0.00  0.00    +0.000 A 
BRANCH  22  25
ATOM     25  C   UNL     1       6.472   4.720  14.521  0.00  0.00    +0.000 C 
ATOM     26  O   UNL     1       6.122   3.780  13.823  0.00  0.00    +0.000 OA
BRANCH  25  27
ATOM     27  O   UNL     1       7.580   5.403  14.156  0.00  0.00    +0.000 OA
ATOM     28  H   UNL     1       8.480   5.098  14.314  0.00  0.00    +0.000 HD
ENDBRANCH  25  27
ENDBRANCH  22  25
ENDBRANCH  15  19
BRANCH  12  29
ATOM     29  O   UNL     1       1.361  15.445  20.205  0.00  0.00    +0.000 OA
BRANCH  29  30
ATOM     30  C   UNL     1       1.642  16.042  21.413  0.00  0.00    +0.000 C 
BRANCH  30  31
ATOM     31  C   UNL     1       3.150  16.041  21.657  0.00  0.00    +0.000 C 
BRANCH  31  32
ATOM     32  N   UNL     1       3.875  16.840  20.644  0.00  0.00    +0.000 NA
ATOM     33  C   UNL     1       4.374  18.117  21.188  0.00  0.00    +0.000 C 
ATOM     34  C   UNL     1       5.005  16.059  20.116  0.00  0.00    +0.000 C 
ENDBRANCH  31  32
ENDBRANCH  30  31
ENDBRANCH  29  30
ENDBRANCH  12  29
TORSDOF 7
ENDMDL
MODEL 7
REMARK VINA RESULT:      -7.1      1.632      2.186
REMARK  Name = 
REMARK  10 active torsions:
REMARK  status: ('A' for Active; 'I' for Inactive)
REMARK    1  A    between atoms: C_1  and  C_2
REMARK    2  A    between atoms: C_12  and  O_13
REMARK    3  A    between atoms: O_13  and  C_14
REMARK    4  A    between atoms: C_14  and  C_15
REMARK    5  A    between atoms: C_15  and  N_16
REMARK    6  A    between atoms: N_16  and  C_17
REMARK    7  A    between atoms: N_16  and  C_18
REMARK    8  A    between atoms: C_21  and  C_23
REMARK    9  A    between atoms: C_26  and  C_27
REMARK   10  A    between atoms: C_27  and  O_29
REMARK                            x       y       z     vdW  Elec       q    Type
REMARK                         _______ _______ _______ _____ _____    ______ ____
ROOT
ATOM      1  C   UNL     1       2.334  14.883  17.771  0.00  0.00    +0.000 C 
ATOM      2  C   UNL     1       1.883  13.876  18.796  0.00  0.00    +0.000 A 
ATOM      3  C   UNL     1       1.948  12.496  18.529  0.00  0.00    +0.000 A 
ATOM      4  C   UNL     1       1.545  11.553  19.501  0.00  0.00    +0.000 A 
ATOM      5  C   UNL     1       1.600  10.154  19.291  0.00  0.00    +0.000 A 
ATOM      6  C   UNL     1       1.211   9.291  20.348  0.00  0.00    +0.000 A 
ATOM      7  C   UNL     1       0.712   9.856  21.532  0.00  0.00    +0.000 A 
ATOM      8  O   UNL     1       0.340   9.142  22.448  0.00  0.00    +0.000 OA
ATOM      9  O   UNL     1       0.656  11.170  21.676  0.00  0.00    +0.000 OA
ATOM     10  C   UNL     1       1.055  12.020  20.739  0.00  0.00    +0.000 A 
ATOM     11  C   UNL     1       0.983  13.387  20.996  0.00  0.00    +0.000 A 
ATOM     12  C   UNL     1       1.400  14.324  20.035  0.00  0.00    +0.000 A 
ATOM     13  C   UNL     1       1.328   7.782  20.224  0.00  0.00    +0.000 C 
ATOM     14  N   UNL     1       2.097   7.403  19.039  0.00  0.00    +0.000 N 
ATOM     15  C   UNL     1       3.068   6.420  19.090  0.00  0.00    +0.000 C 
ATOM     16  O   UNL     1       3.221   5.792  20.130  0.00  0.00    +0.000 OA
ATOM     17  C   UNL     1       1.676   8.097  17.835  0.00  0.00    +0.000 C 
ATOM     18  C   UNL     1       2.059   9.575  17.968  0.00  0.00    +0.000 C 
ENDROOT
BRANCH  15  19
ATOM     19  C   UNL     1       3.891   5.985  17.910  0.00  0.00    +0.000 A 
ATOM     20  C   UNL     1       3.820   4.693  17.361  0.00  0.00    +0.000 A 
ATOM     21  C   UNL     1       4.688   4.291  16.355  0.00  0.00    +0.000 A 
ATOM     22  C   UNL     1       5.646   5.170  15.833  0.00  0.00    +0.000 A 
ATOM     23  C   UNL     1       5.661   6.497  16.308  0.00  0.00    +0.000 A 
ATOM     24  C   UNL     1       4.787   6.899  17.326  0.00  0.00    +0.000 A 
BRANCH  22  25
ATOM     25  C   UNL     1       6.619   4.666  14.818  0.00  0.00    +0.000 C 
ATOM     26  O   UNL     1       7.642   5.298  14.603  0.00  0.00    +0.000 OA
BRANCH  25  27
ATOM     27  O   UNL     1       6.392   3.558  14.079  0.00  0.00    +0.000 OA
ATOM     28  H   UNL     1       5.724   3.496  13.388  0.00  0.00    +0.000 HD
ENDBRANCH  25  27
ENDBRANCH  22  25
ENDBRANCH  15  19
BRANCH  12  29
ATOM     29  O   UNL     1       1.364  15.660  20.272  0.00  0.00    +0.000 OA
BRANCH  29  30
ATOM     30  C   UNL     1       2.404  16.394  20.794  0.00  0.00    +0.000 C 
BRANCH  30  31
ATOM     31  C   UNL     1       2.285  16.457  22.317  0.00  0.00    +0.000 C 
BRANCH  31  32
ATOM     32  N   UNL     1       3.593  16.269  22.983  0.00  0.00    +0.000 NA
ATOM     33  C   UNL     1       4.318  15.091  22.473  0.00  0.00    +0.000 C 
ATOM     34  C   UNL     1       4.419  17.471  22.795  0.00  0.00    +0.000 C 
ENDBRANCH  31  32
ENDBRANCH  30  31
ENDBRANCH  29  30
ENDBRANCH  12  29
TORSDOF 7
ENDMDL
MODEL 8
REMARK VINA RESULT:      -7.1      1.614      2.062
REMARK  Name = 
REMARK  10 active torsions:
REMARK  status: ('A' for Active; 'I' for Inactive)
REMARK    1  A    between atoms: C_1  and  C_2
REMARK    2  A    between atoms: C_12  and  O_13
REMARK    3  A    between atoms: O_13  and  C_14
REMARK    4  A    between atoms: C_14  and  C_15
REMARK    5  A    between atoms: C_15  and  N_16
REMARK    6  A    between atoms: N_16  and  C_17
REMARK    7  A    between atoms: N_16  and  C_18
REMARK    8  A    between atoms: C_21  and  C_23
REMARK    9  A    between atoms: C_26  and  C_27
REMARK   10  A    between atoms: C_27  and  O_29
REMARK                            x       y       z     vdW  Elec       q    Type
REMARK                         _______ _______ _______ _____ _____    ______ ____
ROOT
ATOM      1  C   UNL     1       3.479  15.621  17.332  0.00  0.00    +0.000 C 
ATOM      2  C   UNL     1       2.742  14.835  18.384  0.00  0.00    +0.000 A 
ATOM      3  C   UNL     1       2.537  13.451  18.238  0.00  0.00    +0.000 A 
ATOM      4  C   UNL     1       1.863  12.712  19.236  0.00  0.00    +0.000 A 
ATOM      5  C   UNL     1       1.641  11.317  19.148  0.00  0.00    +0.000 A 
ATOM      6  C   UNL     1       0.990  10.661  20.226  0.00  0.00    +0.000 A 
ATOM      7  C   UNL     1       0.522  11.433  21.301  0.00  0.00    +0.000 A 
ATOM      8  O   UNL     1      -0.068  10.905  22.229  0.00  0.00    +0.000 OA
ATOM      9  O   UNL     1       0.732  12.739  21.331  0.00  0.00    +0.000 OA
ATOM     10  C   UNL     1       1.380  13.391  20.375  0.00  0.00    +0.000 A 
ATOM     11  C   UNL     1       1.576  14.764  20.510  0.00  0.00    +0.000 A 
ATOM     12  C   UNL     1       2.261  15.495  19.524  0.00  0.00    +0.000 A 
ATOM     13  C   UNL     1       0.797   9.155  20.238  0.00  0.00    +0.000 C 
ATOM     14  N   UNL     1       1.566   8.511  19.175  0.00  0.00    +0.000 N 
ATOM     15  C   UNL     1       2.301   7.362  19.407  0.00  0.00    +0.000 C 
ATOM     16  O   UNL     1       2.230   6.825  20.504  0.00  0.00    +0.000 OA
ATOM     17  C   UNL     1       1.405   9.150  17.881  0.00  0.00    +0.000 C 
ATOM     18  C   UNL     1       2.078  10.526  17.931  0.00  0.00    +0.000 C 
ENDROOT
BRANCH  15  19
ATOM     19  C   UNL     1       3.111   6.653  18.358  0.00  0.00    +0.000 A 
ATOM     20  C   UNL     1       3.067   5.261  18.168  0.00  0.00    +0.000 A 
ATOM     21  C   UNL     1       3.925   4.630  17.277  0.00  0.00    +0.000 A 
ATOM     22  C   UNL     1       4.844   5.364  16.516  0.00  0.00    +0.000 A 
ATOM     23  C   UNL     1       4.830   6.769  16.628  0.00  0.00    +0.000 A 
ATOM     24  C   UNL     1       3.966   7.403  17.530  0.00  0.00    +0.000 A 
BRANCH  22  25
ATOM     25  C   UNL     1       5.810   4.635  15.640  0.00  0.00    +0.000 C 
ATOM     26  O   UNL     1       6.502   5.266  14.856  0.00  0.00    +0.000 OA
BRANCH  25  27
ATOM     27  O   UNL     1       5.916   3.288  15.637  0.00  0.00    +0.000 OA
ATOM     28  H   UNL     1       5.685   2.728  14.888  0.00  0.00    +0.000 HD
ENDBRANCH  25  27
ENDBRANCH  22  25
ENDBRANCH  15  19
BRANCH  12  29
ATOM     29  O   UNL     1       2.486  16.827  19.647  0.00  0.00    +0.000 OA
BRANCH  29  30
ATOM     30  C   UNL     1       3.437  17.392  20.467  0.00  0.00    +0.000 C 
BRANCH  30  31
ATOM     31  C   UNL     1       2.760  18.238  21.544  0.00  0.00    +0.000 C 
BRANCH  31  32
ATOM     32  N   UNL     1       2.621  17.502  22.820  0.00  0.00    +0.000 NA
ATOM     33  C   UNL     1       3.781  16.634  23.097  0.00  0.00    +0.000 C 
ATOM     34  C   UNL     1       2.451  18.457  23.926  0.00  0.00    +0.000 C 
ENDBRANCH  31  32
ENDBRANCH  30  31
ENDBRANCH  29  30
ENDBRANCH  12  29
TORSDOF 7
ENDMDL
MODEL 9
REMARK VINA RESULT:      -7.1      1.366      1.878
REMARK  Name = 
REMARK  10 active torsions:
REMARK  status: ('A' for Active; 'I' for Inactive)
REMARK    1  A    between atoms: C_1  and  C_2
REMARK    2  A    between atoms: C_12  and  O_13
REMARK    3  A    between atoms: O_13  and  C_14
REMARK    4  A    between atoms: C_14  and  C_15
REMARK    5  A    between atoms: C_15  and  N_16
REMARK    6  A    between atoms: N_16  and  C_17
REMARK    7  A    between atoms: N_16  and  C_18
REMARK    8  A    between atoms: C_21  and  C_23
REMARK    9  A    between atoms: C_26  and  C_27
REMARK   10  A    between atoms: C_27  and  O_29
REMARK                            x       y       z     vdW  Elec       q    Type
REMARK                         _______ _______ _______ _____ _____    ______ ____
ROOT
ATOM      1  C   UNL     1       2.143  14.401  17.988  0.00  0.00    +0.000 C 
ATOM      2  C   UNL     1       1.664  13.333  18.935  0.00  0.00    +0.000 A 
ATOM      3  C   UNL     1       1.850  11.970  18.640  0.00  0.00    +0.000 A 
ATOM      4  C   UNL     1       1.418  10.971  19.540  0.00  0.00    +0.000 A 
ATOM      5  C   UNL     1       1.590   9.586  19.300  0.00  0.00    +0.000 A 
ATOM      6  C   UNL     1       1.159   8.664  20.289  0.00  0.00    +0.000 A 
ATOM      7  C   UNL     1       0.507   9.155  21.431  0.00  0.00    +0.000 A 
ATOM      8  O   UNL     1       0.097   8.388  22.285  0.00  0.00    +0.000 OA
ATOM      9  O   UNL     1       0.347  10.457  21.603  0.00  0.00    +0.000 OA
ATOM     10  C   UNL     1       0.778  11.363  20.735  0.00  0.00    +0.000 A 
ATOM     11  C   UNL     1       0.587  12.713  21.019  0.00  0.00    +0.000 A 
ATOM     12  C   UNL     1       1.031  13.707  20.130  0.00  0.00    +0.000 A 
ATOM     13  C   UNL     1       1.391   7.171  20.137  0.00  0.00    +0.000 C 
ATOM     14  N   UNL     1       2.297   6.884  19.026  0.00  0.00    +0.000 N 
ATOM     15  C   UNL     1       3.324   5.965  19.148  0.00  0.00    +0.000 C 
ATOM     16  O   UNL     1       3.417   5.314  20.181  0.00  0.00    +0.000 OA
ATOM     17  C   UNL     1       1.951   7.588  17.805  0.00  0.00    +0.000 C 
ATOM     18  C   UNL     1       2.216   9.083  18.014  0.00  0.00    +0.000 C 
ENDROOT
BRANCH  15  19
ATOM     19  C   UNL     1       4.287   5.625  18.046  0.00  0.00    +0.000 A 
ATOM     20  C   UNL     1       5.090   6.585  17.406  0.00  0.00    +0.000 A 
ATOM     21  C   UNL     1       5.871   6.253  16.307  0.00  0.00    +0.000 A 
ATOM     22  C   UNL     1       5.906   4.941  15.817  0.00  0.00    +0.000 A 
ATOM     23  C   UNL     1       5.181   3.951  16.509  0.00  0.00    +0.000 A 
ATOM     24  C   UNL     1       4.391   4.289  17.616  0.00  0.00    +0.000 A 
BRANCH  22  25
ATOM     25  C   UNL     1       6.687   4.649  14.577  0.00  0.00    +0.000 C 
ATOM     26  O   UNL     1       7.602   5.392  14.257  0.00  0.00    +0.000 OA
BRANCH  25  27
ATOM     27  O   UNL     1       6.388   3.621  13.753  0.00  0.00    +0.000 OA
ATOM     28  H   UNL     1       5.589   3.086  13.822  0.00  0.00    +0.000 HD
ENDBRANCH  25  27
ENDBRANCH  22  25
ENDBRANCH  15  19
BRANCH  12  29
ATOM     29  O   UNL     1       0.880  15.028  20.398  0.00  0.00    +0.000 OA
BRANCH  29  30
ATOM     30  C   UNL     1       0.928  15.586  21.656  0.00  0.00    +0.000 C 
BRANCH  30  31
ATOM     31  C   UNL     1       1.641  16.937  21.599  0.00  0.00    +0.000 C 
BRANCH  31  32
ATOM     32  N   UNL     1       2.085  17.272  20.228  0.00  0.00    +0.000 NA
ATOM     33  C   UNL     1       1.534  18.556  19.758  0.00  0.00    +0.000 C 
ATOM     34  C   UNL     1       3.554  17.325  20.184  0.00  0.00    +0.000 C 
ENDBRANCH  31  32
ENDBRANCH  30  31
ENDBRANCH  29  30
ENDBRANCH  12  29
TORSDOF 7
ENDMDL
