MODEL 1
REMARK VINA RESULT:      -7.2      0.000      0.000
REMARK  Name = 
REMARK  7 active torsions:
REMARK  status: ('A' for Active; 'I' for Inactive)
REMARK    1  A    between atoms: C_1  and  C_2
REMARK    2  A    between atoms: C_4  and  N_5
REMARK    3  A    between atoms: C_12  and  C_13
REMARK    4  A    between atoms: C_13  and  N_14
REMARK    5  A    between atoms: C_16  and  C_17
REMARK    6  A    between atoms: C_20  and  C_21
REMARK    7  A    between atoms: C_20  and  C_22
REMARK                            x       y       z     vdW  Elec       q    Type
REMARK                         _______ _______ _______ _____ _____    ______ ____
ROOT
ATOM      1  C   UNL     1       3.020   8.239  17.595  0.00  0.00    +0.000 C 
ATOM      2  C   UNL     1       2.096   8.324  18.780  0.00  0.00    +0.000 A 
ATOM      3  C   UNL     1       1.165   9.391  18.816  0.00  0.00    +0.000 A 
ATOM      4  C   UNL     1       0.316   9.576  19.915  0.00  0.00    +0.000 A 
ATOM      5  C   UNL     1       0.416   8.717  21.012  0.00  0.00    +0.000 A 
ATOM      6  C   UNL     1       1.310   7.646  20.974  0.00  0.00    +0.000 A 
ATOM      7  C   UNL     1       2.145   7.420  19.861  0.00  0.00    +0.000 A 
ENDROOT
BRANCH   4   8
ATOM      8  N   UNL     1      -0.662  10.610  19.912  0.00  0.00    +0.000 N 
ATOM      9  C   UNL     1      -0.910  11.529  20.909  0.00  0.00    +0.000 A 
ATOM     10  C   UNL     1      -1.896  12.358  20.426  0.00  0.00    +0.000 A 
ATOM     11  N   UNL     1      -2.288  11.972  19.177  0.00  0.00    +0.000 NA
ATOM     12  C   UNL     1      -1.540  10.928  18.891  0.00  0.00    +0.000 A 
ENDBRANCH   4   8
BRANCH   7  13
ATOM     13  C   UNL     1       2.975   6.142  19.861  0.00  0.00    +0.000 C 
BRANCH  13  14
ATOM     14  N   UNL     1       2.432   5.111  18.963  0.00  0.00    +0.000 NA
ATOM     15  C   UNL     1       3.186   4.967  17.693  0.00  0.00    +0.000 C 
ATOM     16  C   UNL     1       4.357   3.968  17.710  0.00  0.00    +0.000 C 
ATOM     17  C   UNL     1       4.895   3.769  16.295  0.00  0.00    +0.000 C 
ATOM     18  O   UNL     1       3.919   2.692  18.189  0.00  0.00    +0.000 OA
ATOM     19  C   UNL     1       3.370   2.806  19.505  0.00  0.00    +0.000 C 
ATOM     20  C   UNL     1       2.156   3.782  19.588  0.00  0.00    +0.000 C 
ATOM     21  C   UNL     1       1.723   3.878  21.070  0.00  0.00    +0.000 C 
ATOM     22  C   UNL     1       0.953   3.163  18.842  0.00  0.00    +0.000 C 
ENDBRANCH  13  14
ENDBRANCH   7  13
TORSDOF 3
ENDMDL
MODEL 2
REMARK VINA RESULT:      -7.2      2.289      3.564
REMARK  Name = 
REMARK  7 active torsions:
REMARK  status: ('A' for Active; 'I' for Inactive)
REMARK    1  A    between atoms: C_1  and  C_2
REMARK    2  A    between atoms: C_4  and  N_5
REMARK    3  A    between atoms: C_12  and  C_13
REMARK    4  A    between atoms: C_13  and  N_14
REMARK    5  A    between atoms: C_16  and  C_17
REMARK    6  A    between atoms: C_20  and  C_21
REMARK    7  A    between atoms: C_20  and  C_22
REMARK                            x       y       z     vdW  Elec       q    Type
REMARK                         _______ _______ _______ _____ _____    ______ ____
ROOT
ATOM      1  C   UNL     1       2.162   5.738  20.743  0.00  0.00    +0.000 C 
ATOM      2  C   UNL     1       2.213   6.872  19.756  0.00  0.00    +0.000 A 
ATOM      3  C   UNL     1       1.444   8.029  20.040  0.00  0.00    +0.000 A 
ATOM      4  C   UNL     1       1.387   9.100  19.139  0.00  0.00    +0.000 A 
ATOM      5  C   UNL     1       2.068   9.012  17.923  0.00  0.00    +0.000 A 
ATOM      6  C   UNL     1       2.850   7.890  17.647  0.00  0.00    +0.000 A 
ATOM      7  C   UNL     1       2.952   6.818  18.557  0.00  0.00    +0.000 A 
ENDROOT
BRANCH   4   8
ATOM      8  N   UNL     1       0.667  10.285  19.463  0.00  0.00    +0.000 N 
ATOM      9  C   UNL     1       1.173  11.559  19.606  0.00  0.00    +0.000 A 
ATOM     10  C   UNL     1       0.092  12.372  19.857  0.00  0.00    +0.000 A 
ATOM     11  N   UNL     1      -1.064  11.646  19.902  0.00  0.00    +0.000 NA
ATOM     12  C   UNL     1      -0.696  10.405  19.665  0.00  0.00    +0.000 A 
ENDBRANCH   4   8
BRANCH   7  13
ATOM     13  C   UNL     1       3.946   5.713  18.223  0.00  0.00    +0.000 C 
BRANCH  13  14
ATOM     14  N   UNL     1       4.754   6.013  17.030  0.00  0.00    +0.000 NA
ATOM     15  C   UNL     1       5.681   7.157  17.209  0.00  0.00    +0.000 C 
ATOM     16  C   UNL     1       7.081   6.816  17.752  0.00  0.00    +0.000 C 
ATOM     17  C   UNL     1       7.983   8.046  17.680  0.00  0.00    +0.000 C 
ATOM     18  O   UNL     1       7.687   5.789  16.961  0.00  0.00    +0.000 OA
ATOM     19  C   UNL     1       6.876   4.609  16.956  0.00  0.00    +0.000 C 
ATOM     20  C   UNL     1       5.440   4.846  16.398  0.00  0.00    +0.000 C 
ATOM     21  C   UNL     1       4.652   3.522  16.533  0.00  0.00    +0.000 C 
ATOM     22  C   UNL     1       5.523   5.128  14.881  0.00  0.00    +0.000 C 
ENDBRANCH  13  14
ENDBRANCH   7  13
TORSDOF 3
ENDMDL
MODEL 3
REMARK VINA RESULT:      -7.1      1.468      2.109
REMARK  Name = 
REMARK  7 active torsions:
REMARK  status: ('A' for Active; 'I' for Inactive)
REMARK    1  A    between atoms: C_1  and  C_2
REMARK    2  A    between atoms: C_4  and  N_5
REMARK    3  A    between atoms: C_12  and  C_13
REMARK    4  A    between atoms: C_13  and  N_14
REMARK    5  A    between atoms: C_16  and  C_17
REMARK    6  A    between atoms: C_20  and  C_21
REMARK    7  A    between atoms: C_20  and  C_22
REMARK                            x       y       z     vdW  Elec       q    Type
REMARK                         _______ _______ _______ _____ _____    ______ ____
ROOT
ATOM      1  C   UNL     1       0.918   7.719  21.609  0.00  0.00    +0.000 C 
ATOM      2  C   UNL     1       1.335   8.383  20.325  0.00  0.00    +0.000 A 
ATOM      3  C   UNL     1       0.853   9.692  20.071  0.00  0.00    +0.000 A 
ATOM      4  C   UNL     1       1.144  10.351  18.870  0.00  0.00    +0.000 A 
ATOM      5  C   UNL     1       1.888   9.693  17.888  0.00  0.00    +0.000 A 
ATOM      6  C   UNL     1       2.391   8.416  18.139  0.00  0.00    +0.000 A 
ATOM      7  C   UNL     1       2.143   7.751  19.357  0.00  0.00    +0.000 A 
ENDROOT
BRANCH   4   8
ATOM      8  N   UNL     1       0.711  11.690  18.653  0.00  0.00    +0.000 N 
ATOM      9  C   UNL     1      -0.586  12.143  18.546  0.00  0.00    +0.000 A 
ATOM     10  C   UNL     1      -0.502  13.509  18.404  0.00  0.00    +0.000 A 
ATOM     11  N   UNL     1       0.801  13.918  18.392  0.00  0.00    +0.000 NA
ATOM     12  C   UNL     1       1.506  12.816  18.541  0.00  0.00    +0.000 A 
ENDBRANCH   4   8
BRANCH   7  13
ATOM     13  C   UNL     1       2.859   6.426  19.586  0.00  0.00    +0.000 C 
BRANCH  13  14
ATOM     14  N   UNL     1       2.441   5.380  18.639  0.00  0.00    +0.000 NA
ATOM     15  C   UNL     1       3.397   5.167  17.525  0.00  0.00    +0.000 C 
ATOM     16  C   UNL     1       4.510   4.132  17.775  0.00  0.00    +0.000 C 
ATOM     17  C   UNL     1       5.276   3.865  16.481  0.00  0.00    +0.000 C 
ATOM     18  O   UNL     1       3.947   2.890  18.209  0.00  0.00    +0.000 OA
ATOM     19  C   UNL     1       3.184   3.069  19.406  0.00  0.00    +0.000 C 
ATOM     20  C   UNL     1       2.012   4.085  19.248  0.00  0.00    +0.000 C 
ATOM     21  C   UNL     1       1.333   4.248  20.628  0.00  0.00    +0.000 C 
ATOM     22  C   UNL     1       0.933   3.478  18.323  0.00  0.00    +0.000 C 
ENDBRANCH  13  14
ENDBRANCH   7  13
TORSDOF 3
ENDMDL
MODEL 4
REMARK VINA RESULT:      -7.0      1.740      2.803
REMARK  Name = 
REMARK  7 active torsions:
REMARK  status: ('A' for Active; 'I' for Inactive)
REMARK    1  A    between atoms: C_1  and  C_2
REMARK    2  A    between atoms: C_4  and  N_5
REMARK    3  A    between atoms: C_12  and  C_13
REMARK    4  A    between atoms: C_13  and  N_14
REMARK    5  A    between atoms: C_16  and  C_17
REMARK    6  A    between atoms: C_20  and  C_21
REMARK    7  A    between atoms: C_20  and  C_22
REMARK                            x       y       z     vdW  Elec       q    Type
REMARK                         _______ _______ _______ _____ _____    ______ ____
ROOT
ATOM      1  C   UNL     1       2.255   9.233  17.342  0.00  0.00    +0.000 C 
ATOM      2  C   UNL     1       1.829   8.704  18.685  0.00  0.00    +0.000 A 
ATOM      3  C   UNL     1       1.198   9.605  19.579  0.00  0.00    +0.000 A 
ATOM      4  C   UNL     1       0.831   9.206  20.870  0.00  0.00    +0.000 A 
ATOM      5  C   UNL     1       1.128   7.910  21.299  0.00  0.00    +0.000 A 
ATOM      6  C   UNL     1       1.723   7.008  20.418  0.00  0.00    +0.000 A 
ATOM      7  C   UNL     1       2.065   7.378  19.101  0.00  0.00    +0.000 A 
ENDROOT
BRANCH   4   8
ATOM      8  N   UNL     1       0.138  10.097  21.737  0.00  0.00    +0.000 N 
ATOM      9  C   UNL     1      -0.100  11.441  21.539  0.00  0.00    +0.000 A 
ATOM     10  C   UNL     1      -0.856  11.856  22.611  0.00  0.00    +0.000 A 
ATOM     11  N   UNL     1      -1.075  10.826  23.481  0.00  0.00    +0.000 NA
ATOM     12  C   UNL     1      -0.473   9.789  22.939  0.00  0.00    +0.000 A 
ENDBRANCH   4   8
BRANCH   7  13
ATOM     13  C   UNL     1       2.572   6.278  18.177  0.00  0.00    +0.000 C 
BRANCH  13  14
ATOM     14  N   UNL     1       3.660   5.487  18.776  0.00  0.00    +0.000 NA
ATOM     15  C   UNL     1       3.268   4.100  19.124  0.00  0.00    +0.000 C 
ATOM     16  C   UNL     1       3.459   3.045  18.018  0.00  0.00    +0.000 C 
ATOM     17  C   UNL     1       3.221   1.646  18.584  0.00  0.00    +0.000 C 
ATOM     18  O   UNL     1       4.799   3.085  17.516  0.00  0.00    +0.000 OA
ATOM     19  C   UNL     1       5.106   4.382  16.996  0.00  0.00    +0.000 C 
ATOM     20  C   UNL     1       4.966   5.522  18.050  0.00  0.00    +0.000 C 
ATOM     21  C   UNL     1       5.237   6.867  17.337  0.00  0.00    +0.000 C 
ATOM     22  C   UNL     1       6.083   5.379  19.107  0.00  0.00    +0.000 C 
ENDBRANCH  13  14
ENDBRANCH   7  13
TORSDOF 3
ENDMDL
MODEL 5
REMARK VINA RESULT:      -6.9      3.966      7.602
REMARK  Name = 
REMARK  7 active torsions:
REMARK  status: ('A' for Active; 'I' for Inactive)
REMARK    1  A    between atoms: C_1  and  C_2
REMARK    2  A    between atoms: C_4  and  N_5
REMARK    3  A    between atoms: C_12  and  C_13
REMARK    4  A    between atoms: C_13  and  N_14
REMARK    5  A    between atoms: C_16  and  C_17
REMARK    6  A    between atoms: C_20  and  C_21
REMARK    7  A    between atoms: C_20  and  C_22
REMARK                            x       y       z     vdW  Elec       q    Type
REMARK                         _______ _______ _______ _____ _____    ______ ____
ROOT
ATOM      1  C   UNL     1       7.109   5.499  18.972  0.00  0.00    +0.000 C 
ATOM      2  C   UNL     1       6.366   4.797  17.869  0.00  0.00    +0.000 A 
ATOM      3  C   UNL     1       6.853   4.943  16.546  0.00  0.00    +0.000 A 
ATOM      4  C   UNL     1       6.180   4.374  15.458  0.00  0.00    +0.000 A 
ATOM      5  C   UNL     1       4.984   3.684  15.675  0.00  0.00    +0.000 A 
ATOM      6  C   UNL     1       4.511   3.510  16.976  0.00  0.00    +0.000 A 
ATOM      7  C   UNL     1       5.195   4.041  18.088  0.00  0.00    +0.000 A 
ENDROOT
BRANCH   4   8
ATOM      8  N   UNL     1       6.713   4.470  14.142  0.00  0.00    +0.000 N 
ATOM      9  C   UNL     1       6.359   3.722  13.039  0.00  0.00    +0.000 A 
ATOM     10  C   UNL     1       7.098   4.217  11.990  0.00  0.00    +0.000 A 
ATOM     11  N   UNL     1       7.919   5.227  12.406  0.00  0.00    +0.000 NA
ATOM     12  C   UNL     1       7.672   5.359  13.692  0.00  0.00    +0.000 A 
ENDBRANCH   4   8
BRANCH   7  13
ATOM     13  C   UNL     1       4.674   3.669  19.470  0.00  0.00    +0.000 C 
BRANCH  13  14
ATOM     14  N   UNL     1       3.481   4.439  19.857  0.00  0.00    +0.000 NA
ATOM     15  C   UNL     1       3.541   5.869  19.464  0.00  0.00    +0.000 C 
ATOM     16  C   UNL     1       2.991   6.210  18.067  0.00  0.00    +0.000 C 
ATOM     17  C   UNL     1       2.919   7.726  17.890  0.00  0.00    +0.000 C 
ATOM     18  O   UNL     1       1.664   5.695  17.913  0.00  0.00    +0.000 OA
ATOM     19  C   UNL     1       1.648   4.276  18.098  0.00  0.00    +0.000 C 
ATOM     20  C   UNL     1       2.166   3.828  19.498  0.00  0.00    +0.000 C 
ATOM     21  C   UNL     1       2.178   2.281  19.529  0.00  0.00    +0.000 C 
ATOM     22  C   UNL     1       1.149   4.257  20.580  0.00  0.00    +0.000 C 
ENDBRANCH  13  14
ENDBRANCH   7  13
TORSDOF 3
ENDMDL
MODEL 6
REMARK VINA RESULT:      -6.9      1.606      2.812
REMARK  Name = 
REMARK  7 active torsions:
REMARK  status: ('A' for Active; 'I' for Inactive)
REMARK    1  A    between atoms: C_1  and  C_2
REMARK    2  A    between atoms: C_4  and  N_5
REMARK    3  A    between atoms: C_12  and  C_13
REMARK    4  A    between atoms: C_13  and  N_14
REMARK    5  A    between atoms: C_16  and  C_17
REMARK    6  A    between atoms: C_20  and  C_21
REMARK    7  A    between atoms: C_20  and  C_22
REMARK                            x       y       z     vdW  Elec       q    Type
REMARK                         _______ _______ _______ _____ _____    ______ ____
ROOT
ATOM      1  C   UNL     1       2.055   9.367  17.543  0.00  0.00    +0.000 C 
ATOM      2  C   UNL     1       1.635   9.024  18.947  0.00  0.00    +0.000 A 
ATOM      3  C   UNL     1       1.022  10.041  19.720  0.00  0.00    +0.000 A 
ATOM      4  C   UNL     1       0.662   9.820  21.055  0.00  0.00    +0.000 A 
ATOM      5  C   UNL     1       0.948   8.588  21.648  0.00  0.00    +0.000 A 
ATOM      6  C   UNL     1       1.525   7.571  20.888  0.00  0.00    +0.000 A 
ATOM      7  C   UNL     1       1.859   7.760  19.532  0.00  0.00    +0.000 A 
ENDROOT
BRANCH   4   8
ATOM      8  N   UNL     1      -0.014  10.825  21.802  0.00  0.00    +0.000 N 
ATOM      9  C   UNL     1      -0.070  12.175  21.529  0.00  0.00    +0.000 A 
ATOM     10  C   UNL     1      -0.886  12.725  22.490  0.00  0.00    +0.000 A 
ATOM     11  N   UNL     1      -1.319  11.771  23.366  0.00  0.00    +0.000 NA
ATOM     12  C   UNL     1      -0.786  10.647  22.936  0.00  0.00    +0.000 A 
ENDBRANCH   4   8
BRANCH   7  13
ATOM     13  C   UNL     1       2.347   6.543  18.757  0.00  0.00    +0.000 C 
BRANCH  13  14
ATOM     14  N   UNL     1       3.449   5.840  19.433  0.00  0.00    +0.000 NA
ATOM     15  C   UNL     1       2.997   4.877  20.468  0.00  0.00    +0.000 C 
ATOM     16  C   UNL     1       2.723   3.442  19.983  0.00  0.00    +0.000 C 
ATOM     17  C   UNL     1       2.479   2.524  21.179  0.00  0.00    +0.000 C 
ATOM     18  O   UNL     1       3.855   2.930  19.271  0.00  0.00    +0.000 OA
ATOM     19  C   UNL     1       4.165   3.762  18.148  0.00  0.00    +0.000 C 
ATOM     20  C   UNL     1       4.483   5.237  18.539  0.00  0.00    +0.000 C 
ATOM     21  C   UNL     1       4.710   6.037  17.234  0.00  0.00    +0.000 C 
ATOM     22  C   UNL     1       5.830   5.285  19.296  0.00  0.00    +0.000 C 
ENDBRANCH  13  14
ENDBRANCH   7  13
TORSDOF 3
ENDMDL
MODEL 7
REMARK VINA RESULT:      -6.9      3.244      7.886
REMARK  Name = 
REMARK  7 active torsions:
REMARK  status: ('A' for Active; 'I' for Inactive)
REMARK    1  A    between atoms: C_1  and  C_2
REMARK    2  A    between atoms: C_4  and  N_5
REMARK    3  A    between atoms: C_12  and  C_13
REMARK    4  A    between atoms: C_13  and  N_14
REMARK    5  A    between atoms: C_16  and  C_17
REMARK    6  A    between atoms: C_20  and  C_21
REMARK    7  A    between atoms: C_20  and  C_22
REMARK                            x       y       z     vdW  Elec       q    Type
REMARK                         _______ _______ _______ _____ _____    ______ ____
ROOT
ATOM      1  C   UNL     1       0.553   8.799  21.225  0.00  0.00    +0.000 C 
ATOM      2  C   UNL     1       1.362   8.344  20.041  0.00  0.00    +0.000 A 
ATOM      3  C   UNL     1       2.117   7.153  20.176  0.00  0.00    +0.000 A 
ATOM      4  C   UNL     1       2.946   6.699  19.142  0.00  0.00    +0.000 A 
ATOM      5  C   UNL     1       3.061   7.455  17.973  0.00  0.00    +0.000 A 
ATOM      6  C   UNL     1       2.301   8.614  17.819  0.00  0.00    +0.000 A 
ATOM      7  C   UNL     1       1.431   9.067  18.832  0.00  0.00    +0.000 A 
ENDROOT
BRANCH   4   8
ATOM      8  N   UNL     1       3.648   5.466  19.261  0.00  0.00    +0.000 N 
ATOM      9  C   UNL     1       3.111   4.216  19.480  0.00  0.00    +0.000 A 
ATOM     10  C   UNL     1       4.170   3.337  19.456  0.00  0.00    +0.000 A 
ATOM     11  N   UNL     1       5.348   3.999  19.257  0.00  0.00    +0.000 NA
ATOM     12  C   UNL     1       5.012   5.267  19.144  0.00  0.00    +0.000 A 
ENDBRANCH   4   8
BRANCH   7  13
ATOM     13  C   UNL     1       0.539  10.258  18.504  0.00  0.00    +0.000 C 
BRANCH  13  14
ATOM     14  N   UNL     1       0.729  11.384  19.431  0.00  0.00    +0.000 NA
ATOM     15  C   UNL     1       1.982  12.144  19.201  0.00  0.00    +0.000 C 
ATOM     16  C   UNL     1       1.891  13.315  18.205  0.00  0.00    +0.000 C 
ATOM     17  C   UNL     1       3.184  14.126  18.233  0.00  0.00    +0.000 C 
ATOM     18  O   UNL     1       0.822  14.195  18.567  0.00  0.00    +0.000 OA
ATOM     19  C   UNL     1      -0.426  13.493  18.594  0.00  0.00    +0.000 C 
ATOM     20  C   UNL     1      -0.442  12.298  19.594  0.00  0.00    +0.000 C 
ATOM     21  C   UNL     1      -1.806  11.580  19.457  0.00  0.00    +0.000 C 
ATOM     22  C   UNL     1      -0.403  12.843  21.040  0.00  0.00    +0.000 C 
ENDBRANCH  13  14
ENDBRANCH   7  13
TORSDOF 3
ENDMDL
MODEL 8
REMARK VINA RESULT:      -6.9      2.328      3.959
REMARK  Name = 
REMARK  7 active torsions:
REMARK  status: ('A' for Active; 'I' for Inactive)
REMARK    1  A    between atoms: C_1  and  C_2
REMARK    2  A    between atoms: C_4  and  N_5
REMARK    3  A    between atoms: C_12  and  C_13
REMARK    4  A    between atoms: C_13  and  N_14
REMARK    5  A    between atoms: C_16  and  C_17
REMARK    6  A    between atoms: C_20  and  C_21
REMARK    7  A    between atoms: C_20  and  C_22
REMARK                            x       y       z     vdW  Elec       q    Type
REMARK                         _______ _______ _______ _____ _____    ______ ____
ROOT
ATOM      1  C   UNL     1       2.484   4.308  20.745  0.00  0.00    +0.000 C 
ATOM      2  C   UNL     1       2.450   5.676  20.119  0.00  0.00    +0.000 A 
ATOM      3  C   UNL     1       1.724   6.692  20.790  0.00  0.00    +0.000 A 
ATOM      4  C   UNL     1       1.591   7.972  20.239  0.00  0.00    +0.000 A 
ATOM      5  C   UNL     1       2.149   8.243  18.987  0.00  0.00    +0.000 A 
ATOM      6  C   UNL     1       2.889   7.259  18.332  0.00  0.00    +0.000 A 
ATOM      7  C   UNL     1       3.068   5.975  18.887  0.00  0.00    +0.000 A 
ENDROOT
BRANCH   4   8
ATOM      8  N   UNL     1       0.918   9.004  20.952  0.00  0.00    +0.000 N 
ATOM      9  C   UNL     1      -0.023   9.884  20.461  0.00  0.00    +0.000 A 
ATOM     10  C   UNL     1      -0.427  10.647  21.532  0.00  0.00    +0.000 A 
ATOM     11  N   UNL     1       0.248  10.292  22.665  0.00  0.00    +0.000 NA
ATOM     12  C   UNL     1       1.044   9.312  22.295  0.00  0.00    +0.000 A 
ENDBRANCH   4   8
BRANCH   7  13
ATOM     13  C   UNL     1       4.013   5.027  18.161  0.00  0.00    +0.000 C 
BRANCH  13  14
ATOM     14  N   UNL     1       4.767   5.687  17.084  0.00  0.00    +0.000 NA
ATOM     15  C   UNL     1       5.680   6.755  17.562  0.00  0.00    +0.000 C 
ATOM     16  C   UNL     1       7.107   6.309  17.934  0.00  0.00    +0.000 C 
ATOM     17  C   UNL     1       7.984   7.531  18.198  0.00  0.00    +0.000 C 
ATOM     18  O   UNL     1       7.699   5.577  16.857  0.00  0.00    +0.000 OA
ATOM     19  C   UNL     1       6.910   4.428  16.531  0.00  0.00    +0.000 C 
ATOM     20  C   UNL     1       5.449   4.778  16.114  0.00  0.00    +0.000 C 
ATOM     21  C   UNL     1       4.691   3.450  15.878  0.00  0.00    +0.000 C 
ATOM     22  C   UNL     1       5.467   5.495  14.745  0.00  0.00    +0.000 C 
ENDBRANCH  13  14
ENDBRANCH   7  13
TORSDOF 3
ENDMDL
MODEL 9
REMARK VINA RESULT:      -6.8      1.618      2.690
REMARK  Name = 
REMARK  7 active torsions:
REMARK  status: ('A' for Active; 'I' for Inactive)
REMARK    1  A    between atoms: C_1  and  C_2
REMARK    2  A    between atoms: C_4  and  N_5
REMARK    3  A    between atoms: C_12  and  C_13
REMARK    4  A    between atoms: C_13  and  N_14
REMARK    5  A    between atoms: C_16  and  C_17
REMARK    6  A    between atoms: C_20  and  C_21
REMARK    7  A    between atoms: C_20  and  C_22
REMARK                            x       y       z     vdW  Elec       q    Type
REMARK                         _______ _______ _______ _____ _____    ______ ____
ROOT
ATOM      1  C   UNL     1       2.070   9.631  17.386  0.00  0.00    +0.000 C 
ATOM      2  C   UNL     1       1.694   9.078  18.734  0.00  0.00    +0.000 A 
ATOM      3  C   UNL     1       1.034   9.943  19.643  0.00  0.00    +0.000 A 
ATOM      4  C   UNL     1       0.710   9.523  20.938  0.00  0.00    +0.000 A 
ATOM      5  C   UNL     1       1.079   8.243  21.358  0.00  0.00    +0.000 A 
ATOM      6  C   UNL     1       1.703   7.374  20.463  0.00  0.00    +0.000 A 
ATOM      7  C   UNL     1       2.003   7.764  19.142  0.00  0.00    +0.000 A 
ENDROOT
BRANCH   4   8
ATOM      8  N   UNL     1      -0.013  10.376  21.820  0.00  0.00    +0.000 N 
ATOM      9  C   UNL     1      -0.234  11.730  21.680  0.00  0.00    +0.000 A 
ATOM     10  C   UNL     1      -1.030  12.097  22.739  0.00  0.00    +0.000 A 
ATOM     11  N   UNL     1      -1.290  11.027  23.547  0.00  0.00    +0.000 NA
ATOM     12  C   UNL     1      -0.673  10.013  22.979  0.00  0.00    +0.000 A 
ENDBRANCH   4   8
BRANCH   7  13
ATOM     13  C   UNL     1       2.550   6.693  18.206  0.00  0.00    +0.000 C 
BRANCH  13  14
ATOM     14  N   UNL     1       3.065   5.517  18.924  0.00  0.00    +0.000 NA
ATOM     15  C   UNL     1       2.023   4.515  19.255  0.00  0.00    +0.000 C 
ATOM     16  C   UNL     1       1.766   3.430  18.192  0.00  0.00    +0.000 C 
ATOM     17  C   UNL     1       0.834   2.358  18.755  0.00  0.00    +0.000 C 
ATOM     18  O   UNL     1       2.992   2.788  17.827  0.00  0.00    +0.000 OA
ATOM     19  C   UNL     1       3.930   3.741  17.318  0.00  0.00    +0.000 C 
ATOM     20  C   UNL     1       4.277   4.872  18.333  0.00  0.00    +0.000 C 
ATOM     21  C   UNL     1       5.224   5.872  17.628  0.00  0.00    +0.000 C 
ATOM     22  C   UNL     1       5.097   4.276  19.500  0.00  0.00    +0.000 C 
ENDBRANCH  13  14
ENDBRANCH   7  13
TORSDOF 3
ENDMDL
