MODEL 1
REMARK VINA RESULT:      -8.6      0.000      0.000
REMARK  Name = 
REMARK  11 active torsions:
REMARK  status: ('A' for Active; 'I' for Inactive)
REMARK    1  A    between atoms: C_1  and  O_2
REMARK    2  A    between atoms: O_2  and  C_3
REMARK    3  A    between atoms: C_7  and  C_8
REMARK    4  A    between atoms: C_10  and  C_11
REMARK    5  A    between atoms: C_11  and  C_21
REMARK    6  A    between atoms: C_12  and  C_13
REMARK    7  A    between atoms: C_13  and  C_14
REMARK    8  A    between atoms: C_14  and  N_15
REMARK    9  A    between atoms: C_23  and  C_24
REMARK   10  A    between atoms: C_28  and  O_29
REMARK   11  A    between atoms: O_29  and  C_30
REMARK                            x       y       z     vdW  Elec       q    Type
REMARK                         _______ _______ _______ _____ _____    ______ ____
ROOT
ATOM      1  C   UNL     1       2.530   6.249  18.235  0.00  0.00    +0.000 C 
ATOM      2  C   UNL     1       1.550   5.320  18.156  0.00  0.00    +0.000 C 
ENDROOT
BRANCH   1  10
ATOM      3  C   UNL     1       6.435   4.966  15.223  0.00  0.00    +0.000 A 
ATOM      4  N   UNL     1       7.706   4.696  15.533  0.00  0.00    +0.000 NA
ATOM      5  O   UNL     1       7.776   4.850  16.915  0.00  0.00    +0.000 OA
ATOM      6  C   UNL     1       6.551   5.209  17.400  0.00  0.00    +0.000 A 
ATOM      7  C   UNL     1       6.227   5.461  18.737  0.00  0.00    +0.000 A 
ATOM      8  C   UNL     1       7.205   5.391  19.868  0.00  0.00    +0.000 C 
ATOM      9  C   UNL     1       4.880   5.808  18.972  0.00  0.00    +0.000 A 
ATOM     10  C   UNL     1       3.938   5.903  17.933  0.00  0.00    +0.000 A 
ATOM     11  C   UNL     1       4.321   5.648  16.607  0.00  0.00    +0.000 A 
ATOM     12  C   UNL     1       5.655   5.293  16.349  0.00  0.00    +0.000 A 
BRANCH   3  14
ATOM     13  C   UNL     1       6.019   3.617  13.362  0.00  0.00    +0.000 C 
ATOM     14  O   UNL     1       5.980   4.913  13.949  0.00  0.00    +0.000 OA
ENDBRANCH   3  14
ENDBRANCH   1  10
BRANCH   1  15
ATOM     15  C   UNL     1       2.153   7.605  18.702  0.00  0.00    +0.000 A 
ATOM     16  C   UNL     1       2.404   8.723  17.891  0.00  0.00    +0.000 A 
ATOM     17  C   UNL     1       2.123  10.038  18.315  0.00  0.00    +0.000 A 
ATOM     18  C   UNL     1       2.423  11.221  17.451  0.00  0.00    +0.000 C 
ATOM     19  C   UNL     1       1.568  10.144  19.595  0.00  0.00    +0.000 A 
ATOM     20  O   UNL     1       1.213  11.299  20.230  0.00  0.00    +0.000 OA
ATOM     21  N   UNL     1       0.699  11.002  21.490  0.00  0.00    +0.000 NA
ATOM     22  C   UNL     1       0.763   9.672  21.581  0.00  0.00    +0.000 A 
ATOM     23  C   UNL     1       1.297   9.069  20.425  0.00  0.00    +0.000 A 
ATOM     24  C   UNL     1       1.591   7.769  19.980  0.00  0.00    +0.000 A 
BRANCH  22  25
ATOM     25  O   UNL     1       0.345   9.009  22.687  0.00  0.00    +0.000 OA
ATOM     26  C   UNL     1      -0.609   9.713  23.474  0.00  0.00    +0.000 C 
ENDBRANCH  22  25
ENDBRANCH   1  15
BRANCH   2  27
ATOM     27  C   UNL     1       1.722   3.865  17.779  0.00  0.00    +0.000 C 
BRANCH  27  28
ATOM     28  C   UNL     1       1.469   2.886  18.937  0.00  0.00    +0.000 C 
BRANCH  28  29
ATOM     29  N   UNL     1       2.645   2.684  19.774  0.00  0.00    +0.000 N 
ATOM     30  C   UNL     1       3.857   2.094  19.294  0.00  0.00    +0.000 C 
ATOM     31  C   UNL     1       4.713   2.078  20.538  0.00  0.00    +0.000 C 
ATOM     32  O   UNL     1       3.774   2.089  21.621  0.00  0.00    +0.000 OA
ATOM     33  C   UNL     1       2.575   2.537  21.141  0.00  0.00    +0.000 C 
ATOM     34  O   UNL     1       1.595   2.733  21.842  0.00  0.00    +0.000 OA
ENDBRANCH  28  29
ENDBRANCH  27  28
ENDBRANCH   2  27
TORSDOF 7
ENDMDL
MODEL 2
REMARK VINA RESULT:      -8.4      0.860      2.248
REMARK  Name = 
REMARK  11 active torsions:
REMARK  status: ('A' for Active; 'I' for Inactive)
REMARK    1  A    between atoms: C_1  and  O_2
REMARK    2  A    between atoms: O_2  and  C_3
REMARK    3  A    between atoms: C_7  and  C_8
REMARK    4  A    between atoms: C_10  and  C_11
REMARK    5  A    between atoms: C_11  and  C_21
REMARK    6  A    between atoms: C_12  and  C_13
REMARK    7  A    between atoms: C_13  and  C_14
REMARK    8  A    between atoms: C_14  and  N_15
REMARK    9  A    between atoms: C_23  and  C_24
REMARK   10  A    between atoms: C_28  and  O_29
REMARK   11  A    between atoms: O_29  and  C_30
REMARK                            x       y       z     vdW  Elec       q    Type
REMARK                         _______ _______ _______ _____ _____    ______ ____
ROOT
ATOM      1  C   UNL     1       2.524   6.052  18.301  0.00  0.00    +0.000 C 
ATOM      2  C   UNL     1       1.563   5.135  18.049  0.00  0.00    +0.000 C 
ENDROOT
BRANCH   1  10
ATOM      3  C   UNL     1       6.445   4.990  15.224  0.00  0.00    +0.000 A 
ATOM      4  N   UNL     1       7.733   4.785  15.514  0.00  0.00    +0.000 NA
ATOM      5  O   UNL     1       7.816   4.936  16.896  0.00  0.00    +0.000 OA
ATOM      6  C   UNL     1       6.581   5.228  17.401  0.00  0.00    +0.000 A 
ATOM      7  C   UNL     1       6.265   5.456  18.743  0.00  0.00    +0.000 A 
ATOM      8  C   UNL     1       7.262   5.432  19.860  0.00  0.00    +0.000 C 
ATOM      9  C   UNL     1       4.905   5.731  19.001  0.00  0.00    +0.000 A 
ATOM     10  C   UNL     1       3.943   5.782  17.976  0.00  0.00    +0.000 A 
ATOM     11  C   UNL     1       4.319   5.554  16.643  0.00  0.00    +0.000 A 
ATOM     12  C   UNL     1       5.665   5.270  16.363  0.00  0.00    +0.000 A 
BRANCH   3  14
ATOM     13  C   UNL     1       6.110   3.640  13.347  0.00  0.00    +0.000 C 
ATOM     14  O   UNL     1       5.974   4.919  13.957  0.00  0.00    +0.000 OA
ENDBRANCH   3  14
ENDBRANCH   1  10
BRANCH   1  15
ATOM     15  C   UNL     1       2.114   7.307  18.977  0.00  0.00    +0.000 A 
ATOM     16  C   UNL     1       1.481   7.256  20.230  0.00  0.00    +0.000 A 
ATOM     17  C   UNL     1       1.016   8.416  20.884  0.00  0.00    +0.000 A 
ATOM     18  C   UNL     1       0.317   8.342  22.204  0.00  0.00    +0.000 C 
ATOM     19  C   UNL     1       1.241   9.615  20.201  0.00  0.00    +0.000 A 
ATOM     20  O   UNL     1       0.884  10.865  20.620  0.00  0.00    +0.000 OA
ATOM     21  N   UNL     1       1.274  11.806  19.670  0.00  0.00    +0.000 NA
ATOM     22  C   UNL     1       1.852  11.095  18.700  0.00  0.00    +0.000 A 
ATOM     23  C   UNL     1       1.867   9.712  18.970  0.00  0.00    +0.000 A 
ATOM     24  C   UNL     1       2.317   8.542  18.336  0.00  0.00    +0.000 A 
BRANCH  22  25
ATOM     25  O   UNL     1       2.361  11.681  17.589  0.00  0.00    +0.000 OA
ATOM     26  C   UNL     1       2.743  13.041  17.759  0.00  0.00    +0.000 C 
ENDBRANCH  22  25
ENDBRANCH   1  15
BRANCH   2  27
ATOM     27  C   UNL     1       1.768   3.765  17.441  0.00  0.00    +0.000 C 
BRANCH  27  28
ATOM     28  C   UNL     1       1.584   2.607  18.436  0.00  0.00    +0.000 C 
BRANCH  28  29
ATOM     29  N   UNL     1       2.600   2.592  19.481  0.00  0.00    +0.000 N 
ATOM     30  C   UNL     1       3.900   2.022  19.303  0.00  0.00    +0.000 C 
ATOM     31  C   UNL     1       4.520   2.225  20.665  0.00  0.00    +0.000 C 
ATOM     32  O   UNL     1       3.405   2.319  21.559  0.00  0.00    +0.000 OA
ATOM     33  C   UNL     1       2.293   2.622  20.823  0.00  0.00    +0.000 C 
ATOM     34  O   UNL     1       1.197   2.846  21.312  0.00  0.00    +0.000 OA
ENDBRANCH  28  29
ENDBRANCH  27  28
ENDBRANCH   2  27
TORSDOF 7
ENDMDL
MODEL 3
REMARK VINA RESULT:      -8.3      0.627      1.047
REMARK  Name = 
REMARK  11 active torsions:
REMARK  status: ('A' for Active; 'I' for Inactive)
REMARK    1  A    between atoms: C_1  and  O_2
REMARK    2  A    between atoms: O_2  and  C_3
REMARK    3  A    between atoms: C_7  and  C_8
REMARK    4  A    between atoms: C_10  and  C_11
REMARK    5  A    between atoms: C_11  and  C_21
REMARK    6  A    between atoms: C_12  and  C_13
REMARK    7  A    between atoms: C_13  and  C_14
REMARK    8  A    between atoms: C_14  and  N_15
REMARK    9  A    between atoms: C_23  and  C_24
REMARK   10  A    between atoms: C_28  and  O_29
REMARK   11  A    between atoms: O_29  and  C_30
REMARK                            x       y       z     vdW  Elec       q    Type
REMARK                         _______ _______ _______ _____ _____    ______ ____
ROOT
ATOM      1  C   UNL     1       2.610   6.229  18.139  0.00  0.00    +0.000 C 
ATOM      2  C   UNL     1       1.642   5.291  18.024  0.00  0.00    +0.000 C 
ENDROOT
BRANCH   1  10
ATOM      3  C   UNL     1       6.544   5.002  15.142  0.00  0.00    +0.000 A 
ATOM      4  N   UNL     1       7.820   4.759  15.456  0.00  0.00    +0.000 NA
ATOM      5  O   UNL     1       7.885   4.924  16.837  0.00  0.00    +0.000 OA
ATOM      6  C   UNL     1       6.652   5.262  17.317  0.00  0.00    +0.000 A 
ATOM      7  C   UNL     1       6.321   5.517  18.652  0.00  0.00    +0.000 A 
ATOM      8  C   UNL     1       7.298   5.474  19.785  0.00  0.00    +0.000 C 
ATOM      9  C   UNL     1       4.967   5.839  18.883  0.00  0.00    +0.000 A 
ATOM     10  C   UNL     1       4.024   5.909  17.842  0.00  0.00    +0.000 A 
ATOM     11  C   UNL     1       4.415   5.652  16.518  0.00  0.00    +0.000 A 
ATOM     12  C   UNL     1       5.755   5.321  16.264  0.00  0.00    +0.000 A 
BRANCH   3  14
ATOM     13  C   UNL     1       6.065   3.616  13.323  0.00  0.00    +0.000 C 
ATOM     14  O   UNL     1       6.092   4.931  13.867  0.00  0.00    +0.000 OA
ENDBRANCH   3  14
ENDBRANCH   1  10
BRANCH   1  15
ATOM     15  C   UNL     1       2.212   7.567  18.641  0.00  0.00    +0.000 A 
ATOM     16  C   UNL     1       2.405   8.704  17.841  0.00  0.00    +0.000 A 
ATOM     17  C   UNL     1       2.103  10.004  18.297  0.00  0.00    +0.000 A 
ATOM     18  C   UNL     1       2.343  11.208  17.443  0.00  0.00    +0.000 C 
ATOM     19  C   UNL     1       1.587  10.074  19.596  0.00  0.00    +0.000 A 
ATOM     20  O   UNL     1       1.223  11.208  20.261  0.00  0.00    +0.000 OA
ATOM     21  N   UNL     1       0.759  10.877  21.531  0.00  0.00    +0.000 NA
ATOM     22  C   UNL     1       0.862   9.548  21.598  0.00  0.00    +0.000 A 
ATOM     23  C   UNL     1       1.374   8.979  20.415  0.00  0.00    +0.000 A 
ATOM     24  C   UNL     1       1.688   7.695  19.940  0.00  0.00    +0.000 A 
BRANCH  22  25
ATOM     25  O   UNL     1       0.498   8.856  22.705  0.00  0.00    +0.000 OA
ATOM     26  C   UNL     1      -0.478   9.504  23.514  0.00  0.00    +0.000 C 
ENDBRANCH  22  25
ENDBRANCH   1  15
BRANCH   2  27
ATOM     27  C   UNL     1       1.835   3.850  17.607  0.00  0.00    +0.000 C 
BRANCH  27  28
ATOM     28  C   UNL     1       1.104   2.837  18.505  0.00  0.00    +0.000 C 
BRANCH  28  29
ATOM     29  N   UNL     1       1.700   2.721  19.829  0.00  0.00    +0.000 N 
ATOM     30  C   UNL     1       1.226   3.445  20.969  0.00  0.00    +0.000 C 
ATOM     31  C   UNL     1       2.194   3.008  22.043  0.00  0.00    +0.000 C 
ATOM     32  O   UNL     1       3.368   2.605  21.328  0.00  0.00    +0.000 OA
ATOM     33  C   UNL     1       3.015   2.363  20.029  0.00  0.00    +0.000 C 
ATOM     34  O   UNL     1       3.784   1.926  19.187  0.00  0.00    +0.000 OA
ENDBRANCH  28  29
ENDBRANCH  27  28
ENDBRANCH   2  27
TORSDOF 7
ENDMDL
MODEL 4
REMARK VINA RESULT:      -8.3      1.019      2.469
REMARK  Name = 
REMARK  11 active torsions:
REMARK  status: ('A' for Active; 'I' for Inactive)
REMARK    1  A    between atoms: C_1  and  O_2
REMARK    2  A    between atoms: O_2  and  C_3
REMARK    3  A    between atoms: C_7  and  C_8
REMARK    4  A    between atoms: C_10  and  C_11
REMARK    5  A    between atoms: C_11  and  C_21
REMARK    6  A    between atoms: C_12  and  C_13
REMARK    7  A    between atoms: C_13  and  C_14
REMARK    8  A    between atoms: C_14  and  N_15
REMARK    9  A    between atoms: C_23  and  C_24
REMARK   10  A    between atoms: C_28  and  O_29
REMARK   11  A    between atoms: O_29  and  C_30
REMARK                            x       y       z     vdW  Elec       q    Type
REMARK                         _______ _______ _______ _____ _____    ______ ____
ROOT
ATOM      1  C   UNL     1       2.568   5.931  18.344  0.00  0.00    +0.000 C 
ATOM      2  C   UNL     1       1.641   4.968  18.142  0.00  0.00    +0.000 C 
ENDROOT
BRANCH   1  10
ATOM      3  C   UNL     1       6.452   4.985  15.184  0.00  0.00    +0.000 A 
ATOM      4  N   UNL     1       7.754   4.835  15.444  0.00  0.00    +0.000 NA
ATOM      5  O   UNL     1       7.864   5.006  16.821  0.00  0.00    +0.000 OA
ATOM      6  C   UNL     1       6.631   5.256  17.353  0.00  0.00    +0.000 A 
ATOM      7  C   UNL     1       6.339   5.488  18.701  0.00  0.00    +0.000 A 
ATOM      8  C   UNL     1       7.363   5.517  19.792  0.00  0.00    +0.000 C 
ATOM      9  C   UNL     1       4.976   5.712  18.988  0.00  0.00    +0.000 A 
ATOM     10  C   UNL     1       3.989   5.713  17.987  0.00  0.00    +0.000 A 
ATOM     11  C   UNL     1       4.341   5.482  16.648  0.00  0.00    +0.000 A 
ATOM     12  C   UNL     1       5.690   5.248  16.338  0.00  0.00    +0.000 A 
BRANCH   3  14
ATOM     13  C   UNL     1       6.195   3.625  13.302  0.00  0.00    +0.000 C 
ATOM     14  O   UNL     1       5.954   4.879  13.929  0.00  0.00    +0.000 OA
ENDBRANCH   3  14
ENDBRANCH   1  10
BRANCH   1  15
ATOM     15  C   UNL     1       2.122   7.185  18.999  0.00  0.00    +0.000 A 
ATOM     16  C   UNL     1       1.454   7.134  20.233  0.00  0.00    +0.000 A 
ATOM     17  C   UNL     1       0.955   8.292  20.865  0.00  0.00    +0.000 A 
ATOM     18  C   UNL     1       0.219   8.218  22.165  0.00  0.00    +0.000 C 
ATOM     19  C   UNL     1       1.184   9.490  20.179  0.00  0.00    +0.000 A 
ATOM     20  O   UNL     1       0.799  10.737  20.579  0.00  0.00    +0.000 OA
ATOM     21  N   UNL     1       1.202  11.676  19.634  0.00  0.00    +0.000 NA
ATOM     22  C   UNL     1       1.818  10.967  18.686  0.00  0.00    +0.000 A 
ATOM     23  C   UNL     1       1.844   9.586  18.966  0.00  0.00    +0.000 A 
ATOM     24  C   UNL     1       2.327   8.417  18.354  0.00  0.00    +0.000 A 
BRANCH  22  25
ATOM     25  O   UNL     1       2.351  11.551  17.586  0.00  0.00    +0.000 OA
ATOM     26  C   UNL     1       2.868  12.860  17.803  0.00  0.00    +0.000 C 
ENDBRANCH  22  25
ENDBRANCH   1  15
BRANCH   2  27
ATOM     27  C   UNL     1       1.889   3.592  17.564  0.00  0.00    +0.000 C 
BRANCH  27  28
ATOM     28  C   UNL     1       1.340   2.443  18.427  0.00  0.00    +0.000 C 
BRANCH  28  29
ATOM     29  N   UNL     1       1.847   2.469  19.793  0.00  0.00    +0.000 N 
ATOM     30  C   UNL     1       1.171   3.127  20.868  0.00  0.00    +0.000 C 
ATOM     31  C   UNL     1       2.119   2.897  22.022  0.00  0.00    +0.000 C 
ATOM     32  O   UNL     1       3.395   2.689  21.404  0.00  0.00    +0.000 OA
ATOM     33  C   UNL     1       3.186   2.354  20.095  0.00  0.00    +0.000 C 
ATOM     34  O   UNL     1       4.079   2.038  19.326  0.00  0.00    +0.000 OA
ENDBRANCH  28  29
ENDBRANCH  27  28
ENDBRANCH   2  27
TORSDOF 7
ENDMDL
MODEL 5
REMARK VINA RESULT:      -8.2      1.464      2.640
REMARK  Name = 
REMARK  11 active torsions:
REMARK  status: ('A' for Active; 'I' for Inactive)
REMARK    1  A    between atoms: C_1  and  O_2
REMARK    2  A    between atoms: O_2  and  C_3
REMARK    3  A    between atoms: C_7  and  C_8
REMARK    4  A    between atoms: C_10  and  C_11
REMARK    5  A    between atoms: C_11  and  C_21
REMARK    6  A    between atoms: C_12  and  C_13
REMARK    7  A    between atoms: C_13  and  C_14
REMARK    8  A    between atoms: C_14  and  N_15
REMARK    9  A    between atoms: C_23  and  C_24
REMARK   10  A    between atoms: C_28  and  O_29
REMARK   11  A    between atoms: O_29  and  C_30
REMARK                            x       y       z     vdW  Elec       q    Type
REMARK                         _______ _______ _______ _____ _____    ______ ____
ROOT
ATOM      1  C   UNL     1       2.933   6.047  17.888  0.00  0.00    +0.000 C 
ATOM      2  C   UNL     1       2.164   4.935  17.874  0.00  0.00    +0.000 C 
ENDROOT
BRANCH   1  10
ATOM      3  C   UNL     1       6.413   4.682  14.425  0.00  0.00    +0.000 A 
ATOM      4  N   UNL     1       7.694   5.040  14.308  0.00  0.00    +0.000 NA
ATOM      5  O   UNL     1       7.916   5.920  15.364  0.00  0.00    +0.000 OA
ATOM      6  C   UNL     1       6.767   6.069  16.087  0.00  0.00    +0.000 A 
ATOM      7  C   UNL     1       6.594   6.875  17.217  0.00  0.00    +0.000 A 
ATOM      8  C   UNL     1       7.666   7.734  17.811  0.00  0.00    +0.000 C 
ATOM      9  C   UNL     1       5.302   6.843  17.784  0.00  0.00    +0.000 A 
ATOM     10  C   UNL     1       4.265   6.064  17.242  0.00  0.00    +0.000 A 
ATOM     11  C   UNL     1       4.493   5.279  16.100  0.00  0.00    +0.000 A 
ATOM     12  C   UNL     1       5.773   5.288  15.523  0.00  0.00    +0.000 A 
BRANCH   3  14
ATOM     13  C   UNL     1       6.533   3.632  12.342  0.00  0.00    +0.000 C 
ATOM     14  O   UNL     1       5.827   3.816  13.564  0.00  0.00    +0.000 OA
ENDBRANCH   3  14
ENDBRANCH   1  10
BRANCH   1  15
ATOM     15  C   UNL     1       2.423   7.224  18.634  0.00  0.00    +0.000 A 
ATOM     16  C   UNL     1       1.798   7.050  19.879  0.00  0.00    +0.000 A 
ATOM     17  C   UNL     1       1.241   8.129  20.597  0.00  0.00    +0.000 A 
ATOM     18  C   UNL     1       0.552   7.923  21.908  0.00  0.00    +0.000 C 
ATOM     19  C   UNL     1       1.367   9.380  19.983  0.00  0.00    +0.000 A 
ATOM     20  O   UNL     1       0.911  10.570  20.472  0.00  0.00    +0.000 OA
ATOM     21  N   UNL     1       1.221  11.592  19.579  0.00  0.00    +0.000 NA
ATOM     22  C   UNL     1       1.854  10.987  18.572  0.00  0.00    +0.000 A 
ATOM     23  C   UNL     1       1.982   9.597  18.762  0.00  0.00    +0.000 A 
ATOM     24  C   UNL     1       2.525   8.505  18.064  0.00  0.00    +0.000 A 
BRANCH  22  25
ATOM     25  O   UNL     1       2.313  11.675  17.498  0.00  0.00    +0.000 OA
ATOM     26  C   UNL     1       2.828  12.967  17.798  0.00  0.00    +0.000 C 
ENDBRANCH  22  25
ENDBRANCH   1  15
BRANCH   2  27
ATOM     27  C   UNL     1       2.519   3.606  17.244  0.00  0.00    +0.000 C 
BRANCH  27  28
ATOM     28  C   UNL     1       2.909   2.518  18.259  0.00  0.00    +0.000 C 
BRANCH  28  29
ATOM     29  N   UNL     1       2.416   2.795  19.602  0.00  0.00    +0.000 N 
ATOM     30  C   UNL     1       3.252   2.782  20.763  0.00  0.00    +0.000 C 
ATOM     31  C   UNL     1       2.263   3.079  21.865  0.00  0.00    +0.000 C 
ATOM     32  O   UNL     1       0.999   2.658  21.338  0.00  0.00    +0.000 OA
ATOM     33  C   UNL     1       1.108   2.582  19.977  0.00  0.00    +0.000 C 
ATOM     34  O   UNL     1       0.173   2.326  19.235  0.00  0.00    +0.000 OA
ENDBRANCH  28  29
ENDBRANCH  27  28
ENDBRANCH   2  27
TORSDOF 7
ENDMDL
MODEL 6
REMARK VINA RESULT:      -8.0      1.388      6.817
REMARK  Name = 
REMARK  11 active torsions:
REMARK  status: ('A' for Active; 'I' for Inactive)
REMARK    1  A    between atoms: C_1  and  O_2
REMARK    2  A    between atoms: O_2  and  C_3
REMARK    3  A    between atoms: C_7  and  C_8
REMARK    4  A    between atoms: C_10  and  C_11
REMARK    5  A    between atoms: C_11  and  C_21
REMARK    6  A    between atoms: C_12  and  C_13
REMARK    7  A    between atoms: C_13  and  C_14
REMARK    8  A    between atoms: C_14  and  N_15
REMARK    9  A    between atoms: C_23  and  C_24
REMARK   10  A    between atoms: C_28  and  O_29
REMARK   11  A    between atoms: O_29  and  C_30
REMARK                            x       y       z     vdW  Elec       q    Type
REMARK                         _______ _______ _______ _____ _____    ______ ____
ROOT
ATOM      1  C   UNL     1       3.096   5.605  17.899  0.00  0.00    +0.000 C 
ATOM      2  C   UNL     1       2.433   4.430  17.816  0.00  0.00    +0.000 C 
ENDROOT
BRANCH   1  10
ATOM      3  C   UNL     1       1.899  10.530  18.422  0.00  0.00    +0.000 A 
ATOM      4  N   UNL     1       1.261  11.159  19.413  0.00  0.00    +0.000 NA
ATOM      5  O   UNL     1       0.953  10.157  20.330  0.00  0.00    +0.000 OA
ATOM      6  C   UNL     1       1.411   8.956  19.869  0.00  0.00    +0.000 A 
ATOM      7  C   UNL     1       1.284   7.718  20.507  0.00  0.00    +0.000 A 
ATOM      8  C   UNL     1       0.594   7.513  21.819  0.00  0.00    +0.000 C 
ATOM      9  C   UNL     1       1.855   6.627  19.816  0.00  0.00    +0.000 A 
ATOM     10  C   UNL     1       2.493   6.778  18.573  0.00  0.00    +0.000 A 
ATOM     11  C   UNL     1       2.583   8.045  17.974  0.00  0.00    +0.000 A 
ATOM     12  C   UNL     1       2.030   9.146  18.646  0.00  0.00    +0.000 A 
BRANCH   3  14
ATOM     13  C   UNL     1       2.764  12.534  17.587  0.00  0.00    +0.000 C 
ATOM     14  O   UNL     1       2.365  11.191  17.335  0.00  0.00    +0.000 OA
ENDBRANCH   3  14
ENDBRANCH   1  10
BRANCH   1  15
ATOM     15  C   UNL     1       4.417   5.696  17.231  0.00  0.00    +0.000 A 
ATOM     16  C   UNL     1       5.405   6.553  17.742  0.00  0.00    +0.000 A 
ATOM     17  C   UNL     1       6.653   6.722  17.108  0.00  0.00    +0.000 A 
ATOM     18  C   UNL     1       7.684   7.662  17.647  0.00  0.00    +0.000 C 
ATOM     19  C   UNL     1       6.837   5.968  15.944  0.00  0.00    +0.000 A 
ATOM     20  O   UNL     1       7.949   5.959  15.152  0.00  0.00    +0.000 OA
ATOM     21  N   UNL     1       7.756   5.087  14.084  0.00  0.00    +0.000 NA
ATOM     22  C   UNL     1       6.527   4.596  14.259  0.00  0.00    +0.000 A 
ATOM     23  C   UNL     1       5.893   5.106  15.410  0.00  0.00    +0.000 A 
ATOM     24  C   UNL     1       4.656   4.959  16.058  0.00  0.00    +0.000 A 
BRANCH  22  25
ATOM     25  O   UNL     1       5.983   3.701  13.400  0.00  0.00    +0.000 OA
ATOM     26  C   UNL     1       6.671   3.579  12.159  0.00  0.00    +0.000 C 
ENDBRANCH  22  25
ENDBRANCH   1  15
BRANCH   2  27
ATOM     27  C   UNL     1       1.049   4.140  18.355  0.00  0.00    +0.000 C 
BRANCH  27  28
ATOM     28  C   UNL     1       1.019   3.069  19.458  0.00  0.00    +0.000 C 
BRANCH  28  29
ATOM     29  N   UNL     1       2.343   2.765  19.986  0.00  0.00    +0.000 N 
ATOM     30  C   UNL     1       3.327   2.026  19.256  0.00  0.00    +0.000 C 
ATOM     31  C   UNL     1       4.465   1.956  20.247  0.00  0.00    +0.000 C 
ATOM     32  O   UNL     1       3.839   2.110  21.527  0.00  0.00    +0.000 OA
ATOM     33  C   UNL     1       2.608   2.673  21.334  0.00  0.00    +0.000 C 
ATOM     34  O   UNL     1       1.864   3.003  22.244  0.00  0.00    +0.000 OA
ENDBRANCH  28  29
ENDBRANCH  27  28
ENDBRANCH   2  27
TORSDOF 7
ENDMDL
MODEL 7
REMARK VINA RESULT:      -7.6      3.679      9.453
REMARK  Name = 
REMARK  11 active torsions:
REMARK  status: ('A' for Active; 'I' for Inactive)
REMARK    1  A    between atoms: C_1  and  O_2
REMARK    2  A    between atoms: O_2  and  C_3
REMARK    3  A    between atoms: C_7  and  C_8
REMARK    4  A    between atoms: C_10  and  C_11
REMARK    5  A    between atoms: C_11  and  C_21
REMARK    6  A    between atoms: C_12  and  C_13
REMARK    7  A    between atoms: C_13  and  C_14
REMARK    8  A    between atoms: C_14  and  N_15
REMARK    9  A    between atoms: C_23  and  C_24
REMARK   10  A    between atoms: C_28  and  O_29
REMARK   11  A    between atoms: O_29  and  C_30
REMARK                            x       y       z     vdW  Elec       q    Type
REMARK                         _______ _______ _______ _____ _____    ______ ____
ROOT
ATOM      1  C   UNL     1       1.569  10.271  18.351  0.00  0.00    +0.000 C 
ATOM      2  C   UNL     1       2.474  11.262  18.191  0.00  0.00    +0.000 C 
ENDROOT
BRANCH   1  10
ATOM      3  C   UNL     1      -3.319  10.203  16.914  0.00  0.00    +0.000 A 
ATOM      4  N   UNL     1      -4.393  10.749  17.493  0.00  0.00    +0.000 NA
ATOM      5  O   UNL     1      -3.902  11.368  18.640  0.00  0.00    +0.000 OA
ATOM      6  C   UNL     1      -2.552  11.180  18.722  0.00  0.00    +0.000 A 
ATOM      7  C   UNL     1      -1.708  11.646  19.735  0.00  0.00    +0.000 A 
ATOM      8  C   UNL     1      -2.171  12.428  20.924  0.00  0.00    +0.000 C 
ATOM      9  C   UNL     1      -0.345  11.319  19.576  0.00  0.00    +0.000 A 
ATOM     10  C   UNL     1       0.125  10.569  18.484  0.00  0.00    +0.000 A 
ATOM     11  C   UNL     1      -0.770  10.119  17.500  0.00  0.00    +0.000 A 
ATOM     12  C   UNL     1      -2.131  10.439  17.632  0.00  0.00    +0.000 A 
BRANCH   3  14
ATOM     13  C   UNL     1      -3.104  10.272  14.589  0.00  0.00    +0.000 C 
ATOM     14  O   UNL     1      -3.404   9.511  15.753  0.00  0.00    +0.000 OA
ENDBRANCH   3  14
ENDBRANCH   1  10
BRANCH   1  15
ATOM     15  C   UNL     1       2.083   8.884  18.460  0.00  0.00    +0.000 A 
ATOM     16  C   UNL     1       1.657   8.057  19.512  0.00  0.00    +0.000 A 
ATOM     17  C   UNL     1       2.164   6.754  19.696  0.00  0.00    +0.000 A 
ATOM     18  C   UNL     1       1.723   5.897  20.839  0.00  0.00    +0.000 C 
ATOM     19  C   UNL     1       3.109   6.344  18.749  0.00  0.00    +0.000 A 
ATOM     20  O   UNL     1       3.745   5.137  18.711  0.00  0.00    +0.000 OA
ATOM     21  N   UNL     1       4.615   5.101  17.625  0.00  0.00    +0.000 NA
ATOM     22  C   UNL     1       4.483   6.293  17.039  0.00  0.00    +0.000 A 
ATOM     23  C   UNL     1       3.550   7.123  17.693  0.00  0.00    +0.000 A 
ATOM     24  C   UNL     1       3.034   8.420  17.534  0.00  0.00    +0.000 A 
BRANCH  22  25
ATOM     25  O   UNL     1       5.187   6.629  15.931  0.00  0.00    +0.000 OA
ATOM     26  C   UNL     1       5.636   5.523  15.156  0.00  0.00    +0.000 C 
ENDBRANCH  22  25
ENDBRANCH   1  15
BRANCH   2  27
ATOM     27  C   UNL     1       2.180  12.745  18.133  0.00  0.00    +0.000 C 
BRANCH  27  28
ATOM     28  C   UNL     1       2.538  13.504  19.423  0.00  0.00    +0.000 C 
BRANCH  28  29
ATOM     29  N   UNL     1       1.414  14.254  19.967  0.00  0.00    +0.000 N 
ATOM     30  C   UNL     1       0.517  15.020  19.158  0.00  0.00    +0.000 C 
ATOM     31  C   UNL     1      -0.408  15.616  20.194  0.00  0.00    +0.000 C 
ATOM     32  O   UNL     1       0.361  15.622  21.403  0.00  0.00    +0.000 OA
ATOM     33  C   UNL     1       1.390  14.734  21.258  0.00  0.00    +0.000 C 
ATOM     34  O   UNL     1       2.176  14.455  22.150  0.00  0.00    +0.000 OA
ENDBRANCH  28  29
ENDBRANCH  27  28
ENDBRANCH   2  27
TORSDOF 7
ENDMDL
MODEL 8
REMARK VINA RESULT:      -7.5      3.903      9.704
REMARK  Name = 
REMARK  11 active torsions:
REMARK  status: ('A' for Active; 'I' for Inactive)
REMARK    1  A    between atoms: C_1  and  O_2
REMARK    2  A    between atoms: O_2  and  C_3
REMARK    3  A    between atoms: C_7  and  C_8
REMARK    4  A    between atoms: C_10  and  C_11
REMARK    5  A    between atoms: C_11  and  C_21
REMARK    6  A    between atoms: C_12  and  C_13
REMARK    7  A    between atoms: C_13  and  C_14
REMARK    8  A    between atoms: C_14  and  N_15
REMARK    9  A    between atoms: C_23  and  C_24
REMARK   10  A    between atoms: C_28  and  O_29
REMARK   11  A    between atoms: O_29  and  C_30
REMARK                            x       y       z     vdW  Elec       q    Type
REMARK                         _______ _______ _______ _____ _____    ______ ____
ROOT
ATOM      1  C   UNL     1       1.519  10.222  18.323  0.00  0.00    +0.000 C 
ATOM      2  C   UNL     1       2.433  11.200  18.132  0.00  0.00    +0.000 C 
ENDROOT
BRANCH   1  10
ATOM      3  C   UNL     1      -3.348  10.192  16.813  0.00  0.00    +0.000 A 
ATOM      4  N   UNL     1      -4.424  10.751  17.373  0.00  0.00    +0.000 NA
ATOM      5  O   UNL     1      -3.945  11.373  18.523  0.00  0.00    +0.000 OA
ATOM      6  C   UNL     1      -2.598  11.172  18.626  0.00  0.00    +0.000 A 
ATOM      7  C   UNL     1      -1.765  11.637  19.649  0.00  0.00    +0.000 A 
ATOM      8  C   UNL     1      -2.238  12.431  20.826  0.00  0.00    +0.000 C 
ATOM      9  C   UNL     1      -0.403  11.296  19.513  0.00  0.00    +0.000 A 
ATOM     10  C   UNL     1       0.075  10.534  18.432  0.00  0.00    +0.000 A 
ATOM     11  C   UNL     1      -0.809  10.086  17.438  0.00  0.00    +0.000 A 
ATOM     12  C   UNL     1      -2.168  10.421  17.547  0.00  0.00    +0.000 A 
BRANCH   3  14
ATOM     13  C   UNL     1      -3.324  10.288  14.479  0.00  0.00    +0.000 C 
ATOM     14  O   UNL     1      -3.422   9.493  15.655  0.00  0.00    +0.000 OA
ENDBRANCH   3  14
ENDBRANCH   1  10
BRANCH   1  15
ATOM     15  C   UNL     1       2.022   8.837  18.490  0.00  0.00    +0.000 A 
ATOM     16  C   UNL     1       1.613   8.068  19.592  0.00  0.00    +0.000 A 
ATOM     17  C   UNL     1       2.111   6.771  19.829  0.00  0.00    +0.000 A 
ATOM     18  C   UNL     1       1.688   5.976  21.023  0.00  0.00    +0.000 C 
ATOM     19  C   UNL     1       3.030   6.304  18.883  0.00  0.00    +0.000 A 
ATOM     20  O   UNL     1       3.654   5.090  18.891  0.00  0.00    +0.000 OA
ATOM     21  N   UNL     1       4.499   4.990  17.789  0.00  0.00    +0.000 NA
ATOM     22  C   UNL     1       4.364   6.153  17.147  0.00  0.00    +0.000 A 
ATOM     23  C   UNL     1       3.454   7.024  17.780  0.00  0.00    +0.000 A 
ATOM     24  C   UNL     1       2.947   8.317  17.568  0.00  0.00    +0.000 A 
BRANCH  22  25
ATOM     25  O   UNL     1       5.045   6.426  16.008  0.00  0.00    +0.000 OA
ATOM     26  C   UNL     1       6.032   5.459  15.663  0.00  0.00    +0.000 C 
ENDBRANCH  22  25
ENDBRANCH   1  15
BRANCH   2  27
ATOM     27  C   UNL     1       2.150  12.682  18.014  0.00  0.00    +0.000 C 
BRANCH  27  28
ATOM     28  C   UNL     1       2.711  13.519  19.176  0.00  0.00    +0.000 C 
BRANCH  28  29
ATOM     29  N   UNL     1       2.732  14.947  18.886  0.00  0.00    +0.000 N 
ATOM     30  C   UNL     1       1.567  15.776  18.943  0.00  0.00    +0.000 C 
ATOM     31  C   UNL     1       2.117  17.118  18.521  0.00  0.00    +0.000 C 
ATOM     32  O   UNL     1       3.284  16.804  17.751  0.00  0.00    +0.000 OA
ATOM     33  C   UNL     1       3.668  15.529  18.061  0.00  0.00    +0.000 C 
ATOM     34  O   UNL     1       4.679  15.001  17.625  0.00  0.00    +0.000 OA
ENDBRANCH  28  29
ENDBRANCH  27  28
ENDBRANCH   2  27
TORSDOF 7
ENDMDL
MODEL 9
REMARK VINA RESULT:      -7.5      0.922      2.354
REMARK  Name = 
REMARK  11 active torsions:
REMARK  status: ('A' for Active; 'I' for Inactive)
REMARK    1  A    between atoms: C_1  and  O_2
REMARK    2  A    between atoms: O_2  and  C_3
REMARK    3  A    between atoms: C_7  and  C_8
REMARK    4  A    between atoms: C_10  and  C_11
REMARK    5  A    between atoms: C_11  and  C_21
REMARK    6  A    between atoms: C_12  and  C_13
REMARK    7  A    between atoms: C_13  and  C_14
REMARK    8  A    between atoms: C_14  and  N_15
REMARK    9  A    between atoms: C_23  and  C_24
REMARK   10  A    between atoms: C_28  and  O_29
REMARK   11  A    between atoms: O_29  and  C_30
REMARK                            x       y       z     vdW  Elec       q    Type
REMARK                         _______ _______ _______ _____ _____    ______ ____
ROOT
ATOM      1  C   UNL     1       2.336   5.925  18.171  0.00  0.00    +0.000 C 
ATOM      2  C   UNL     1       1.328   5.025  18.162  0.00  0.00    +0.000 C 
ENDROOT
BRANCH   1  10
ATOM      3  C   UNL     1       7.303   5.139  18.997  0.00  0.00    +0.000 A 
ATOM      4  N   UNL     1       8.262   4.744  18.155  0.00  0.00    +0.000 NA
ATOM      5  O   UNL     1       7.613   4.564  16.936  0.00  0.00    +0.000 OA
ATOM      6  C   UNL     1       6.285   4.852  17.075  0.00  0.00    +0.000 A 
ATOM      7  C   UNL     1       5.311   4.782  16.076  0.00  0.00    +0.000 A 
ATOM      8  C   UNL     1       5.577   4.351  14.667  0.00  0.00    +0.000 C 
ATOM      9  C   UNL     1       4.008   5.143  16.482  0.00  0.00    +0.000 A 
ATOM     10  C   UNL     1       3.715   5.533  17.800  0.00  0.00    +0.000 A 
ATOM     11  C   UNL     1       4.734   5.578  18.767  0.00  0.00    +0.000 A 
ATOM     12  C   UNL     1       6.039   5.231  18.384  0.00  0.00    +0.000 A 
BRANCH   3  14
ATOM     13  C   UNL     1       8.850   5.019  20.744  0.00  0.00    +0.000 C 
ATOM     14  O   UNL     1       7.560   5.421  20.297  0.00  0.00    +0.000 OA
ENDBRANCH   3  14
ENDBRANCH   1  10
BRANCH   1  15
ATOM     15  C   UNL     1       2.024   7.300  18.634  0.00  0.00    +0.000 A 
ATOM     16  C   UNL     1       2.400   8.406  17.855  0.00  0.00    +0.000 A 
ATOM     17  C   UNL     1       2.184   9.732  18.280  0.00  0.00    +0.000 A 
ATOM     18  C   UNL     1       2.617  10.900  17.452  0.00  0.00    +0.000 C 
ATOM     19  C   UNL     1       1.559   9.864  19.525  0.00  0.00    +0.000 A 
ATOM     20  O   UNL     1       1.244  11.034  20.153  0.00  0.00    +0.000 OA
ATOM     21  N   UNL     1       0.634  10.761  21.374  0.00  0.00    +0.000 NA
ATOM     22  C   UNL     1       0.602   9.429  21.451  0.00  0.00    +0.000 A 
ATOM     23  C   UNL     1       1.165   8.802  20.321  0.00  0.00    +0.000 A 
ATOM     24  C   UNL     1       1.397   7.489  19.877  0.00  0.00    +0.000 A 
BRANCH  22  25
ATOM     25  O   UNL     1       0.072   8.785  22.519  0.00  0.00    +0.000 OA
ATOM     26  C   UNL     1      -0.003   9.569  23.705  0.00  0.00    +0.000 C 
ENDBRANCH  22  25
ENDBRANCH   1  15
BRANCH   2  27
ATOM     27  C   UNL     1       1.437   3.559  17.803  0.00  0.00    +0.000 C 
BRANCH  27  28
ATOM     28  C   UNL     1       1.328   2.611  19.009  0.00  0.00    +0.000 C 
BRANCH  28  29
ATOM     29  N   UNL     1       2.566   2.520  19.772  0.00  0.00    +0.000 N 
ATOM     30  C   UNL     1       3.771   1.956  19.246  0.00  0.00    +0.000 C 
ATOM     31  C   UNL     1       4.708   2.064  20.426  0.00  0.00    +0.000 C 
ATOM     32  O   UNL     1       3.846   2.105  21.569  0.00  0.00    +0.000 OA
ATOM     33  C   UNL     1       2.595   2.463  21.147  0.00  0.00    +0.000 C 
ATOM     34  O   UNL     1       1.656   2.661  21.901  0.00  0.00    +0.000 OA
ENDBRANCH  28  29
ENDBRANCH  27  28
ENDBRANCH   2  27
TORSDOF 7
ENDMDL
