MODEL 1
REMARK VINA RESULT:      -7.6      0.000      0.000
REMARK  Name = 
REMARK  12 active torsions:
REMARK  status: ('A' for Active; 'I' for Inactive)
REMARK    1  A    between atoms: C_1  and  N_2
REMARK    2  A    between atoms: C_3  and  C_5
REMARK    3  A    between atoms: C_5  and  N_6
REMARK    4  A    between atoms: N_6  and  C_7
REMARK    5  A    between atoms: N_6  and  C_12
REMARK    6  A    between atoms: C_7  and  C_8
REMARK    7  A    between atoms: N_10  and  C_11
REMARK    8  A    between atoms: C_12  and  C_13
REMARK    9  A    between atoms: C_16  and  C_17
REMARK   10  A    between atoms: C_17  and  O_18
REMARK   11  A    between atoms: O_18  and  C_19
REMARK   12  A    between atoms: C_19  and  C_20
REMARK                            x       y       z     vdW  Elec       q    Type
REMARK                         _______ _______ _______ _____ _____    ______ ____
ROOT
ATOM      1  C   UNL     1       2.872   7.087  18.293  0.00  0.00    +0.000 A 
ATOM      2  C   UNL     1       2.578   6.922  19.653  0.00  0.00    +0.000 A 
ATOM      3  C   UNL     1       1.749   7.831  20.303  0.00  0.00    +0.000 A 
ATOM      4  C   UNL     1       1.220   8.929  19.611  0.00  0.00    +0.000 A 
ATOM      5  C   UNL     1       1.570   9.132  18.272  0.00  0.00    +0.000 A 
ATOM      6  C   UNL     1       2.395   8.221  17.618  0.00  0.00    +0.000 A 
ENDROOT
BRANCH   1   7
ATOM      7  C   UNL     1       3.578   5.988  17.527  0.00  0.00    +0.000 C 
BRANCH   7   8
ATOM      8  N   UNL     1       3.231   4.651  18.060  0.00  0.00    +0.000 NA
BRANCH   8   9
ATOM      9  C   UNL     1       1.780   4.382  17.929  0.00  0.00    +0.000 C 
BRANCH   9  12
ATOM     10  C   UNL     1       1.350   2.728  21.327  0.00  0.00    +0.000 C 
ATOM     11  N   UNL     1       1.753   3.557  20.222  0.00  0.00    +0.000 N 
ATOM     12  C   UNL     1       1.324   3.328  18.934  0.00  0.00    +0.000 C 
ATOM     13  O   UNL     1       0.657   2.350  18.595  0.00  0.00    +0.000 OA
ATOM     14  H   UNL     1       2.382   4.337  20.375  0.00  0.00    +0.000 HD
ENDBRANCH   9  12
ENDBRANCH   8   9
BRANCH   8  15
ATOM     15  C   UNL     1       4.062   3.597  17.430  0.00  0.00    +0.000 C 
BRANCH  15  16
ATOM     16  C   UNL     1       5.475   4.051  17.043  0.00  0.00    +0.000 C 
ATOM     17  O   UNL     1       5.801   4.270  15.878  0.00  0.00    +0.000 OA
ATOM     18  N   UNL     1       6.341   4.191  18.108  0.00  0.00    +0.000 N 
ATOM     19  C   UNL     1       7.715   4.567  17.896  0.00  0.00    +0.000 C 
ATOM     20  H   UNL     1       6.115   3.711  18.978  0.00  0.00    +0.000 HD
ENDBRANCH  15  16
ENDBRANCH   8  15
ENDBRANCH   7   8
ENDBRANCH   1   7
BRANCH   4  21
ATOM     21  C   UNL     1       0.301   9.893  20.316  0.00  0.00    +0.000 C 
BRANCH  21  22
ATOM     22  O   UNL     1      -0.120  10.939  19.447  0.00  0.00    +0.000 OA
BRANCH  22  23
ATOM     23  C   UNL     1      -1.470  11.336  19.684  0.00  0.00    +0.000 C 
BRANCH  23  24
ATOM     24  C   UNL     1      -2.264  11.065  18.438  0.00  0.00    +0.000 A 
ATOM     25  C   UNL     1      -3.555  11.594  18.297  0.00  0.00    +0.000 A 
ATOM     26  C   UNL     1      -4.297  11.349  17.143  0.00  0.00    +0.000 A 
ATOM     27  C   UNL     1      -3.752  10.577  16.119  0.00  0.00    +0.000 A 
ATOM     28  C   UNL     1      -2.467  10.054  16.247  0.00  0.00    +0.000 A 
ATOM     29  C   UNL     1      -1.721  10.298  17.400  0.00  0.00    +0.000 A 
ENDBRANCH  23  24
ENDBRANCH  22  23
ENDBRANCH  21  22
ENDBRANCH   4  21
TORSDOF 10
ENDMDL
MODEL 2
REMARK VINA RESULT:      -7.4      1.427      2.108
REMARK  Name = 
REMARK  12 active torsions:
REMARK  status: ('A' for Active; 'I' for Inactive)
REMARK    1  A    between atoms: C_1  and  N_2
REMARK    2  A    between atoms: C_3  and  C_5
REMARK    3  A    between atoms: C_5  and  N_6
REMARK    4  A    between atoms: N_6  and  C_7
REMARK    5  A    between atoms: N_6  and  C_12
REMARK    6  A    between atoms: C_7  and  C_8
REMARK    7  A    between atoms: N_10  and  C_11
REMARK    8  A    between atoms: C_12  and  C_13
REMARK    9  A    between atoms: C_16  and  C_17
REMARK   10  A    between atoms: C_17  and  O_18
REMARK   11  A    between atoms: O_18  and  C_19
REMARK   12  A    between atoms: C_19  and  C_20
REMARK                            x       y       z     vdW  Elec       q    Type
REMARK                         _______ _______ _______ _____ _____    ______ ____
ROOT
ATOM      1  C   UNL     1       2.875   6.715  18.380  0.00  0.00    +0.000 A 
ATOM      2  C   UNL     1       2.544   7.902  17.712  0.00  0.00    +0.000 A 
ATOM      3  C   UNL     1       1.851   8.908  18.378  0.00  0.00    +0.000 A 
ATOM      4  C   UNL     1       1.459   8.736  19.712  0.00  0.00    +0.000 A 
ATOM      5  C   UNL     1       1.727   7.523  20.357  0.00  0.00    +0.000 A 
ATOM      6  C   UNL     1       2.425   6.517  19.695  0.00  0.00    +0.000 A 
ENDROOT
BRANCH   1   7
ATOM      7  C   UNL     1       3.820   5.719  17.743  0.00  0.00    +0.000 C 
BRANCH   7   8
ATOM      8  N   UNL     1       4.685   5.073  18.755  0.00  0.00    +0.000 NA
BRANCH   8   9
ATOM      9  C   UNL     1       4.525   3.599  18.734  0.00  0.00    +0.000 C 
BRANCH   9  12
ATOM     10  C   UNL     1       0.933   2.351  18.784  0.00  0.00    +0.000 C 
ATOM     11  N   UNL     1       2.227   2.858  18.410  0.00  0.00    +0.000 N 
ATOM     12  C   UNL     1       3.188   3.183  19.340  0.00  0.00    +0.000 C 
ATOM     13  O   UNL     1       2.997   3.176  20.556  0.00  0.00    +0.000 OA
ATOM     14  H   UNL     1       2.456   2.994  17.431  0.00  0.00    +0.000 HD
ENDBRANCH   9  12
ENDBRANCH   8   9
BRANCH   8  15
ATOM     15  C   UNL     1       6.098   5.492  18.593  0.00  0.00    +0.000 C 
BRANCH  15  16
ATOM     16  C   UNL     1       6.507   5.791  17.146  0.00  0.00    +0.000 C 
ATOM     17  O   UNL     1       6.619   6.937  16.714  0.00  0.00    +0.000 OA
ATOM     18  N   UNL     1       6.735   4.669  16.374  0.00  0.00    +0.000 N 
ATOM     19  C   UNL     1       7.081   4.790  14.981  0.00  0.00    +0.000 C 
ATOM     20  H   UNL     1       6.335   3.784  16.683  0.00  0.00    +0.000 HD
ENDBRANCH  15  16
ENDBRANCH   8  15
ENDBRANCH   7   8
ENDBRANCH   1   7
BRANCH   4  21
ATOM     21  C   UNL     1       0.733   9.841  20.434  0.00  0.00    +0.000 C 
BRANCH  21  22
ATOM     22  O   UNL     1      -0.634   9.907  20.042  0.00  0.00    +0.000 OA
BRANCH  22  23
ATOM     23  C   UNL     1      -0.985  11.176  19.492  0.00  0.00    +0.000 C 
BRANCH  23  24
ATOM     24  C   UNL     1      -1.941  10.946  18.357  0.00  0.00    +0.000 A 
ATOM     25  C   UNL     1      -1.588  10.093  17.301  0.00  0.00    +0.000 A 
ATOM     26  C   UNL     1      -2.471   9.872  16.246  0.00  0.00    +0.000 A 
ATOM     27  C   UNL     1      -3.716  10.498  16.240  0.00  0.00    +0.000 A 
ATOM     28  C   UNL     1      -4.079  11.340  17.289  0.00  0.00    +0.000 A 
ATOM     29  C   UNL     1      -3.198  11.563  18.348  0.00  0.00    +0.000 A 
ENDBRANCH  23  24
ENDBRANCH  22  23
ENDBRANCH  21  22
ENDBRANCH   4  21
TORSDOF 10
ENDMDL
MODEL 3
REMARK VINA RESULT:      -7.4      2.193      3.294
REMARK  Name = 
REMARK  12 active torsions:
REMARK  status: ('A' for Active; 'I' for Inactive)
REMARK    1  A    between atoms: C_1  and  N_2
REMARK    2  A    between atoms: C_3  and  C_5
REMARK    3  A    between atoms: C_5  and  N_6
REMARK    4  A    between atoms: N_6  and  C_7
REMARK    5  A    between atoms: N_6  and  C_12
REMARK    6  A    between atoms: C_7  and  C_8
REMARK    7  A    between atoms: N_10  and  C_11
REMARK    8  A    between atoms: C_12  and  C_13
REMARK    9  A    between atoms: C_16  and  C_17
REMARK   10  A    between atoms: C_17  and  O_18
REMARK   11  A    between atoms: O_18  and  C_19
REMARK   12  A    between atoms: C_19  and  C_20
REMARK                            x       y       z     vdW  Elec       q    Type
REMARK                         _______ _______ _______ _____ _____    ______ ____
ROOT
ATOM      1  C   UNL     1       2.991   6.213  18.437  0.00  0.00    +0.000 A 
ATOM      2  C   UNL     1       2.413   6.177  19.713  0.00  0.00    +0.000 A 
ATOM      3  C   UNL     1       1.802   7.313  20.235  0.00  0.00    +0.000 A 
ATOM      4  C   UNL     1       1.779   8.506  19.500  0.00  0.00    +0.000 A 
ATOM      5  C   UNL     1       2.418   8.562  18.257  0.00  0.00    +0.000 A 
ATOM      6  C   UNL     1       3.025   7.424  17.730  0.00  0.00    +0.000 A 
ENDROOT
BRANCH   1   7
ATOM      7  C   UNL     1       3.450   4.932  17.772  0.00  0.00    +0.000 C 
BRANCH   7   8
ATOM      8  N   UNL     1       4.925   4.877  17.668  0.00  0.00    +0.000 NA
BRANCH   8   9
ATOM      9  C   UNL     1       5.555   4.832  19.009  0.00  0.00    +0.000 C 
BRANCH   9  12
ATOM     10  C   UNL     1       7.941   7.634  18.049  0.00  0.00    +0.000 C 
ATOM     11  N   UNL     1       6.867   6.678  18.110  0.00  0.00    +0.000 N 
ATOM     12  C   UNL     1       6.830   5.669  19.045  0.00  0.00    +0.000 C 
ATOM     13  O   UNL     1       7.747   5.426  19.831  0.00  0.00    +0.000 OA
ATOM     14  H   UNL     1       6.103   6.729  17.445  0.00  0.00    +0.000 HD
ENDBRANCH   9  12
ENDBRANCH   8   9
BRANCH   8  15
ATOM     15  C   UNL     1       5.355   3.753  16.802  0.00  0.00    +0.000 C 
BRANCH  15  16
ATOM     16  C   UNL     1       6.310   4.156  15.671  0.00  0.00    +0.000 C 
ATOM     17  O   UNL     1       7.393   4.698  15.883  0.00  0.00    +0.000 OA
ATOM     18  N   UNL     1       5.849   3.861  14.404  0.00  0.00    +0.000 N 
ATOM     19  C   UNL     1       6.616   4.222  13.238  0.00  0.00    +0.000 C 
ATOM     20  H   UNL     1       4.850   3.708  14.279  0.00  0.00    +0.000 HD
ENDBRANCH  15  16
ENDBRANCH   8  15
ENDBRANCH   7   8
ENDBRANCH   1   7
BRANCH   4  21
ATOM     21  C   UNL     1       1.092   9.724  20.062  0.00  0.00    +0.000 C 
BRANCH  21  22
ATOM     22  O   UNL     1      -0.227   9.861  19.543  0.00  0.00    +0.000 OA
BRANCH  22  23
ATOM     23  C   UNL     1      -0.324  10.890  18.560  0.00  0.00    +0.000 C 
BRANCH  23  24
ATOM     24  C   UNL     1      -1.702  10.842  17.965  0.00  0.00    +0.000 A 
ATOM     25  C   UNL     1      -2.732  11.621  18.513  0.00  0.00    +0.000 A 
ATOM     26  C   UNL     1      -4.013  11.585  17.966  0.00  0.00    +0.000 A 
ATOM     27  C   UNL     1      -4.273  10.772  16.863  0.00  0.00    +0.000 A 
ATOM     28  C   UNL     1      -3.255  10.001  16.307  0.00  0.00    +0.000 A 
ATOM     29  C   UNL     1      -1.971  10.036  16.852  0.00  0.00    +0.000 A 
ENDBRANCH  23  24
ENDBRANCH  22  23
ENDBRANCH  21  22
ENDBRANCH   4  21
TORSDOF 10
ENDMDL
MODEL 4
REMARK VINA RESULT:      -7.4      1.622      3.910
REMARK  Name = 
REMARK  12 active torsions:
REMARK  status: ('A' for Active; 'I' for Inactive)
REMARK    1  A    between atoms: C_1  and  N_2
REMARK    2  A    between atoms: C_3  and  C_5
REMARK    3  A    between atoms: C_5  and  N_6
REMARK    4  A    between atoms: N_6  and  C_7
REMARK    5  A    between atoms: N_6  and  C_12
REMARK    6  A    between atoms: C_7  and  C_8
REMARK    7  A    between atoms: N_10  and  C_11
REMARK    8  A    between atoms: C_12  and  C_13
REMARK    9  A    between atoms: C_16  and  C_17
REMARK   10  A    between atoms: C_17  and  O_18
REMARK   11  A    between atoms: O_18  and  C_19
REMARK   12  A    between atoms: C_19  and  C_20
REMARK                            x       y       z     vdW  Elec       q    Type
REMARK                         _______ _______ _______ _____ _____    ______ ____
ROOT
ATOM      1  C   UNL     1       3.535   6.062  18.840  0.00  0.00    +0.000 A 
ATOM      2  C   UNL     1       3.401   7.067  17.872  0.00  0.00    +0.000 A 
ATOM      3  C   UNL     1       2.571   8.158  18.109  0.00  0.00    +0.000 A 
ATOM      4  C   UNL     1       1.846   8.251  19.305  0.00  0.00    +0.000 A 
ATOM      5  C   UNL     1       1.925   7.213  20.241  0.00  0.00    +0.000 A 
ATOM      6  C   UNL     1       2.760   6.123  20.008  0.00  0.00    +0.000 A 
ENDROOT
BRANCH   1   7
ATOM      7  C   UNL     1       4.603   4.998  18.692  0.00  0.00    +0.000 C 
BRANCH   7   8
ATOM      8  N   UNL     1       4.579   4.396  17.341  0.00  0.00    +0.000 NA
BRANCH   8   9
ATOM      9  C   UNL     1       5.940   4.335  16.757  0.00  0.00    +0.000 C 
BRANCH   9  12
ATOM     10  C   UNL     1       6.263   3.704  13.020  0.00  0.00    +0.000 C 
ATOM     11  N   UNL     1       6.309   3.623  14.456  0.00  0.00    +0.000 N 
ATOM     12  C   UNL     1       5.914   4.662  15.267  0.00  0.00    +0.000 C 
ATOM     13  O   UNL     1       5.593   5.775  14.850  0.00  0.00    +0.000 OA
ATOM     14  H   UNL     1       6.650   2.780  14.906  0.00  0.00    +0.000 HD
ENDBRANCH   9  12
ENDBRANCH   8   9
BRANCH   8  15
ATOM     15  C   UNL     1       3.910   3.072  17.361  0.00  0.00    +0.000 C 
BRANCH  15  16
ATOM     16  C   UNL     1       2.417   3.123  17.704  0.00  0.00    +0.000 C 
ATOM     17  O   UNL     1       1.605   3.749  17.024  0.00  0.00    +0.000 OA
ATOM     18  N   UNL     1       2.066   2.412  18.833  0.00  0.00    +0.000 N 
ATOM     19  C   UNL     1       0.706   2.404  19.307  0.00  0.00    +0.000 C 
ATOM     20  H   UNL     1       2.798   2.185  19.505  0.00  0.00    +0.000 HD
ENDBRANCH  15  16
ENDBRANCH   8  15
ENDBRANCH   7   8
ENDBRANCH   1   7
BRANCH   4  21
ATOM     21  C   UNL     1       0.970   9.449  19.565  0.00  0.00    +0.000 C 
BRANCH  21  22
ATOM     22  O   UNL     1       0.848  10.264  18.404  0.00  0.00    +0.000 OA
BRANCH  22  23
ATOM     23  C   UNL     1       0.068  11.436  18.639  0.00  0.00    +0.000 C 
BRANCH  23  24
ATOM     24  C   UNL     1      -1.362  11.122  18.302  0.00  0.00    +0.000 A 
ATOM     25  C   UNL     1      -2.401  11.866  18.880  0.00  0.00    +0.000 A 
ATOM     26  C   UNL     1      -3.730  11.584  18.570  0.00  0.00    +0.000 A 
ATOM     27  C   UNL     1      -4.030  10.557  17.676  0.00  0.00    +0.000 A 
ATOM     28  C   UNL     1      -3.005   9.818  17.091  0.00  0.00    +0.000 A 
ATOM     29  C   UNL     1      -1.673  10.099  17.398  0.00  0.00    +0.000 A 
ENDBRANCH  23  24
ENDBRANCH  22  23
ENDBRANCH  21  22
ENDBRANCH   4  21
TORSDOF 10
ENDMDL
MODEL 5
REMARK VINA RESULT:      -7.4      3.323      8.213
REMARK  Name = 
REMARK  12 active torsions:
REMARK  status: ('A' for Active; 'I' for Inactive)
REMARK    1  A    between atoms: C_1  and  N_2
REMARK    2  A    between atoms: C_3  and  C_5
REMARK    3  A    between atoms: C_5  and  N_6
REMARK    4  A    between atoms: N_6  and  C_7
REMARK    5  A    between atoms: N_6  and  C_12
REMARK    6  A    between atoms: C_7  and  C_8
REMARK    7  A    between atoms: N_10  and  C_11
REMARK    8  A    between atoms: C_12  and  C_13
REMARK    9  A    between atoms: C_16  and  C_17
REMARK   10  A    between atoms: C_17  and  O_18
REMARK   11  A    between atoms: O_18  and  C_19
REMARK   12  A    between atoms: C_19  and  C_20
REMARK                            x       y       z     vdW  Elec       q    Type
REMARK                         _______ _______ _______ _____ _____    ______ ____
ROOT
ATOM      1  C   UNL     1       1.185   9.091  19.946  0.00  0.00    +0.000 A 
ATOM      2  C   UNL     1       1.609   7.846  20.429  0.00  0.00    +0.000 A 
ATOM      3  C   UNL     1       2.402   7.023  19.636  0.00  0.00    +0.000 A 
ATOM      4  C   UNL     1       2.765   7.421  18.342  0.00  0.00    +0.000 A 
ATOM      5  C   UNL     1       2.283   8.632  17.833  0.00  0.00    +0.000 A 
ATOM      6  C   UNL     1       1.494   9.460  18.628  0.00  0.00    +0.000 A 
ENDROOT
BRANCH   1   7
ATOM      7  C   UNL     1       0.522  10.084  20.877  0.00  0.00    +0.000 C 
BRANCH   7   8
ATOM      8  N   UNL     1       0.201  11.348  20.176  0.00  0.00    +0.000 NA
BRANCH   8   9
ATOM      9  C   UNL     1      -1.241  11.425  19.842  0.00  0.00    +0.000 C 
BRANCH   9  12
ATOM     10  C   UNL     1      -2.479  10.825  16.296  0.00  0.00    +0.000 C 
ATOM     11  N   UNL     1      -2.108  10.705  17.681  0.00  0.00    +0.000 N 
ATOM     12  C   UNL     1      -1.446  11.705  18.356  0.00  0.00    +0.000 C 
ATOM     13  O   UNL     1      -1.021  12.731  17.822  0.00  0.00    +0.000 OA
ATOM     14  H   UNL     1      -2.325   9.858  18.194  0.00  0.00    +0.000 HD
ENDBRANCH   9  12
ENDBRANCH   8   9
BRANCH   8  15
ATOM     15  C   UNL     1       0.665  12.520  20.957  0.00  0.00    +0.000 C 
BRANCH  15  16
ATOM     16  C   UNL     1       1.982  13.130  20.460  0.00  0.00    +0.000 C 
ATOM     17  O   UNL     1       2.900  13.427  21.222  0.00  0.00    +0.000 OA
ATOM     18  N   UNL     1       2.045  13.315  19.094  0.00  0.00    +0.000 N 
ATOM     19  C   UNL     1       3.202  13.921  18.485  0.00  0.00    +0.000 C 
ATOM     20  H   UNL     1       1.171  13.343  18.571  0.00  0.00    +0.000 HD
ENDBRANCH  15  16
ENDBRANCH   8  15
ENDBRANCH   7   8
ENDBRANCH   1   7
BRANCH   4  21
ATOM     21  C   UNL     1       3.647   6.535  17.500  0.00  0.00    +0.000 C 
BRANCH  21  22
ATOM     22  O   UNL     1       4.255   5.513  18.283  0.00  0.00    +0.000 OA
BRANCH  22  23
ATOM     23  C   UNL     1       3.805   4.208  17.921  0.00  0.00    +0.000 C 
BRANCH  23  24
ATOM     24  C   UNL     1       2.911   3.700  19.018  0.00  0.00    +0.000 A 
ATOM     25  C   UNL     1       1.525   3.630  18.819  0.00  0.00    +0.000 A 
ATOM     26  C   UNL     1       0.690   3.158  19.830  0.00  0.00    +0.000 A 
ATOM     27  C   UNL     1       1.235   2.748  21.046  0.00  0.00    +0.000 A 
ATOM     28  C   UNL     1       2.612   2.807  21.249  0.00  0.00    +0.000 A 
ATOM     29  C   UNL     1       3.451   3.278  20.238  0.00  0.00    +0.000 A 
ENDBRANCH  23  24
ENDBRANCH  22  23
ENDBRANCH  21  22
ENDBRANCH   4  21
TORSDOF 10
ENDMDL
MODEL 6
REMARK VINA RESULT:      -7.4      1.513      3.892
REMARK  Name = 
REMARK  12 active torsions:
REMARK  status: ('A' for Active; 'I' for Inactive)
REMARK    1  A    between atoms: C_1  and  N_2
REMARK    2  A    between atoms: C_3  and  C_5
REMARK    3  A    between atoms: C_5  and  N_6
REMARK    4  A    between atoms: N_6  and  C_7
REMARK    5  A    between atoms: N_6  and  C_12
REMARK    6  A    between atoms: C_7  and  C_8
REMARK    7  A    between atoms: N_10  and  C_11
REMARK    8  A    between atoms: C_12  and  C_13
REMARK    9  A    between atoms: C_16  and  C_17
REMARK   10  A    between atoms: C_17  and  O_18
REMARK   11  A    between atoms: O_18  and  C_19
REMARK   12  A    between atoms: C_19  and  C_20
REMARK                            x       y       z     vdW  Elec       q    Type
REMARK                         _______ _______ _______ _____ _____    ______ ____
ROOT
ATOM      1  C   UNL     1       3.167   6.089  19.041  0.00  0.00    +0.000 A 
ATOM      2  C   UNL     1       3.138   7.075  18.045  0.00  0.00    +0.000 A 
ATOM      3  C   UNL     1       2.411   8.245  18.241  0.00  0.00    +0.000 A 
ATOM      4  C   UNL     1       1.684   8.438  19.424  0.00  0.00    +0.000 A 
ATOM      5  C   UNL     1       1.656   7.424  20.388  0.00  0.00    +0.000 A 
ATOM      6  C   UNL     1       2.388   6.255  20.196  0.00  0.00    +0.000 A 
ENDROOT
BRANCH   1   7
ATOM      7  C   UNL     1       4.131   4.927  18.935  0.00  0.00    +0.000 C 
BRANCH   7   8
ATOM      8  N   UNL     1       4.577   4.722  17.539  0.00  0.00    +0.000 NA
BRANCH   8   9
ATOM      9  C   UNL     1       6.056   4.691  17.448  0.00  0.00    +0.000 C 
BRANCH   9  12
ATOM     10  C   UNL     1       7.830   8.053  17.596  0.00  0.00    +0.000 C 
ATOM     11  N   UNL     1       7.176   6.808  17.901  0.00  0.00    +0.000 N 
ATOM     12  C   UNL     1       6.602   6.019  16.931  0.00  0.00    +0.000 C 
ATOM     13  O   UNL     1       6.499   6.350  15.749  0.00  0.00    +0.000 OA
ATOM     14  H   UNL     1       7.119   6.486  18.862  0.00  0.00    +0.000 HD
ENDBRANCH   9  12
ENDBRANCH   8   9
BRANCH   8  15
ATOM     15  C   UNL     1       3.948   3.513  16.953  0.00  0.00    +0.000 C 
BRANCH  15  16
ATOM     16  C   UNL     1       3.136   2.677  17.949  0.00  0.00    +0.000 C 
ATOM     17  O   UNL     1       3.649   1.811  18.657  0.00  0.00    +0.000 OA
ATOM     18  N   UNL     1       1.790   2.976  17.980  0.00  0.00    +0.000 N 
ATOM     19  C   UNL     1       0.890   2.241  18.833  0.00  0.00    +0.000 C 
ATOM     20  H   UNL     1       1.386   3.460  17.180  0.00  0.00    +0.000 HD
ENDBRANCH  15  16
ENDBRANCH   8  15
ENDBRANCH   7   8
ENDBRANCH   1   7
BRANCH   4  21
ATOM     21  C   UNL     1       0.922   9.719  19.640  0.00  0.00    +0.000 C 
BRANCH  21  22
ATOM     22  O   UNL     1       0.009   9.966  18.575  0.00  0.00    +0.000 OA
BRANCH  22  23
ATOM     23  C   UNL     1      -1.120  10.734  18.991  0.00  0.00    +0.000 C 
BRANCH  23  24
ATOM     24  C   UNL     1      -2.131  10.720  17.880  0.00  0.00    +0.000 A 
ATOM     25  C   UNL     1      -1.924   9.914  16.751  0.00  0.00    +0.000 A 
ATOM     26  C   UNL     1      -2.858   9.893  15.717  0.00  0.00    +0.000 A 
ATOM     27  C   UNL     1      -4.009  10.675  15.806  0.00  0.00    +0.000 A 
ATOM     28  C   UNL     1      -4.226  11.472  16.927  0.00  0.00    +0.000 A 
ATOM     29  C   UNL     1      -3.293  11.495  17.965  0.00  0.00    +0.000 A 
ENDBRANCH  23  24
ENDBRANCH  22  23
ENDBRANCH  21  22
ENDBRANCH   4  21
TORSDOF 10
ENDMDL
MODEL 7
REMARK VINA RESULT:      -7.3      1.691      2.093
REMARK  Name = 
REMARK  12 active torsions:
REMARK  status: ('A' for Active; 'I' for Inactive)
REMARK    1  A    between atoms: C_1  and  N_2
REMARK    2  A    between atoms: C_3  and  C_5
REMARK    3  A    between atoms: C_5  and  N_6
REMARK    4  A    between atoms: N_6  and  C_7
REMARK    5  A    between atoms: N_6  and  C_12
REMARK    6  A    between atoms: C_7  and  C_8
REMARK    7  A    between atoms: N_10  and  C_11
REMARK    8  A    between atoms: C_12  and  C_13
REMARK    9  A    between atoms: C_16  and  C_17
REMARK   10  A    between atoms: C_17  and  O_18
REMARK   11  A    between atoms: O_18  and  C_19
REMARK   12  A    between atoms: C_19  and  C_20
REMARK                            x       y       z     vdW  Elec       q    Type
REMARK                         _______ _______ _______ _____ _____    ______ ____
ROOT
ATOM      1  C   UNL     1       3.234   6.729  18.151  0.00  0.00    +0.000 A 
ATOM      2  C   UNL     1       2.867   6.343  19.447  0.00  0.00    +0.000 A 
ATOM      3  C   UNL     1       2.055   7.168  20.218  0.00  0.00    +0.000 A 
ATOM      4  C   UNL     1       1.616   8.401  19.715  0.00  0.00    +0.000 A 
ATOM      5  C   UNL     1       2.040   8.818  18.449  0.00  0.00    +0.000 A 
ATOM      6  C   UNL     1       2.848   7.991  17.673  0.00  0.00    +0.000 A 
ENDROOT
BRANCH   1   7
ATOM      7  C   UNL     1       3.919   5.744  17.226  0.00  0.00    +0.000 C 
BRANCH   7   8
ATOM      8  N   UNL     1       4.508   4.616  17.982  0.00  0.00    +0.000 NA
BRANCH   8   9
ATOM      9  C   UNL     1       3.811   3.344  17.677  0.00  0.00    +0.000 C 
BRANCH   9  12
ATOM     10  C   UNL     1       4.892   1.554  20.854  0.00  0.00    +0.000 C 
ATOM     11  N   UNL     1       4.841   2.260  19.601  0.00  0.00    +0.000 N 
ATOM     12  C   UNL     1       3.661   2.486  18.929  0.00  0.00    +0.000 C 
ATOM     13  O   UNL     1       2.574   2.020  19.273  0.00  0.00    +0.000 OA
ATOM     14  H   UNL     1       5.695   2.605  19.177  0.00  0.00    +0.000 HD
ENDBRANCH   9  12
ENDBRANCH   8   9
BRANCH   8  15
ATOM     15  C   UNL     1       5.971   4.531  17.754  0.00  0.00    +0.000 C 
BRANCH  15  16
ATOM     16  C   UNL     1       6.799   5.524  18.577  0.00  0.00    +0.000 C 
ATOM     17  O   UNL     1       6.883   5.457  19.802  0.00  0.00    +0.000 OA
ATOM     18  N   UNL     1       7.436   6.493  17.830  0.00  0.00    +0.000 N 
ATOM     19  C   UNL     1       8.213   7.525  18.468  0.00  0.00    +0.000 C 
ATOM     20  H   UNL     1       7.089   6.682  16.890  0.00  0.00    +0.000 HD
ENDBRANCH  15  16
ENDBRANCH   8  15
ENDBRANCH   7   8
ENDBRANCH   1   7
BRANCH   4  21
ATOM     21  C   UNL     1       0.715   9.276  20.547  0.00  0.00    +0.000 C 
BRANCH  21  22
ATOM     22  O   UNL     1      -0.547   9.471  19.915  0.00  0.00    +0.000 OA
BRANCH  22  23
ATOM     23  C   UNL     1      -0.705  10.796  19.410  0.00  0.00    +0.000 C 
BRANCH  23  24
ATOM     24  C   UNL     1      -1.783  10.772  18.363  0.00  0.00    +0.000 A 
ATOM     25  C   UNL     1      -1.628   9.986  17.213  0.00  0.00    +0.000 A 
ATOM     26  C   UNL     1      -2.624   9.955  16.239  0.00  0.00    +0.000 A 
ATOM     27  C   UNL     1      -3.785  10.708  16.410  0.00  0.00    +0.000 A 
ATOM     28  C   UNL     1      -3.951  11.486  17.553  0.00  0.00    +0.000 A 
ATOM     29  C   UNL     1      -2.956  11.518  18.531  0.00  0.00    +0.000 A 
ENDBRANCH  23  24
ENDBRANCH  22  23
ENDBRANCH  21  22
ENDBRANCH   4  21
TORSDOF 10
ENDMDL
MODEL 8
REMARK VINA RESULT:      -7.3      0.900      3.593
REMARK  Name = 
REMARK  12 active torsions:
REMARK  status: ('A' for Active; 'I' for Inactive)
REMARK    1  A    between atoms: C_1  and  N_2
REMARK    2  A    between atoms: C_3  and  C_5
REMARK    3  A    between atoms: C_5  and  N_6
REMARK    4  A    between atoms: N_6  and  C_7
REMARK    5  A    between atoms: N_6  and  C_12
REMARK    6  A    between atoms: C_7  and  C_8
REMARK    7  A    between atoms: N_10  and  C_11
REMARK    8  A    between atoms: C_12  and  C_13
REMARK    9  A    between atoms: C_16  and  C_17
REMARK   10  A    between atoms: C_17  and  O_18
REMARK   11  A    between atoms: O_18  and  C_19
REMARK   12  A    between atoms: C_19  and  C_20
REMARK                            x       y       z     vdW  Elec       q    Type
REMARK                         _______ _______ _______ _____ _____    ______ ____
ROOT
ATOM      1  C   UNL     1       2.459   6.999  19.082  0.00  0.00    +0.000 A 
ATOM      2  C   UNL     1       2.343   7.810  17.945  0.00  0.00    +0.000 A 
ATOM      3  C   UNL     1       1.712   9.047  18.030  0.00  0.00    +0.000 A 
ATOM      4  C   UNL     1       1.167   9.482  19.246  0.00  0.00    +0.000 A 
ATOM      5  C   UNL     1       1.220   8.643  20.365  0.00  0.00    +0.000 A 
ATOM      6  C   UNL     1       1.857   7.407  20.282  0.00  0.00    +0.000 A 
ENDROOT
BRANCH   1   7
ATOM      7  C   UNL     1       3.338   5.767  19.054  0.00  0.00    +0.000 C 
BRANCH   7   8
ATOM      8  N   UNL     1       2.939   4.845  17.967  0.00  0.00    +0.000 NA
BRANCH   8   9
ATOM      9  C   UNL     1       4.006   3.857  17.684  0.00  0.00    +0.000 C 
BRANCH   9  12
ATOM     10  C   UNL     1       7.723   4.659  17.762  0.00  0.00    +0.000 C 
ATOM     11  N   UNL     1       6.394   4.187  18.044  0.00  0.00    +0.000 N 
ATOM     12  C   UNL     1       5.305   4.550  17.284  0.00  0.00    +0.000 C 
ATOM     13  O   UNL     1       5.347   5.382  16.377  0.00  0.00    +0.000 OA
ATOM     14  H   UNL     1       6.230   3.569  18.831  0.00  0.00    +0.000 HD
ENDBRANCH   9  12
ENDBRANCH   8   9
BRANCH   8  15
ATOM     15  C   UNL     1       1.636   4.203  18.266  0.00  0.00    +0.000 C 
BRANCH  15  16
ATOM     16  C   UNL     1       1.441   3.826  19.739  0.00  0.00    +0.000 C 
ATOM     17  O   UNL     1       0.562   4.327  20.438  0.00  0.00    +0.000 OA
ATOM     18  N   UNL     1       2.332   2.883  20.209  0.00  0.00    +0.000 N 
ATOM     19  C   UNL     1       2.301   2.462  21.587  0.00  0.00    +0.000 C 
ATOM     20  H   UNL     1       3.201   2.743  19.696  0.00  0.00    +0.000 HD
ENDBRANCH  15  16
ENDBRANCH   8  15
ENDBRANCH   7   8
ENDBRANCH   1   7
BRANCH   4  21
ATOM     21  C   UNL     1       0.509  10.835  19.336  0.00  0.00    +0.000 C 
BRANCH  21  22
ATOM     22  O   UNL     1      -0.875  10.719  19.647  0.00  0.00    +0.000 OA
BRANCH  22  23
ATOM     23  C   UNL     1      -1.648  11.790  19.105  0.00  0.00    +0.000 C 
BRANCH  23  24
ATOM     24  C   UNL     1      -2.417  11.262  17.927  0.00  0.00    +0.000 A 
ATOM     25  C   UNL     1      -1.841  10.303  17.083  0.00  0.00    +0.000 A 
ATOM     26  C   UNL     1      -2.549   9.806  15.990  0.00  0.00    +0.000 A 
ATOM     27  C   UNL     1      -3.841  10.262  15.736  0.00  0.00    +0.000 A 
ATOM     28  C   UNL     1      -4.426  11.209  16.574  0.00  0.00    +0.000 A 
ATOM     29  C   UNL     1      -3.719  11.707  17.670  0.00  0.00    +0.000 A 
ENDBRANCH  23  24
ENDBRANCH  22  23
ENDBRANCH  21  22
ENDBRANCH   4  21
TORSDOF 10
ENDMDL
MODEL 9
REMARK VINA RESULT:      -7.2      1.383      3.732
REMARK  Name = 
REMARK  12 active torsions:
REMARK  status: ('A' for Active; 'I' for Inactive)
REMARK    1  A    between atoms: C_1  and  N_2
REMARK    2  A    between atoms: C_3  and  C_5
REMARK    3  A    between atoms: C_5  and  N_6
REMARK    4  A    between atoms: N_6  and  C_7
REMARK    5  A    between atoms: N_6  and  C_12
REMARK    6  A    between atoms: C_7  and  C_8
REMARK    7  A    between atoms: N_10  and  C_11
REMARK    8  A    between atoms: C_12  and  C_13
REMARK    9  A    between atoms: C_16  and  C_17
REMARK   10  A    between atoms: C_17  and  O_18
REMARK   11  A    between atoms: O_18  and  C_19
REMARK   12  A    between atoms: C_19  and  C_20
REMARK                            x       y       z     vdW  Elec       q    Type
REMARK                         _______ _______ _______ _____ _____    ______ ____
ROOT
ATOM      1  C   UNL     1       2.315   7.510  19.111  0.00  0.00    +0.000 A 
ATOM      2  C   UNL     1       2.222   8.184  17.885  0.00  0.00    +0.000 A 
ATOM      3  C   UNL     1       1.614   9.434  17.821  0.00  0.00    +0.000 A 
ATOM      4  C   UNL     1       1.071  10.019  18.973  0.00  0.00    +0.000 A 
ATOM      5  C   UNL     1       1.101   9.315  20.182  0.00  0.00    +0.000 A 
ATOM      6  C   UNL     1       1.714   8.067  20.250  0.00  0.00    +0.000 A 
ENDROOT
BRANCH   1   7
ATOM      7  C   UNL     1       3.170   6.267  19.234  0.00  0.00    +0.000 C 
BRANCH   7   8
ATOM      8  N   UNL     1       3.404   5.641  17.913  0.00  0.00    +0.000 NA
BRANCH   8   9
ATOM      9  C   UNL     1       4.847   5.395  17.684  0.00  0.00    +0.000 C 
BRANCH   9  12
ATOM     10  C   UNL     1       5.847   4.223  14.207  0.00  0.00    +0.000 C 
ATOM     11  N   UNL     1       5.571   4.332  15.615  0.00  0.00    +0.000 N 
ATOM     12  C   UNL     1       5.197   5.518  16.204  0.00  0.00    +0.000 C 
ATOM     13  O   UNL     1       5.171   6.599  15.615  0.00  0.00    +0.000 OA
ATOM     14  H   UNL     1       5.656   3.517  16.213  0.00  0.00    +0.000 HD
ENDBRANCH   9  12
ENDBRANCH   8   9
BRANCH   8  15
ATOM     15  C   UNL     1       2.588   4.413  17.756  0.00  0.00    +0.000 C 
BRANCH  15  16
ATOM     16  C   UNL     1       2.556   3.511  18.996  0.00  0.00    +0.000 C 
ATOM     17  O   UNL     1       3.452   2.709  19.252  0.00  0.00    +0.000 OA
ATOM     18  N   UNL     1       1.441   3.676  19.792  0.00  0.00    +0.000 N 
ATOM     19  C   UNL     1       1.248   2.866  20.968  0.00  0.00    +0.000 C 
ATOM     20  H   UNL     1       0.616   4.109  19.380  0.00  0.00    +0.000 HD
ENDBRANCH  15  16
ENDBRANCH   8  15
ENDBRANCH   7   8
ENDBRANCH   1   7
BRANCH   4  21
ATOM     21  C   UNL     1       0.439  11.385  18.899  0.00  0.00    +0.000 C 
BRANCH  21  22
ATOM     22  O   UNL     1      -0.904  11.362  19.372  0.00  0.00    +0.000 OA
BRANCH  22  23
ATOM     23  C   UNL     1      -1.581  10.153  19.034  0.00  0.00    +0.000 C 
BRANCH  23  24
ATOM     24  C   UNL     1      -2.393  10.401  17.795  0.00  0.00    +0.000 A 
ATOM     25  C   UNL     1      -2.020   9.809  16.580  0.00  0.00    +0.000 A 
ATOM     26  C   UNL     1      -2.770  10.032  15.426  0.00  0.00    +0.000 A 
ATOM     27  C   UNL     1      -3.901  10.845  15.480  0.00  0.00    +0.000 A 
ATOM     28  C   UNL     1      -4.283  11.430  16.684  0.00  0.00    +0.000 A 
ATOM     29  C   UNL     1      -3.536  11.208  17.842  0.00  0.00    +0.000 A 
ENDBRANCH  23  24
ENDBRANCH  22  23
ENDBRANCH  21  22
ENDBRANCH   4  21
TORSDOF 10
ENDMDL
