MODEL 1
REMARK VINA RESULT:      -8.0      0.000      0.000
REMARK  Name = 
REMARK  6 active torsions:
REMARK  status: ('A' for Active; 'I' for Inactive)
REMARK    1  A    between atoms: C_1  and  C_2
REMARK    2  A    between atoms: C_7  and  N_8
REMARK    3  A    between atoms: C_13  and  C_14
REMARK    4  A    between atoms: N_16  and  C_17
REMARK    5  A    between atoms: N_21  and  C_22
REMARK    6  A    between atoms: C_22  and  C_23
REMARK                            x       y       z     vdW  Elec       q    Type
REMARK                         _______ _______ _______ _____ _____    ______ ____
ROOT
ATOM      1  N   UNL     1       0.859  10.499  19.303  0.00  0.00    +0.000 N 
ATOM      2  C   UNL     1      -0.333  10.705  18.648  0.00  0.00    +0.000 A 
ATOM      3  N   UNL     1      -0.730   9.861  17.737  0.00  0.00    +0.000 NA
ATOM      4  C   UNL     1      -1.896  10.065  17.050  0.00  0.00    +0.000 A 
ATOM      5  O   UNL     1      -2.197   9.385  16.072  0.00  0.00    +0.000 OA
ATOM      6  C   UNL     1      -2.825  11.117  17.527  0.00  0.00    +0.000 A 
ATOM      7  C   UNL     1      -2.340  11.957  18.455  0.00  0.00    +0.000 A 
ATOM      8  N   UNL     1      -1.064  11.839  18.996  0.00  0.00    +0.000 N 
ATOM      9  H   UNL     1       1.562  11.194  19.082  0.00  0.00    +0.000 HD
ENDROOT
BRANCH   1  16
ATOM     10  C   UNL     1       3.883   3.574  18.420  0.00  0.00    +0.000 C 
ATOM     11  C   UNL     1       3.335   4.917  18.757  0.00  0.00    +0.000 A 
ATOM     12  N   UNL     1       2.688   5.196  19.867  0.00  0.00    +0.000 NA
ATOM     13  C   UNL     1       2.271   6.519  19.852  0.00  0.00    +0.000 A 
ATOM     14  C   UNL     1       1.525   7.164  20.856  0.00  0.00    +0.000 A 
ATOM     15  C   UNL     1       1.095   8.489  20.673  0.00  0.00    +0.000 A 
ATOM     16  C   UNL     1       1.422   9.207  19.518  0.00  0.00    +0.000 A 
ATOM     17  C   UNL     1       2.224   8.586  18.539  0.00  0.00    +0.000 A 
ATOM     18  C   UNL     1       2.620   7.245  18.715  0.00  0.00    +0.000 A 
ATOM     19  S   UNL     1       3.529   6.227  17.662  0.00  0.00    +0.000 S 
ENDBRANCH   1  16
BRANCH   6  20
ATOM     20  C   UNL     1      -4.215  11.286  17.028  0.00  0.00    +0.000 C 
ATOM     21  O   UNL     1      -4.487  11.130  15.840  0.00  0.00    +0.000 OA
ATOM     22  N   UNL     1      -5.144  11.645  17.981  0.00  0.00    +0.000 N 
ATOM     23  H   UNL     1      -4.833  11.750  18.950  0.00  0.00    +0.000 HD
BRANCH  22  24
ATOM     24  C   UNL     1      -6.511  11.919  17.686  0.00  0.00    +0.000 C 
ATOM     25  C   UNL     1      -7.436  12.454  18.741  0.00  0.00    +0.000 C 
ATOM     26  C   UNL     1      -6.998  13.342  17.614  0.00  0.00    +0.000 C 
ENDBRANCH  22  24
ENDBRANCH   6  20
BRANCH   8  27
ATOM     27  C   UNL     1      -0.631  12.797  20.040  0.00  0.00    +0.000 C 
BRANCH  27  28
ATOM     28  C   UNL     1      -1.446  12.733  21.326  0.00  0.00    +0.000 A 
ATOM     29  C   UNL     1      -1.361  11.675  22.244  0.00  0.00    +0.000 A 
ATOM     30  C   UNL     1      -2.211  11.620  23.354  0.00  0.00    +0.000 A 
ATOM     31  C   UNL     1      -3.144  12.630  23.569  0.00  0.00    +0.000 A 
ATOM     32 CL   UNL     1      -4.248  12.511  24.883  0.00  0.00    +0.000 Cl
ATOM     33  C   UNL     1      -3.201  13.722  22.711  0.00  0.00    +0.000 A 
ATOM     34  C   UNL     1      -2.353  13.776  21.599  0.00  0.00    +0.000 A 
ENDBRANCH  27  28
ENDBRANCH   8  27
TORSDOF 5
ENDMDL
MODEL 2
REMARK VINA RESULT:      -7.8      3.145      4.124
REMARK  Name = 
REMARK  6 active torsions:
REMARK  status: ('A' for Active; 'I' for Inactive)
REMARK    1  A    between atoms: C_1  and  C_2
REMARK    2  A    between atoms: C_7  and  N_8
REMARK    3  A    between atoms: C_13  and  C_14
REMARK    4  A    between atoms: N_16  and  C_17
REMARK    5  A    between atoms: N_21  and  C_22
REMARK    6  A    between atoms: C_22  and  C_23
REMARK                            x       y       z     vdW  Elec       q    Type
REMARK                         _______ _______ _______ _____ _____    ______ ____
ROOT
ATOM      1  N   UNL     1       1.905   9.992  18.702  0.00  0.00    +0.000 N 
ATOM      2  C   UNL     1       0.627  10.498  18.756  0.00  0.00    +0.000 A 
ATOM      3  N   UNL     1      -0.358   9.840  18.210  0.00  0.00    +0.000 NA
ATOM      4  C   UNL     1      -1.631  10.342  18.222  0.00  0.00    +0.000 A 
ATOM      5  O   UNL     1      -2.533   9.831  17.565  0.00  0.00    +0.000 OA
ATOM      6  C   UNL     1      -1.921  11.515  19.082  0.00  0.00    +0.000 A 
ATOM      7  C   UNL     1      -0.856  12.148  19.597  0.00  0.00    +0.000 A 
ATOM      8  N   UNL     1       0.452  11.721  19.399  0.00  0.00    +0.000 N 
ATOM      9  H   UNL     1       2.530  10.544  18.127  0.00  0.00    +0.000 HD
ENDROOT
BRANCH   1  16
ATOM     10  C   UNL     1       3.283   2.691  20.343  0.00  0.00    +0.000 C 
ATOM     11  C   UNL     1       2.998   4.071  19.860  0.00  0.00    +0.000 A 
ATOM     12  N   UNL     1       3.459   4.573  18.735  0.00  0.00    +0.000 NA
ATOM     13  C   UNL     1       3.049   5.891  18.602  0.00  0.00    +0.000 A 
ATOM     14  C   UNL     1       3.376   6.757  17.541  0.00  0.00    +0.000 A 
ATOM     15  C   UNL     1       2.962   8.099  17.575  0.00  0.00    +0.000 A 
ATOM     16  C   UNL     1       2.194   8.598  18.632  0.00  0.00    +0.000 A 
ATOM     17  C   UNL     1       1.810   7.717  19.664  0.00  0.00    +0.000 A 
ATOM     18  C   UNL     1       2.260   6.382  19.640  0.00  0.00    +0.000 A 
ATOM     19  S   UNL     1       2.008   5.123  20.790  0.00  0.00    +0.000 S 
ENDBRANCH   1  16
BRANCH   6  20
ATOM     20  C   UNL     1      -3.292  12.012  19.373  0.00  0.00    +0.000 C 
ATOM     21  O   UNL     1      -3.610  12.371  20.505  0.00  0.00    +0.000 OA
ATOM     22  N   UNL     1      -4.159  12.012  18.303  0.00  0.00    +0.000 N 
ATOM     23  H   UNL     1      -3.811  11.700  17.392  0.00  0.00    +0.000 HD
BRANCH  22  24
ATOM     24  C   UNL     1      -5.531  12.387  18.399  0.00  0.00    +0.000 C 
ATOM     25  C   UNL     1      -6.365  12.586  17.166  0.00  0.00    +0.000 C 
ATOM     26  C   UNL     1      -6.611  11.398  18.048  0.00  0.00    +0.000 C 
ENDBRANCH  22  24
ENDBRANCH   6  20
BRANCH   8  27
ATOM     27  C   UNL     1       1.560  12.470  20.037  0.00  0.00    +0.000 C 
BRANCH  27  28
ATOM     28  C   UNL     1       1.925  13.770  19.332  0.00  0.00    +0.000 A 
ATOM     29  C   UNL     1       1.197  14.961  19.479  0.00  0.00    +0.000 A 
ATOM     30  C   UNL     1       1.518  16.095  18.724  0.00  0.00    +0.000 A 
ATOM     31  C   UNL     1       2.580  16.057  17.826  0.00  0.00    +0.000 A 
ATOM     32 CL   UNL     1       2.912  17.422  16.834  0.00  0.00    +0.000 Cl
ATOM     33  C   UNL     1       3.358  14.910  17.712  0.00  0.00    +0.000 A 
ATOM     34  C   UNL     1       3.036  13.776  18.465  0.00  0.00    +0.000 A 
ENDBRANCH  27  28
ENDBRANCH   8  27
TORSDOF 5
ENDMDL
MODEL 3
REMARK VINA RESULT:      -7.8      1.367      1.730
REMARK  Name = 
REMARK  6 active torsions:
REMARK  status: ('A' for Active; 'I' for Inactive)
REMARK    1  A    between atoms: C_1  and  C_2
REMARK    2  A    between atoms: C_7  and  N_8
REMARK    3  A    between atoms: C_13  and  C_14
REMARK    4  A    between atoms: N_16  and  C_17
REMARK    5  A    between atoms: N_21  and  C_22
REMARK    6  A    between atoms: C_22  and  C_23
REMARK                            x       y       z     vdW  Elec       q    Type
REMARK                         _______ _______ _______ _____ _____    ______ ____
ROOT
ATOM      1  N   UNL     1       1.511   9.784  19.181  0.00  0.00    +0.000 N 
ATOM      2  C   UNL     1       0.266  10.236  18.808  0.00  0.00    +0.000 A 
ATOM      3  N   UNL     1      -0.352   9.686  17.800  0.00  0.00    +0.000 NA
ATOM      4  C   UNL     1      -1.575  10.143  17.391  0.00  0.00    +0.000 A 
ATOM      5  O   UNL     1      -2.091   9.763  16.343  0.00  0.00    +0.000 OA
ATOM      6  C   UNL     1      -2.300  11.100  18.261  0.00  0.00    +0.000 A 
ATOM      7  C   UNL     1      -1.594  11.635  19.269  0.00  0.00    +0.000 A 
ATOM      8  N   UNL     1      -0.275  11.290  19.540  0.00  0.00    +0.000 N 
ATOM      9  H   UNL     1       2.248  10.460  19.019  0.00  0.00    +0.000 HD
ENDROOT
BRANCH   1  16
ATOM     10  C   UNL     1       3.748   2.571  20.111  0.00  0.00    +0.000 C 
ATOM     11  C   UNL     1       3.294   3.947  19.763  0.00  0.00    +0.000 A 
ATOM     12  N   UNL     1       3.661   4.596  18.680  0.00  0.00    +0.000 NA
ATOM     13  C   UNL     1       3.103   5.865  18.678  0.00  0.00    +0.000 A 
ATOM     14  C   UNL     1       3.298   6.854  17.695  0.00  0.00    +0.000 A 
ATOM     15  C   UNL     1       2.737   8.133  17.861  0.00  0.00    +0.000 A 
ATOM     16  C   UNL     1       1.951   8.443  18.976  0.00  0.00    +0.000 A 
ATOM     17  C   UNL     1       1.701   7.436  19.929  0.00  0.00    +0.000 A 
ATOM     18  C   UNL     1       2.297   6.168  19.773  0.00  0.00    +0.000 A 
ATOM     19  S   UNL     1       2.223   4.791  20.807  0.00  0.00    +0.000 S 
ENDBRANCH   1  16
BRANCH   6  20
ATOM     20  C   UNL     1      -3.722  11.491  18.062  0.00  0.00    +0.000 C 
ATOM     21  O   UNL     1      -4.233  11.479  16.944  0.00  0.00    +0.000 OA
ATOM     22  N   UNL     1      -4.391  11.879  19.202  0.00  0.00    +0.000 N 
ATOM     23  H   UNL     1      -3.891  11.854  20.095  0.00  0.00    +0.000 HD
BRANCH  22  24
ATOM     24  C   UNL     1      -5.736  12.351  19.205  0.00  0.00    +0.000 C 
ATOM     25  C   UNL     1      -6.891  11.392  19.197  0.00  0.00    +0.000 C 
ATOM     26  C   UNL     1      -6.591  12.188  20.433  0.00  0.00    +0.000 C 
ENDBRANCH  22  24
ENDBRANCH   6  20
BRANCH   8  27
ATOM     27  C   UNL     1       0.412  11.913  20.697  0.00  0.00    +0.000 C 
BRANCH  27  28
ATOM     28  C   UNL     1      -0.526  12.391  21.798  0.00  0.00    +0.000 A 
ATOM     29  C   UNL     1      -1.436  11.551  22.458  0.00  0.00    +0.000 A 
ATOM     30  C   UNL     1      -2.346  12.068  23.388  0.00  0.00    +0.000 A 
ATOM     31  C   UNL     1      -2.344  13.429  23.680  0.00  0.00    +0.000 A 
ATOM     32 CL   UNL     1      -3.523  14.075  24.753  0.00  0.00    +0.000 Cl
ATOM     33  C   UNL     1      -1.408  14.270  23.090  0.00  0.00    +0.000 A 
ATOM     34  C   UNL     1      -0.500  13.753  22.159  0.00  0.00    +0.000 A 
ENDBRANCH  27  28
ENDBRANCH   8  27
TORSDOF 5
ENDMDL
MODEL 4
REMARK VINA RESULT:      -7.7      2.539      3.247
REMARK  Name = 
REMARK  6 active torsions:
REMARK  status: ('A' for Active; 'I' for Inactive)
REMARK    1  A    between atoms: C_1  and  C_2
REMARK    2  A    between atoms: C_7  and  N_8
REMARK    3  A    between atoms: C_13  and  C_14
REMARK    4  A    between atoms: N_16  and  C_17
REMARK    5  A    between atoms: N_21  and  C_22
REMARK    6  A    between atoms: C_22  and  C_23
REMARK                            x       y       z     vdW  Elec       q    Type
REMARK                         _______ _______ _______ _____ _____    ______ ____
ROOT
ATOM      1  N   UNL     1       0.505  10.882  19.554  0.00  0.00    +0.000 N 
ATOM      2  C   UNL     1      -0.792  11.040  19.121  0.00  0.00    +0.000 A 
ATOM      3  N   UNL     1      -1.319  10.166  18.309  0.00  0.00    +0.000 NA
ATOM      4  C   UNL     1      -2.594  10.323  17.839  0.00  0.00    +0.000 A 
ATOM      5  O   UNL     1      -3.044   9.615  16.942  0.00  0.00    +0.000 OA
ATOM      6  C   UNL     1      -3.455  11.359  18.460  0.00  0.00    +0.000 A 
ATOM      7  C   UNL     1      -2.838  12.230  19.272  0.00  0.00    +0.000 A 
ATOM      8  N   UNL     1      -1.484  12.160  19.577  0.00  0.00    +0.000 N 
ATOM      9  H   UNL     1       1.135  11.591  19.200  0.00  0.00    +0.000 HD
ENDROOT
BRANCH   1  16
ATOM     10  C   UNL     1       3.869   4.189  18.220  0.00  0.00    +0.000 C 
ATOM     11  C   UNL     1       3.258   5.480  18.643  0.00  0.00    +0.000 A 
ATOM     12  N   UNL     1       2.616   5.659  19.777  0.00  0.00    +0.000 NA
ATOM     13  C   UNL     1       2.131   6.956  19.846  0.00  0.00    +0.000 A 
ATOM     14  C   UNL     1       1.369   7.501  20.897  0.00  0.00    +0.000 A 
ATOM     15  C   UNL     1       0.868   8.810  20.798  0.00  0.00    +0.000 A 
ATOM     16  C   UNL     1       1.138   9.611  19.684  0.00  0.00    +0.000 A 
ATOM     17  C   UNL     1       1.954   9.091  18.659  0.00  0.00    +0.000 A 
ATOM     18  C   UNL     1       2.422   7.765  18.749  0.00  0.00    +0.000 A 
ATOM     19  S   UNL     1       3.365   6.860  17.625  0.00  0.00    +0.000 S 
ENDBRANCH   1  16
BRANCH   6  20
ATOM     20  C   UNL     1      -4.917  11.478  18.216  0.00  0.00    +0.000 C 
ATOM     21  O   UNL     1      -5.699  10.616  18.614  0.00  0.00    +0.000 OA
ATOM     22  N   UNL     1      -5.308  12.593  17.507  0.00  0.00    +0.000 N 
ATOM     23  H   UNL     1      -4.591  13.263  17.219  0.00  0.00    +0.000 HD
BRANCH  22  24
ATOM     24  C   UNL     1      -6.655  12.848  17.118  0.00  0.00    +0.000 C 
ATOM     25  C   UNL     1      -7.557  13.697  17.967  0.00  0.00    +0.000 C 
ATOM     26  C   UNL     1      -7.060  14.221  16.653  0.00  0.00    +0.000 C 
ENDBRANCH  22  24
ENDBRANCH   6  20
BRANCH   8  27
ATOM     27  C   UNL     1      -0.901  13.151  20.511  0.00  0.00    +0.000 C 
BRANCH  27  28
ATOM     28  C   UNL     1      -0.310  14.380  19.832  0.00  0.00    +0.000 A 
ATOM     29  C   UNL     1      -1.078  15.479  19.418  0.00  0.00    +0.000 A 
ATOM     30  C   UNL     1      -0.495  16.533  18.704  0.00  0.00    +0.000 A 
ATOM     31  C   UNL     1       0.865  16.508  18.411  0.00  0.00    +0.000 A 
ATOM     32 CL   UNL     1       1.559  17.759  17.455  0.00  0.00    +0.000 Cl
ATOM     33  C   UNL     1       1.660  15.463  18.869  0.00  0.00    +0.000 A 
ATOM     34  C   UNL     1       1.076  14.408  19.580  0.00  0.00    +0.000 A 
ENDBRANCH  27  28
ENDBRANCH   8  27
TORSDOF 5
ENDMDL
MODEL 5
REMARK VINA RESULT:      -7.7      2.711      3.536
REMARK  Name = 
REMARK  6 active torsions:
REMARK  status: ('A' for Active; 'I' for Inactive)
REMARK    1  A    between atoms: C_1  and  C_2
REMARK    2  A    between atoms: C_7  and  N_8
REMARK    3  A    between atoms: C_13  and  C_14
REMARK    4  A    between atoms: N_16  and  C_17
REMARK    5  A    between atoms: N_21  and  C_22
REMARK    6  A    between atoms: C_22  and  C_23
REMARK                            x       y       z     vdW  Elec       q    Type
REMARK                         _______ _______ _______ _____ _____    ______ ____
ROOT
ATOM      1  N   UNL     1       1.234  10.033  18.876  0.00  0.00    +0.000 N 
ATOM      2  C   UNL     1      -0.048  10.353  18.494  0.00  0.00    +0.000 A 
ATOM      3  N   UNL     1      -0.624   9.692  17.528  0.00  0.00    +0.000 NA
ATOM      4  C   UNL     1      -1.886  10.016  17.109  0.00  0.00    +0.000 A 
ATOM      5  O   UNL     1      -2.374   9.530  16.093  0.00  0.00    +0.000 OA
ATOM      6  C   UNL     1      -2.685  10.955  17.932  0.00  0.00    +0.000 A 
ATOM      7  C   UNL     1      -2.021  11.608  18.898  0.00  0.00    +0.000 A 
ATOM      8  N   UNL     1      -0.674  11.396  19.171  0.00  0.00    +0.000 N 
ATOM      9  H   UNL     1       1.907  10.761  18.666  0.00  0.00    +0.000 HD
ENDROOT
BRANCH   1  16
ATOM     10  C   UNL     1       3.885   3.020  20.171  0.00  0.00    +0.000 C 
ATOM     11  C   UNL     1       3.370   4.353  19.752  0.00  0.00    +0.000 A 
ATOM     12  N   UNL     1       3.796   5.014  18.698  0.00  0.00    +0.000 NA
ATOM     13  C   UNL     1       3.150   6.238  18.614  0.00  0.00    +0.000 A 
ATOM     14  C   UNL     1       3.370   7.226  17.635  0.00  0.00    +0.000 A 
ATOM     15  C   UNL     1       2.704   8.461  17.719  0.00  0.00    +0.000 A 
ATOM     16  C   UNL     1       1.790   8.727  18.743  0.00  0.00    +0.000 A 
ATOM     17  C   UNL     1       1.518   7.716  19.688  0.00  0.00    +0.000 A 
ATOM     18  C   UNL     1       2.217   6.494  19.617  0.00  0.00    +0.000 A 
ATOM     19  S   UNL     1       2.140   5.129  20.667  0.00  0.00    +0.000 S 
ENDBRANCH   1  16
BRANCH   6  20
ATOM     20  C   UNL     1      -4.137  11.207  17.730  0.00  0.00    +0.000 C 
ATOM     21  O   UNL     1      -4.536  11.912  16.805  0.00  0.00    +0.000 OA
ATOM     22  N   UNL     1      -4.972  10.620  18.655  0.00  0.00    +0.000 N 
ATOM     23  H   UNL     1      -4.556  10.044  19.392  0.00  0.00    +0.000 HD
BRANCH  22  24
ATOM     24  C   UNL     1      -6.386  10.800  18.669  0.00  0.00    +0.000 C 
ATOM     25  C   UNL     1      -7.238  10.145  19.717  0.00  0.00    +0.000 C 
ATOM     26  C   UNL     1      -7.031  11.630  19.746  0.00  0.00    +0.000 C 
ENDBRANCH  22  24
ENDBRANCH   6  20
BRANCH   8  27
ATOM     27  C   UNL     1      -0.036  12.144  20.281  0.00  0.00    +0.000 C 
BRANCH  27  28
ATOM     28  C   UNL     1       0.764  13.361  19.837  0.00  0.00    +0.000 A 
ATOM     29  C   UNL     1       0.176  14.545  19.367  0.00  0.00    +0.000 A 
ATOM     30  C   UNL     1       0.965  15.591  18.874  0.00  0.00    +0.000 A 
ATOM     31  C   UNL     1       2.351  15.472  18.861  0.00  0.00    +0.000 A 
ATOM     32 CL   UNL     1       3.312  16.721  18.171  0.00  0.00    +0.000 Cl
ATOM     33  C   UNL     1       2.960  14.337  19.385  0.00  0.00    +0.000 A 
ATOM     34  C   UNL     1       2.171  13.290  19.875  0.00  0.00    +0.000 A 
ENDBRANCH  27  28
ENDBRANCH   8  27
TORSDOF 5
ENDMDL
MODEL 6
REMARK VINA RESULT:      -7.7      1.169      1.514
REMARK  Name = 
REMARK  6 active torsions:
REMARK  status: ('A' for Active; 'I' for Inactive)
REMARK    1  A    between atoms: C_1  and  C_2
REMARK    2  A    between atoms: C_7  and  N_8
REMARK    3  A    between atoms: C_13  and  C_14
REMARK    4  A    between atoms: N_16  and  C_17
REMARK    5  A    between atoms: N_21  and  C_22
REMARK    6  A    between atoms: C_22  and  C_23
REMARK                            x       y       z     vdW  Elec       q    Type
REMARK                         _______ _______ _______ _____ _____    ______ ____
ROOT
ATOM      1  N   UNL     1       0.899  10.266  19.073  0.00  0.00    +0.000 N 
ATOM      2  C   UNL     1      -0.400  10.532  18.705  0.00  0.00    +0.000 A 
ATOM      3  N   UNL     1      -0.922   9.926  17.675  0.00  0.00    +0.000 NA
ATOM      4  C   UNL     1      -2.201  10.200  17.272  0.00  0.00    +0.000 A 
ATOM      5  O   UNL     1      -2.648   9.779  16.209  0.00  0.00    +0.000 OA
ATOM      6  C   UNL     1      -3.068  11.004  18.167  0.00  0.00    +0.000 A 
ATOM      7  C   UNL     1      -2.456  11.608  19.197  0.00  0.00    +0.000 A 
ATOM      8  N   UNL     1      -1.100  11.465  19.467  0.00  0.00    +0.000 N 
ATOM      9  H   UNL     1       1.522  11.053  18.939  0.00  0.00    +0.000 HD
ENDROOT
BRANCH   1  16
ATOM     10  C   UNL     1       4.172   3.434  19.784  0.00  0.00    +0.000 C 
ATOM     11  C   UNL     1       3.526   4.741  19.478  0.00  0.00    +0.000 A 
ATOM     12  N   UNL     1       3.823   5.488  18.437  0.00  0.00    +0.000 NA
ATOM     13  C   UNL     1       3.080   6.658  18.467  0.00  0.00    +0.000 A 
ATOM     14  C   UNL     1       3.152   7.710  17.534  0.00  0.00    +0.000 A 
ATOM     15  C   UNL     1       2.400   8.881  17.732  0.00  0.00    +0.000 A 
ATOM     16  C   UNL     1       1.543   9.018  18.829  0.00  0.00    +0.000 A 
ATOM     17  C   UNL     1       1.419   7.941  19.730  0.00  0.00    +0.000 A 
ATOM     18  C   UNL     1       2.204   6.785  19.543  0.00  0.00    +0.000 A 
ATOM     19  S   UNL     1       2.308   5.366  20.516  0.00  0.00    +0.000 S 
ENDBRANCH   1  16
BRANCH   6  20
ATOM     20  C   UNL     1      -4.532  11.175  17.969  0.00  0.00    +0.000 C 
ATOM     21  O   UNL     1      -5.327  10.308  18.327  0.00  0.00    +0.000 OA
ATOM     22  N   UNL     1      -4.911  12.346  17.348  0.00  0.00    +0.000 N 
ATOM     23  H   UNL     1      -4.183  13.017  17.087  0.00  0.00    +0.000 HD
BRANCH  22  24
ATOM     24  C   UNL     1      -6.260  12.660  17.011  0.00  0.00    +0.000 C 
ATOM     25  C   UNL     1      -7.254  13.030  18.073  0.00  0.00    +0.000 C 
ATOM     26  C   UNL     1      -6.755  14.077  17.122  0.00  0.00    +0.000 C 
ENDBRANCH  22  24
ENDBRANCH   6  20
BRANCH   8  27
ATOM     27  C   UNL     1      -0.523  12.148  20.648  0.00  0.00    +0.000 C 
BRANCH  27  28
ATOM     28  C   UNL     1      -1.557  12.718  21.610  0.00  0.00    +0.000 A 
ATOM     29  C   UNL     1      -2.131  11.980  22.656  0.00  0.00    +0.000 A 
ATOM     30  C   UNL     1      -3.154  12.525  23.441  0.00  0.00    +0.000 A 
ATOM     31  C   UNL     1      -3.603  13.820  23.200  0.00  0.00    +0.000 A 
ATOM     32 CL   UNL     1      -4.921  14.453  24.106  0.00  0.00    +0.000 Cl
ATOM     33  C   UNL     1      -3.003  14.596  22.213  0.00  0.00    +0.000 A 
ATOM     34  C   UNL     1      -1.983  14.049  21.427  0.00  0.00    +0.000 A 
ENDBRANCH  27  28
ENDBRANCH   8  27
TORSDOF 5
ENDMDL
MODEL 7
REMARK VINA RESULT:      -7.7      2.551      3.372
REMARK  Name = 
REMARK  6 active torsions:
REMARK  status: ('A' for Active; 'I' for Inactive)
REMARK    1  A    between atoms: C_1  and  C_2
REMARK    2  A    between atoms: C_7  and  N_8
REMARK    3  A    between atoms: C_13  and  C_14
REMARK    4  A    between atoms: N_16  and  C_17
REMARK    5  A    between atoms: N_21  and  C_22
REMARK    6  A    between atoms: C_22  and  C_23
REMARK                            x       y       z     vdW  Elec       q    Type
REMARK                         _______ _______ _______ _____ _____    ______ ____
ROOT
ATOM      1  N   UNL     1       0.996  10.227  18.938  0.00  0.00    +0.000 N 
ATOM      2  C   UNL     1      -0.315  10.488  18.608  0.00  0.00    +0.000 A 
ATOM      3  N   UNL     1      -0.884   9.832  17.635  0.00  0.00    +0.000 NA
ATOM      4  C   UNL     1      -2.176  10.100  17.269  0.00  0.00    +0.000 A 
ATOM      5  O   UNL     1      -2.670   9.626  16.250  0.00  0.00    +0.000 OA
ATOM      6  C   UNL     1      -2.998  10.962  18.152  0.00  0.00    +0.000 A 
ATOM      7  C   UNL     1      -2.339  11.614  19.121  0.00  0.00    +0.000 A 
ATOM      8  N   UNL     1      -0.974  11.469  19.345  0.00  0.00    +0.000 N 
ATOM      9  H   UNL     1       1.620  10.998  18.736  0.00  0.00    +0.000 HD
ENDROOT
BRANCH   1  16
ATOM     10  C   UNL     1       4.106   3.348  19.882  0.00  0.00    +0.000 C 
ATOM     11  C   UNL     1       3.495   4.660  19.531  0.00  0.00    +0.000 A 
ATOM     12  N   UNL     1       3.827   5.374  18.478  0.00  0.00    +0.000 NA
ATOM     13  C   UNL     1       3.109   6.560  18.464  0.00  0.00    +0.000 A 
ATOM     14  C   UNL     1       3.221   7.585  17.507  0.00  0.00    +0.000 A 
ATOM     15  C   UNL     1       2.491   8.776  17.661  0.00  0.00    +0.000 A 
ATOM     16  C   UNL     1       1.617   8.960  18.737  0.00  0.00    +0.000 A 
ATOM     17  C   UNL     1       1.453   7.909  19.663  0.00  0.00    +0.000 A 
ATOM     18  C   UNL     1       2.216   6.733  19.520  0.00  0.00    +0.000 A 
ATOM     19  S   UNL     1       2.272   5.337  20.530  0.00  0.00    +0.000 S 
ENDBRANCH   1  16
BRANCH   6  20
ATOM     20  C   UNL     1      -4.467  11.139  18.004  0.00  0.00    +0.000 C 
ATOM     21  O   UNL     1      -5.253  10.274  18.386  0.00  0.00    +0.000 OA
ATOM     22  N   UNL     1      -4.861  12.313  17.400  0.00  0.00    +0.000 N 
ATOM     23  H   UNL     1      -4.140  12.982  17.117  0.00  0.00    +0.000 HD
BRANCH  22  24
ATOM     24  C   UNL     1      -6.219  12.634  17.109  0.00  0.00    +0.000 C 
ATOM     25  C   UNL     1      -7.103  13.262  18.147  0.00  0.00    +0.000 C 
ATOM     26  C   UNL     1      -6.643  14.072  16.971  0.00  0.00    +0.000 C 
ENDBRANCH  22  24
ENDBRANCH   6  20
BRANCH   8  27
ATOM     27  C   UNL     1      -0.342  12.209  20.462  0.00  0.00    +0.000 C 
BRANCH  27  28
ATOM     28  C   UNL     1       0.465  13.426  20.029  0.00  0.00    +0.000 A 
ATOM     29  C   UNL     1      -0.074  14.491  19.292  0.00  0.00    +0.000 A 
ATOM     30  C   UNL     1       0.741  15.532  18.833  0.00  0.00    +0.000 A 
ATOM     31  C   UNL     1       2.103  15.529  19.121  0.00  0.00    +0.000 A 
ATOM     32 CL   UNL     1       3.117  16.760  18.477  0.00  0.00    +0.000 Cl
ATOM     33  C   UNL     1       2.649  14.520  19.907  0.00  0.00    +0.000 A 
ATOM     34  C   UNL     1       1.833  13.478  20.364  0.00  0.00    +0.000 A 
ENDBRANCH  27  28
ENDBRANCH   8  27
TORSDOF 5
ENDMDL
MODEL 8
REMARK VINA RESULT:      -7.7      1.210      1.760
REMARK  Name = 
REMARK  6 active torsions:
REMARK  status: ('A' for Active; 'I' for Inactive)
REMARK    1  A    between atoms: C_1  and  C_2
REMARK    2  A    between atoms: C_7  and  N_8
REMARK    3  A    between atoms: C_13  and  C_14
REMARK    4  A    between atoms: N_16  and  C_17
REMARK    5  A    between atoms: N_21  and  C_22
REMARK    6  A    between atoms: C_22  and  C_23
REMARK                            x       y       z     vdW  Elec       q    Type
REMARK                         _______ _______ _______ _____ _____    ______ ____
ROOT
ATOM      1  N   UNL     1       1.194   9.983  19.089  0.00  0.00    +0.000 N 
ATOM      2  C   UNL     1      -0.067  10.339  18.668  0.00  0.00    +0.000 A 
ATOM      3  N   UNL     1      -0.592   9.761  17.623  0.00  0.00    +0.000 NA
ATOM      4  C   UNL     1      -1.830  10.123  17.168  0.00  0.00    +0.000 A 
ATOM      5  O   UNL     1      -2.265   9.723  16.091  0.00  0.00    +0.000 OA
ATOM      6  C   UNL     1      -2.671  10.997  18.021  0.00  0.00    +0.000 A 
ATOM      7  C   UNL     1      -2.057  11.567  19.069  0.00  0.00    +0.000 A 
ATOM      8  N   UNL     1      -0.726  11.328  19.394  0.00  0.00    +0.000 N 
ATOM      9  H   UNL     1       1.878  10.722  18.973  0.00  0.00    +0.000 HD
ENDROOT
BRANCH   1  16
ATOM     10  C   UNL     1       3.971   2.957  19.988  0.00  0.00    +0.000 C 
ATOM     11  C   UNL     1       3.424   4.299  19.646  0.00  0.00    +0.000 A 
ATOM     12  N   UNL     1       3.791   5.004  18.598  0.00  0.00    +0.000 NA
ATOM     13  C   UNL     1       3.130   6.222  18.592  0.00  0.00    +0.000 A 
ATOM     14  C   UNL     1       3.293   7.248  17.642  0.00  0.00    +0.000 A 
ATOM     15  C   UNL     1       2.621   8.472  17.804  0.00  0.00    +0.000 A 
ATOM     16  C   UNL     1       1.755   8.689  18.880  0.00  0.00    +0.000 A 
ATOM     17  C   UNL     1       1.539   7.641  19.798  0.00  0.00    +0.000 A 
ATOM     18  C   UNL     1       2.246   6.431  19.648  0.00  0.00    +0.000 A 
ATOM     19  S   UNL     1       2.233   5.027  20.648  0.00  0.00    +0.000 S 
ENDBRANCH   1  16
BRANCH   6  20
ATOM     20  C   UNL     1      -4.110  11.272  17.765  0.00  0.00    +0.000 C 
ATOM     21  O   UNL     1      -4.468  11.907  16.775  0.00  0.00    +0.000 OA
ATOM     22  N   UNL     1      -4.981  10.789  18.717  0.00  0.00    +0.000 N 
ATOM     23  H   UNL     1      -4.597  10.266  19.508  0.00  0.00    +0.000 HD
BRANCH  22  24
ATOM     24  C   UNL     1      -6.389  11.009  18.682  0.00  0.00    +0.000 C 
ATOM     25  C   UNL     1      -7.279  10.486  19.772  0.00  0.00    +0.000 C 
ATOM     26  C   UNL     1      -7.028  11.960  19.659  0.00  0.00    +0.000 C 
ENDBRANCH  22  24
ENDBRANCH   6  20
BRANCH   8  27
ATOM     27  C   UNL     1      -0.146  11.980  20.591  0.00  0.00    +0.000 C 
BRANCH  27  28
ATOM     28  C   UNL     1      -1.173  12.638  21.504  0.00  0.00    +0.000 A 
ATOM     29  C   UNL     1      -1.504  14.000  21.441  0.00  0.00    +0.000 A 
ATOM     30  C   UNL     1      -2.377  14.570  22.375  0.00  0.00    +0.000 A 
ATOM     31  C   UNL     1      -2.942  13.781  23.373  0.00  0.00    +0.000 A 
ATOM     32 CL   UNL     1      -3.940  14.502  24.574  0.00  0.00    +0.000 Cl
ATOM     33  C   UNL     1      -2.682  12.415  23.415  0.00  0.00    +0.000 A 
ATOM     34  C   UNL     1      -1.807  11.847  22.482  0.00  0.00    +0.000 A 
ENDBRANCH  27  28
ENDBRANCH   8  27
TORSDOF 5
ENDMDL
MODEL 9
REMARK VINA RESULT:      -7.6      0.762      1.189
REMARK  Name = 
REMARK  6 active torsions:
REMARK  status: ('A' for Active; 'I' for Inactive)
REMARK    1  A    between atoms: C_1  and  C_2
REMARK    2  A    between atoms: C_7  and  N_8
REMARK    3  A    between atoms: C_13  and  C_14
REMARK    4  A    between atoms: N_16  and  C_17
REMARK    5  A    between atoms: N_21  and  C_22
REMARK    6  A    between atoms: C_22  and  C_23
REMARK                            x       y       z     vdW  Elec       q    Type
REMARK                         _______ _______ _______ _____ _____    ______ ____
ROOT
ATOM      1  N   UNL     1       0.972  10.585  19.047  0.00  0.00    +0.000 N 
ATOM      2  C   UNL     1      -0.304  10.780  18.570  0.00  0.00    +0.000 A 
ATOM      3  N   UNL     1      -0.866   9.871  17.823  0.00  0.00    +0.000 NA
ATOM      4  C   UNL     1      -2.120  10.059  17.310  0.00  0.00    +0.000 A 
ATOM      5  O   UNL     1      -2.594   9.304  16.466  0.00  0.00    +0.000 OA
ATOM      6  C   UNL     1      -2.930  11.193  17.819  0.00  0.00    +0.000 A 
ATOM      7  C   UNL     1      -2.279  12.094  18.569  0.00  0.00    +0.000 A 
ATOM      8  N   UNL     1      -0.937  11.972  18.912  0.00  0.00    +0.000 N 
ATOM      9  H   UNL     1       1.650  11.223  18.649  0.00  0.00    +0.000 HD
ENDROOT
BRANCH   1  16
ATOM     10  C   UNL     1       3.957   3.619  18.369  0.00  0.00    +0.000 C 
ATOM     11  C   UNL     1       3.416   4.975  18.666  0.00  0.00    +0.000 A 
ATOM     12  N   UNL     1       2.764   5.288  19.764  0.00  0.00    +0.000 NA
ATOM     13  C   UNL     1       2.356   6.612  19.711  0.00  0.00    +0.000 A 
ATOM     14  C   UNL     1       1.607   7.288  20.693  0.00  0.00    +0.000 A 
ATOM     15  C   UNL     1       1.187   8.611  20.471  0.00  0.00    +0.000 A 
ATOM     16  C   UNL     1       1.526   9.295  19.300  0.00  0.00    +0.000 A 
ATOM     17  C   UNL     1       2.330   8.643  18.343  0.00  0.00    +0.000 A 
ATOM     18  C   UNL     1       2.716   7.305  18.557  0.00  0.00    +0.000 A 
ATOM     19  S   UNL     1       3.625   6.253  17.538  0.00  0.00    +0.000 S 
ENDBRANCH   1  16
BRANCH   6  20
ATOM     20  C   UNL     1      -4.378  11.375  17.530  0.00  0.00    +0.000 C 
ATOM     21  O   UNL     1      -4.759  11.817  16.449  0.00  0.00    +0.000 OA
ATOM     22  N   UNL     1      -5.231  11.036  18.558  0.00  0.00    +0.000 N 
ATOM     23  H   UNL     1      -4.829  10.670  19.425  0.00  0.00    +0.000 HD
BRANCH  22  24
ATOM     24  C   UNL     1      -6.645  11.204  18.497  0.00  0.00    +0.000 C 
ATOM     25  C   UNL     1      -7.475  11.217  19.748  0.00  0.00    +0.000 C 
ATOM     26  C   UNL     1      -7.274  12.486  18.974  0.00  0.00    +0.000 C 
ENDBRANCH  22  24
ENDBRANCH   6  20
BRANCH   8  27
ATOM     27  C   UNL     1      -0.314  13.005  19.773  0.00  0.00    +0.000 C 
BRANCH  27  28
ATOM     28  C   UNL     1      -1.125  13.359  21.013  0.00  0.00    +0.000 A 
ATOM     29  C   UNL     1      -1.764  14.595  21.193  0.00  0.00    +0.000 A 
ATOM     30  C   UNL     1      -2.407  14.901  22.398  0.00  0.00    +0.000 A 
ATOM     31  C   UNL     1      -2.433  13.968  23.431  0.00  0.00    +0.000 A 
ATOM     32 CL   UNL     1      -3.143  14.382  24.942  0.00  0.00    +0.000 Cl
ATOM     33  C   UNL     1      -1.866  12.711  23.251  0.00  0.00    +0.000 A 
ATOM     34  C   UNL     1      -1.221  12.407  22.047  0.00  0.00    +0.000 A 
ENDBRANCH  27  28
ENDBRANCH   8  27
TORSDOF 5
ENDMDL
