MODEL 1
REMARK VINA RESULT:      -6.8      0.000      0.000
REMARK  Name = 
REMARK  11 active torsions:
REMARK  status: ('A' for Active; 'I' for Inactive)
REMARK    1  A    between atoms: C_1  and  O_2
REMARK    2  A    between atoms: O_2  and  C_3
REMARK    3  A    between atoms: C_3  and  C_4
REMARK    4  A    between atoms: C_4  and  N_5
REMARK    5  A    between atoms: N_5  and  C_6
REMARK    6  A    between atoms: N_5  and  C_7
REMARK    7  A    between atoms: C_7  and  C_8
REMARK    8  A    between atoms: C_10  and  C_11
REMARK    9  A    between atoms: C_11  and  O_12
REMARK   10  A    between atoms: C_15  and  C_17
REMARK   11  A    between atoms: C_23  and  C_24
REMARK                            x       y       z     vdW  Elec       q    Type
REMARK                         _______ _______ _______ _____ _____    ______ ____
ROOT
ATOM      1  C   UNL     1       6.088   5.675  15.958  0.00  0.00    +0.000 C 
ATOM      2  C   UNL     1       6.572   6.530  17.141  0.00  0.00    +0.000 C 
ATOM      3  C   UNL     1       6.106   6.076  18.531  0.00  0.00    +0.000 C 
ATOM      4  C   UNL     1       4.640   5.680  18.540  0.00  0.00    +0.000 C 
ATOM      5  N   UNL     1       4.245   4.772  17.469  0.00  0.00    +0.000 N 
ATOM      6  C   UNL     1       3.159   3.862  17.547  0.00  0.00    +0.000 C 
ATOM      7  O   UNL     1       2.687   3.327  16.541  0.00  0.00    +0.000 OA
ATOM      8  C   UNL     1       4.625   5.217  16.122  0.00  0.00    +0.000 C 
ENDROOT
BRANCH   6   9
ATOM      9  C   UNL     1       2.561   3.484  18.870  0.00  0.00    +0.000 A 
ATOM     10  C   UNL     1       1.259   3.894  19.202  0.00  0.00    +0.000 A 
ATOM     11  C   UNL     1       0.738   3.675  20.478  0.00  0.00    +0.000 A 
ATOM     12  C   UNL     1       1.475   2.945  21.394  0.00  0.00    +0.000 A 
ATOM     13  F   UNL     1       0.981   2.734  22.621  0.00  0.00    +0.000 F 
ATOM     14  C   UNL     1       2.710   2.409  21.048  0.00  0.00    +0.000 A 
ATOM     15  C   UNL     1       3.273   2.668  19.785  0.00  0.00    +0.000 A 
ATOM     16  C   UNL     1       4.580   2.001  19.443  0.00  0.00    +0.000 C 
ENDBRANCH   6   9
BRANCH   1  17
ATOM     17  C   UNL     1       7.020   4.490  15.582  0.00  0.00    +0.000 C 
BRANCH  17  18
ATOM     18  N   UNL     1       7.291   4.290  14.135  0.00  0.00    +0.000 NA
ATOM     19  C   UNL     1       7.711   5.522  13.460  0.00  0.00    +0.000 C 
BRANCH  18  20
ATOM     20  C   UNL     1       6.074   3.737  13.481  0.00  0.00    +0.000 C 
BRANCH  20  21
ATOM     21  C   UNL     1       6.236   3.399  11.987  0.00  0.00    +0.000 C 
BRANCH  21  23
ATOM     22  C   UNL     1       6.264   1.172  11.225  0.00  0.00    +0.000 C 
ATOM     23  O   UNL     1       5.442   2.252  11.657  0.00  0.00    +0.000 OA
ENDBRANCH  21  23
ENDBRANCH  20  21
ENDBRANCH  18  20
ENDBRANCH  17  18
ENDBRANCH   1  17
BRANCH   3  24
ATOM     24  C   UNL     1       6.949   4.976  19.180  0.00  0.00    +0.000 C 
BRANCH  24  25
ATOM     25  O   UNL     1       7.684   5.528  20.265  0.00  0.00    +0.000 OA
ATOM     26  H   UNL     1       7.341   5.125  21.081  0.00  0.00    +0.000 HD
ENDBRANCH  24  25
ENDBRANCH   3  24
TORSDOF 8
ENDMDL
MODEL 2
REMARK VINA RESULT:      -6.4      1.543      1.751
REMARK  Name = 
REMARK  11 active torsions:
REMARK  status: ('A' for Active; 'I' for Inactive)
REMARK    1  A    between atoms: C_1  and  O_2
REMARK    2  A    between atoms: O_2  and  C_3
REMARK    3  A    between atoms: C_3  and  C_4
REMARK    4  A    between atoms: C_4  and  N_5
REMARK    5  A    between atoms: N_5  and  C_6
REMARK    6  A    between atoms: N_5  and  C_7
REMARK    7  A    between atoms: C_7  and  C_8
REMARK    8  A    between atoms: C_10  and  C_11
REMARK    9  A    between atoms: C_11  and  O_12
REMARK   10  A    between atoms: C_15  and  C_17
REMARK   11  A    between atoms: C_23  and  C_24
REMARK                            x       y       z     vdW  Elec       q    Type
REMARK                         _______ _______ _______ _____ _____    ______ ____
ROOT
ATOM      1  C   UNL     1       5.662   7.179  16.543  0.00  0.00    +0.000 C 
ATOM      2  C   UNL     1       6.830   6.757  17.449  0.00  0.00    +0.000 C 
ATOM      3  C   UNL     1       6.558   5.573  18.386  0.00  0.00    +0.000 C 
ATOM      4  C   UNL     1       5.194   5.669  19.046  0.00  0.00    +0.000 C 
ATOM      5  N   UNL     1       4.091   5.955  18.134  0.00  0.00    +0.000 N 
ATOM      6  C   UNL     1       2.743   5.576  18.361  0.00  0.00    +0.000 C 
ATOM      7  O   UNL     1       1.813   6.074  17.721  0.00  0.00    +0.000 OA
ATOM      8  C   UNL     1       4.303   7.123  17.270  0.00  0.00    +0.000 C 
ENDROOT
BRANCH   6   9
ATOM      9  C   UNL     1       2.395   4.522  19.369  0.00  0.00    +0.000 A 
ATOM     10  C   UNL     1       2.119   4.877  20.700  0.00  0.00    +0.000 A 
ATOM     11  C   UNL     1       1.933   3.904  21.682  0.00  0.00    +0.000 A 
ATOM     12  C   UNL     1       1.910   2.569  21.317  0.00  0.00    +0.000 A 
ATOM     13  F   UNL     1       1.735   1.630  22.256  0.00  0.00    +0.000 F 
ATOM     14  C   UNL     1       2.045   2.194  19.985  0.00  0.00    +0.000 A 
ATOM     15  C   UNL     1       2.289   3.159  18.992  0.00  0.00    +0.000 A 
ATOM     16  C   UNL     1       2.354   2.698  17.559  0.00  0.00    +0.000 C 
ENDBRANCH   6   9
BRANCH   1  17
ATOM     17  C   UNL     1       5.605   6.458  15.168  0.00  0.00    +0.000 C 
BRANCH  17  18
ATOM     18  N   UNL     1       6.562   5.339  14.965  0.00  0.00    +0.000 NA
ATOM     19  C   UNL     1       7.647   5.680  14.042  0.00  0.00    +0.000 C 
BRANCH  18  20
ATOM     20  C   UNL     1       5.821   4.148  14.467  0.00  0.00    +0.000 C 
BRANCH  20  21
ATOM     21  C   UNL     1       6.354   3.556  13.148  0.00  0.00    +0.000 C 
BRANCH  21  23
ATOM     22  C   UNL     1       5.331   2.229  11.494  0.00  0.00    +0.000 C 
ATOM     23  O   UNL     1       5.295   3.474  12.186  0.00  0.00    +0.000 OA
ENDBRANCH  21  23
ENDBRANCH  20  21
ENDBRANCH  18  20
ENDBRANCH  17  18
ENDBRANCH   1  17
BRANCH   3  24
ATOM     24  C   UNL     1       6.740   4.187  17.764  0.00  0.00    +0.000 C 
BRANCH  24  25
ATOM     25  O   UNL     1       8.052   4.084  17.225  0.00  0.00    +0.000 OA
ATOM     26  H   UNL     1       8.678   4.241  17.954  0.00  0.00    +0.000 HD
ENDBRANCH  24  25
ENDBRANCH   3  24
TORSDOF 8
ENDMDL
MODEL 3
REMARK VINA RESULT:      -6.2      1.522      1.987
REMARK  Name = 
REMARK  11 active torsions:
REMARK  status: ('A' for Active; 'I' for Inactive)
REMARK    1  A    between atoms: C_1  and  O_2
REMARK    2  A    between atoms: O_2  and  C_3
REMARK    3  A    between atoms: C_3  and  C_4
REMARK    4  A    between atoms: C_4  and  N_5
REMARK    5  A    between atoms: N_5  and  C_6
REMARK    6  A    between atoms: N_5  and  C_7
REMARK    7  A    between atoms: C_7  and  C_8
REMARK    8  A    between atoms: C_10  and  C_11
REMARK    9  A    between atoms: C_11  and  O_12
REMARK   10  A    between atoms: C_15  and  C_17
REMARK   11  A    between atoms: C_23  and  C_24
REMARK                            x       y       z     vdW  Elec       q    Type
REMARK                         _______ _______ _______ _____ _____    ______ ____
ROOT
ATOM      1  C   UNL     1       5.509   6.881  16.166  0.00  0.00    +0.000 C 
ATOM      2  C   UNL     1       6.694   6.689  17.127  0.00  0.00    +0.000 C 
ATOM      3  C   UNL     1       6.508   5.625  18.216  0.00  0.00    +0.000 C 
ATOM      4  C   UNL     1       5.130   5.692  18.851  0.00  0.00    +0.000 C 
ATOM      5  N   UNL     1       4.022   5.755  17.903  0.00  0.00    +0.000 N 
ATOM      6  C   UNL     1       2.707   5.297  18.174  0.00  0.00    +0.000 C 
ATOM      7  O   UNL     1       1.749   5.620  17.467  0.00  0.00    +0.000 OA
ATOM      8  C   UNL     1       4.148   6.808  16.887  0.00  0.00    +0.000 C 
ENDROOT
BRANCH   6   9
ATOM      9  C   UNL     1       2.433   4.363  19.316  0.00  0.00    +0.000 A 
ATOM     10  C   UNL     1       2.738   2.997  19.203  0.00  0.00    +0.000 A 
ATOM     11  C   UNL     1       2.363   2.090  20.194  0.00  0.00    +0.000 A 
ATOM     12  C   UNL     1       1.779   2.562  21.357  0.00  0.00    +0.000 A 
ATOM     13  F   UNL     1       1.414   1.696  22.312  0.00  0.00    +0.000 F 
ATOM     14  C   UNL     1       1.588   3.925  21.555  0.00  0.00    +0.000 A 
ATOM     15  C   UNL     1       1.910   4.846  20.542  0.00  0.00    +0.000 A 
ATOM     16  C   UNL     1       1.748   6.312  20.843  0.00  0.00    +0.000 C 
ENDBRANCH   6   9
BRANCH   1  17
ATOM     17  C   UNL     1       5.536   5.977  14.903  0.00  0.00    +0.000 C 
BRANCH  17  18
ATOM     18  N   UNL     1       6.717   5.087  14.748  0.00  0.00    +0.000 NA
ATOM     19  C   UNL     1       7.685   5.593  13.771  0.00  0.00    +0.000 C 
BRANCH  18  20
ATOM     20  C   UNL     1       6.255   3.728  14.355  0.00  0.00    +0.000 C 
BRANCH  20  21
ATOM     21  C   UNL     1       6.109   3.505  12.838  0.00  0.00    +0.000 C 
BRANCH  21  23
ATOM     22  C   UNL     1       4.423   2.950  11.291  0.00  0.00    +0.000 C 
ATOM     23  O   UNL     1       4.750   3.725  12.440  0.00  0.00    +0.000 OA
ENDBRANCH  21  23
ENDBRANCH  20  21
ENDBRANCH  18  20
ENDBRANCH  17  18
ENDBRANCH   1  17
BRANCH   3  24
ATOM     24  C   UNL     1       6.817   4.188  17.791  0.00  0.00    +0.000 C 
BRANCH  24  25
ATOM     25  O   UNL     1       8.132   4.131  17.254  0.00  0.00    +0.000 OA
ATOM     26  H   UNL     1       8.054   3.851  16.326  0.00  0.00    +0.000 HD
ENDBRANCH  24  25
ENDBRANCH   3  24
TORSDOF 8
ENDMDL
MODEL 4
REMARK VINA RESULT:      -6.0      0.783      1.484
REMARK  Name = 
REMARK  11 active torsions:
REMARK  status: ('A' for Active; 'I' for Inactive)
REMARK    1  A    between atoms: C_1  and  O_2
REMARK    2  A    between atoms: O_2  and  C_3
REMARK    3  A    between atoms: C_3  and  C_4
REMARK    4  A    between atoms: C_4  and  N_5
REMARK    5  A    between atoms: N_5  and  C_6
REMARK    6  A    between atoms: N_5  and  C_7
REMARK    7  A    between atoms: C_7  and  C_8
REMARK    8  A    between atoms: C_10  and  C_11
REMARK    9  A    between atoms: C_11  and  O_12
REMARK   10  A    between atoms: C_15  and  C_17
REMARK   11  A    between atoms: C_23  and  C_24
REMARK                            x       y       z     vdW  Elec       q    Type
REMARK                         _______ _______ _______ _____ _____    ______ ____
ROOT
ATOM      1  C   UNL     1       6.489   5.771  15.766  0.00  0.00    +0.000 C 
ATOM      2  C   UNL     1       7.151   6.590  16.887  0.00  0.00    +0.000 C 
ATOM      3  C   UNL     1       6.774   6.191  18.320  0.00  0.00    +0.000 C 
ATOM      4  C   UNL     1       5.285   5.928  18.466  0.00  0.00    +0.000 C 
ATOM      5  N   UNL     1       4.716   5.049  17.449  0.00  0.00    +0.000 N 
ATOM      6  C   UNL     1       3.566   4.241  17.639  0.00  0.00    +0.000 C 
ATOM      7  O   UNL     1       2.960   3.741  16.687  0.00  0.00    +0.000 OA
ATOM      8  C   UNL     1       5.012   5.447  16.067  0.00  0.00    +0.000 C 
ENDROOT
BRANCH   6   9
ATOM      9  C   UNL     1       3.058   3.929  19.015  0.00  0.00    +0.000 A 
ATOM     10  C   UNL     1       3.476   2.762  19.677  0.00  0.00    +0.000 A 
ATOM     11  C   UNL     1       2.910   2.381  20.894  0.00  0.00    +0.000 A 
ATOM     12  C   UNL     1       2.003   3.225  21.512  0.00  0.00    +0.000 A 
ATOM     13  F   UNL     1       1.454   2.863  22.679  0.00  0.00    +0.000 F 
ATOM     14  C   UNL     1       1.673   4.451  20.946  0.00  0.00    +0.000 A 
ATOM     15  C   UNL     1       2.191   4.823  19.693  0.00  0.00    +0.000 A 
ATOM     16  C   UNL     1       1.854   6.193  19.167  0.00  0.00    +0.000 C 
ENDBRANCH   6   9
BRANCH   1  17
ATOM     17  C   UNL     1       7.275   4.505  15.329  0.00  0.00    +0.000 C 
BRANCH  17  18
ATOM     18  N   UNL     1       7.262   4.182  13.878  0.00  0.00    +0.000 NA
ATOM     19  C   UNL     1       7.551   5.345  13.035  0.00  0.00    +0.000 C 
BRANCH  18  20
ATOM     20  C   UNL     1       5.938   3.604  13.518  0.00  0.00    +0.000 C 
BRANCH  20  21
ATOM     21  C   UNL     1       5.554   3.740  12.032  0.00  0.00    +0.000 C 
BRANCH  21  23
ATOM     22  C   UNL     1       6.045   1.519  11.424  0.00  0.00    +0.000 C 
ATOM     23  O   UNL     1       5.020   2.500  11.551  0.00  0.00    +0.000 OA
ENDBRANCH  21  23
ENDBRANCH  20  21
ENDBRANCH  18  20
ENDBRANCH  17  18
ENDBRANCH   1  17
BRANCH   3  24
ATOM     24  C   UNL     1       7.571   5.026  18.910  0.00  0.00    +0.000 C 
BRANCH  24  25
ATOM     25  O   UNL     1       8.002   5.369  20.220  0.00  0.00    +0.000 OA
ATOM     26  H   UNL     1       8.436   4.584  20.597  0.00  0.00    +0.000 HD
ENDBRANCH  24  25
ENDBRANCH   3  24
TORSDOF 8
ENDMDL
MODEL 5
REMARK VINA RESULT:      -6.0      3.449      7.213
REMARK  Name = 
REMARK  11 active torsions:
REMARK  status: ('A' for Active; 'I' for Inactive)
REMARK    1  A    between atoms: C_1  and  O_2
REMARK    2  A    between atoms: O_2  and  C_3
REMARK    3  A    between atoms: C_3  and  C_4
REMARK    4  A    between atoms: C_4  and  N_5
REMARK    5  A    between atoms: N_5  and  C_6
REMARK    6  A    between atoms: N_5  and  C_7
REMARK    7  A    between atoms: C_7  and  C_8
REMARK    8  A    between atoms: C_10  and  C_11
REMARK    9  A    between atoms: C_11  and  O_12
REMARK   10  A    between atoms: C_15  and  C_17
REMARK   11  A    between atoms: C_23  and  C_24
REMARK                            x       y       z     vdW  Elec       q    Type
REMARK                         _______ _______ _______ _____ _____    ______ ____
ROOT
ATOM      1  C   UNL     1       2.882   4.731  20.392  0.00  0.00    +0.000 C 
ATOM      2  C   UNL     1       1.790   5.327  19.488  0.00  0.00    +0.000 C 
ATOM      3  C   UNL     1       2.059   5.261  17.979  0.00  0.00    +0.000 C 
ATOM      4  C   UNL     1       3.492   5.630  17.638  0.00  0.00    +0.000 C 
ATOM      5  N   UNL     1       4.506   4.953  18.440  0.00  0.00    +0.000 N 
ATOM      6  C   UNL     1       5.832   4.695  18.007  0.00  0.00    +0.000 C 
ATOM      7  O   UNL     1       6.725   4.384  18.799  0.00  0.00    +0.000 OA
ATOM      8  C   UNL     1       4.304   5.056  19.891  0.00  0.00    +0.000 C 
ENDROOT
BRANCH   6   9
ATOM      9  C   UNL     1       6.196   4.754  16.552  0.00  0.00    +0.000 A 
ATOM     10  C   UNL     1       5.706   3.786  15.660  0.00  0.00    +0.000 A 
ATOM     11  C   UNL     1       6.144   3.739  14.336  0.00  0.00    +0.000 A 
ATOM     12  C   UNL     1       6.989   4.730  13.867  0.00  0.00    +0.000 A 
ATOM     13  F   UNL     1       7.415   4.689  12.598  0.00  0.00    +0.000 F 
ATOM     14  C   UNL     1       7.383   5.778  14.692  0.00  0.00    +0.000 A 
ATOM     15  C   UNL     1       6.996   5.808  16.043  0.00  0.00    +0.000 A 
ATOM     16  C   UNL     1       7.393   7.005  16.866  0.00  0.00    +0.000 C 
ENDBRANCH   6   9
BRANCH   1  17
ATOM     17  C   UNL     1       2.718   3.219  20.706  0.00  0.00    +0.000 C 
BRANCH  17  18
ATOM     18  N   UNL     1       3.805   2.320  20.238  0.00  0.00    +0.000 NA
ATOM     19  C   UNL     1       3.391   1.460  19.126  0.00  0.00    +0.000 C 
BRANCH  18  20
ATOM     20  C   UNL     1       4.279   1.491  21.379  0.00  0.00    +0.000 C 
BRANCH  20  21
ATOM     21  C   UNL     1       5.558   0.676  21.102  0.00  0.00    +0.000 C 
BRANCH  21  23
ATOM     22  C   UNL     1       6.700  -0.890  22.438  0.00  0.00    +0.000 C 
ATOM     23  O   UNL     1       6.276   0.465  22.324  0.00  0.00    +0.000 OA
ENDBRANCH  21  23
ENDBRANCH  20  21
ENDBRANCH  18  20
ENDBRANCH  17  18
ENDBRANCH   1  17
BRANCH   3  24
ATOM     24  C   UNL     1       1.684   3.942  17.302  0.00  0.00    +0.000 C 
BRANCH  24  25
ATOM     25  O   UNL     1       0.618   3.334  18.018  0.00  0.00    +0.000 OA
ATOM     26  H   UNL     1       0.106   4.047  18.438  0.00  0.00    +0.000 HD
ENDBRANCH  24  25
ENDBRANCH   3  24
TORSDOF 8
ENDMDL
MODEL 6
REMARK VINA RESULT:      -6.0      0.978      1.214
REMARK  Name = 
REMARK  11 active torsions:
REMARK  status: ('A' for Active; 'I' for Inactive)
REMARK    1  A    between atoms: C_1  and  O_2
REMARK    2  A    between atoms: O_2  and  C_3
REMARK    3  A    between atoms: C_3  and  C_4
REMARK    4  A    between atoms: C_4  and  N_5
REMARK    5  A    between atoms: N_5  and  C_6
REMARK    6  A    between atoms: N_5  and  C_7
REMARK    7  A    between atoms: C_7  and  C_8
REMARK    8  A    between atoms: C_10  and  C_11
REMARK    9  A    between atoms: C_11  and  O_12
REMARK   10  A    between atoms: C_15  and  C_17
REMARK   11  A    between atoms: C_23  and  C_24
REMARK                            x       y       z     vdW  Elec       q    Type
REMARK                         _______ _______ _______ _____ _____    ______ ____
ROOT
ATOM      1  C   UNL     1       5.842   6.392  16.225  0.00  0.00    +0.000 C 
ATOM      2  C   UNL     1       6.436   6.979  17.516  0.00  0.00    +0.000 C 
ATOM      3  C   UNL     1       6.045   6.267  18.818  0.00  0.00    +0.000 C 
ATOM      4  C   UNL     1       4.568   5.915  18.854  0.00  0.00    +0.000 C 
ATOM      5  N   UNL     1       4.068   5.251  17.654  0.00  0.00    +0.000 N 
ATOM      6  C   UNL     1       2.954   4.372  17.629  0.00  0.00    +0.000 C 
ATOM      7  O   UNL     1       2.397   4.062  16.573  0.00  0.00    +0.000 OA
ATOM      8  C   UNL     1       4.376   5.948  16.399  0.00  0.00    +0.000 C 
ENDROOT
BRANCH   6   9
ATOM      9  C   UNL     1       2.430   3.750  18.889  0.00  0.00    +0.000 A 
ATOM     10  C   UNL     1       1.480   4.428  19.671  0.00  0.00    +0.000 A 
ATOM     11  C   UNL     1       1.086   3.934  20.915  0.00  0.00    +0.000 A 
ATOM     12  C   UNL     1       1.556   2.702  21.334  0.00  0.00    +0.000 A 
ATOM     13  F   UNL     1       1.184   2.224  22.529  0.00  0.00    +0.000 F 
ATOM     14  C   UNL     1       2.392   1.945  20.521  0.00  0.00    +0.000 A 
ATOM     15  C   UNL     1       2.843   2.454  19.289  0.00  0.00    +0.000 A 
ATOM     16  C   UNL     1       3.687   1.559  18.421  0.00  0.00    +0.000 C 
ENDBRANCH   6   9
BRANCH   1  17
ATOM     17  C   UNL     1       6.700   5.284  15.555  0.00  0.00    +0.000 C 
BRANCH  17  18
ATOM     18  N   UNL     1       5.972   4.294  14.717  0.00  0.00    +0.000 NA
ATOM     19  C   UNL     1       5.792   3.005  15.390  0.00  0.00    +0.000 C 
BRANCH  18  20
ATOM     20  C   UNL     1       6.705   4.106  13.436  0.00  0.00    +0.000 C 
BRANCH  20  21
ATOM     21  C   UNL     1       5.979   3.233  12.395  0.00  0.00    +0.000 C 
BRANCH  21  23
ATOM     22  C   UNL     1       4.024   3.084  11.092  0.00  0.00    +0.000 C 
ATOM     23  O   UNL     1       4.631   3.692  12.227  0.00  0.00    +0.000 OA
ENDBRANCH  21  23
ENDBRANCH  20  21
ENDBRANCH  18  20
ENDBRANCH  17  18
ENDBRANCH   1  17
BRANCH   3  24
ATOM     24  C   UNL     1       6.884   5.038  19.172  0.00  0.00    +0.000 C 
BRANCH  24  25
ATOM     25  O   UNL     1       7.750   5.358  20.254  0.00  0.00    +0.000 OA
ATOM     26  H   UNL     1       7.265   5.960  20.845  0.00  0.00    +0.000 HD
ENDBRANCH  24  25
ENDBRANCH   3  24
TORSDOF 8
ENDMDL
MODEL 7
REMARK VINA RESULT:      -5.9      1.190      1.291
REMARK  Name = 
REMARK  11 active torsions:
REMARK  status: ('A' for Active; 'I' for Inactive)
REMARK    1  A    between atoms: C_1  and  O_2
REMARK    2  A    between atoms: O_2  and  C_3
REMARK    3  A    between atoms: C_3  and  C_4
REMARK    4  A    between atoms: C_4  and  N_5
REMARK    5  A    between atoms: N_5  and  C_6
REMARK    6  A    between atoms: N_5  and  C_7
REMARK    7  A    between atoms: C_7  and  C_8
REMARK    8  A    between atoms: C_10  and  C_11
REMARK    9  A    between atoms: C_11  and  O_12
REMARK   10  A    between atoms: C_15  and  C_17
REMARK   11  A    between atoms: C_23  and  C_24
REMARK                            x       y       z     vdW  Elec       q    Type
REMARK                         _______ _______ _______ _____ _____    ______ ____
ROOT
ATOM      1  C   UNL     1       5.911   5.241  15.240  0.00  0.00    +0.000 C 
ATOM      2  C   UNL     1       6.711   5.952  16.345  0.00  0.00    +0.000 C 
ATOM      3  C   UNL     1       6.373   5.544  17.784  0.00  0.00    +0.000 C 
ATOM      4  C   UNL     1       4.876   5.423  18.008  0.00  0.00    +0.000 C 
ATOM      5  N   UNL     1       4.168   4.640  17.000  0.00  0.00    +0.000 N 
ATOM      6  C   UNL     1       2.955   3.943  17.232  0.00  0.00    +0.000 C 
ATOM      7  O   UNL     1       2.252   3.537  16.302  0.00  0.00    +0.000 OA
ATOM      8  C   UNL     1       4.427   5.054  15.615  0.00  0.00    +0.000 C 
ENDROOT
BRANCH   6   9
ATOM      9  C   UNL     1       2.493   3.635  18.626  0.00  0.00    +0.000 A 
ATOM     10  C   UNL     1       1.589   4.490  19.278  0.00  0.00    +0.000 A 
ATOM     11  C   UNL     1       1.259   4.301  20.620  0.00  0.00    +0.000 A 
ATOM     12  C   UNL     1       1.743   3.188  21.286  0.00  0.00    +0.000 A 
ATOM     13  F   UNL     1       1.430   3.002  22.575  0.00  0.00    +0.000 F 
ATOM     14  C   UNL     1       2.530   2.251  20.626  0.00  0.00    +0.000 A 
ATOM     15  C   UNL     1       2.918   2.457  19.291  0.00  0.00    +0.000 A 
ATOM     16  C   UNL     1       3.711   1.372  18.610  0.00  0.00    +0.000 C 
ENDBRANCH   6   9
BRANCH   1  17
ATOM     17  C   UNL     1       6.542   3.920  14.722  0.00  0.00    +0.000 C 
BRANCH  17  18
ATOM     18  N   UNL     1       7.182   3.968  13.382  0.00  0.00    +0.000 NA
ATOM     19  C   UNL     1       7.370   5.336  12.892  0.00  0.00    +0.000 C 
BRANCH  18  20
ATOM     20  C   UNL     1       6.358   3.188  12.418  0.00  0.00    +0.000 C 
BRANCH  20  21
ATOM     21  C   UNL     1       4.904   3.673  12.266  0.00  0.00    +0.000 C 
BRANCH  21  23
ATOM     22  C   UNL     1       3.458   3.695  10.408  0.00  0.00    +0.000 C 
ATOM     23  O   UNL     1       4.224   2.877  11.287  0.00  0.00    +0.000 OA
ENDBRANCH  21  23
ENDBRANCH  20  21
ENDBRANCH  18  20
ENDBRANCH  17  18
ENDBRANCH   1  17
BRANCH   3  24
ATOM     24  C   UNL     1       7.081   4.287  18.294  0.00  0.00    +0.000 C 
BRANCH  24  25
ATOM     25  O   UNL     1       8.321   4.139  17.615  0.00  0.00    +0.000 OA
ATOM     26  H   UNL     1       8.956   3.764  18.250  0.00  0.00    +0.000 HD
ENDBRANCH  24  25
ENDBRANCH   3  24
TORSDOF 8
ENDMDL
MODEL 8
REMARK VINA RESULT:      -5.8      3.789      7.128
REMARK  Name = 
REMARK  11 active torsions:
REMARK  status: ('A' for Active; 'I' for Inactive)
REMARK    1  A    between atoms: C_1  and  O_2
REMARK    2  A    between atoms: O_2  and  C_3
REMARK    3  A    between atoms: C_3  and  C_4
REMARK    4  A    between atoms: C_4  and  N_5
REMARK    5  A    between atoms: N_5  and  C_6
REMARK    6  A    between atoms: N_5  and  C_7
REMARK    7  A    between atoms: C_7  and  C_8
REMARK    8  A    between atoms: C_10  and  C_11
REMARK    9  A    between atoms: C_11  and  O_12
REMARK   10  A    between atoms: C_15  and  C_17
REMARK   11  A    between atoms: C_23  and  C_24
REMARK                            x       y       z     vdW  Elec       q    Type
REMARK                         _______ _______ _______ _____ _____    ______ ____
ROOT
ATOM      1  C   UNL     1       1.454   2.443  18.163  0.00  0.00    +0.000 C 
ATOM      2  C   UNL     1       2.486   1.303  18.188  0.00  0.00    +0.000 C 
ATOM      3  C   UNL     1       3.927   1.709  18.522  0.00  0.00    +0.000 C 
ATOM      4  C   UNL     1       4.343   2.979  17.801  0.00  0.00    +0.000 C 
ATOM      5  N   UNL     1       3.390   4.080  17.900  0.00  0.00    +0.000 N 
ATOM      6  C   UNL     1       3.736   5.453  17.810  0.00  0.00    +0.000 C 
ATOM      7  O   UNL     1       2.886   6.325  17.615  0.00  0.00    +0.000 OA
ATOM      8  C   UNL     1       2.014   3.730  17.525  0.00  0.00    +0.000 C 
ENDROOT
BRANCH   6   9
ATOM      9  C   UNL     1       5.156   5.906  17.985  0.00  0.00    +0.000 A 
ATOM     10  C   UNL     1       5.878   5.543  19.134  0.00  0.00    +0.000 A 
ATOM     11  C   UNL     1       7.146   6.068  19.384  0.00  0.00    +0.000 A 
ATOM     12  C   UNL     1       7.746   6.872  18.430  0.00  0.00    +0.000 A 
ATOM     13  F   UNL     1       8.962   7.381  18.666  0.00  0.00    +0.000 F 
ATOM     14  C   UNL     1       7.110   7.137  17.222  0.00  0.00    +0.000 A 
ATOM     15  C   UNL     1       5.809   6.662  16.980  0.00  0.00    +0.000 A 
ATOM     16  C   UNL     1       5.203   6.921  15.626  0.00  0.00    +0.000 C 
ENDBRANCH   6   9
BRANCH   1  17
ATOM     17  C   UNL     1       0.766   2.733  19.525  0.00  0.00    +0.000 C 
BRANCH  17  18
ATOM     18  N   UNL     1       1.528   3.568  20.491  0.00  0.00    +0.000 NA
ATOM     19  C   UNL     1       1.559   2.992  21.838  0.00  0.00    +0.000 C 
BRANCH  18  20
ATOM     20  C   UNL     1       0.935   4.933  20.530  0.00  0.00    +0.000 C 
BRANCH  20  21
ATOM     21  C   UNL     1       1.940   6.069  20.796  0.00  0.00    +0.000 C 
BRANCH  21  23
ATOM     22  C   UNL     1       1.585   8.319  20.200  0.00  0.00    +0.000 C 
ATOM     23  O   UNL     1       1.238   7.279  21.109  0.00  0.00    +0.000 OA
ENDBRANCH  21  23
ENDBRANCH  20  21
ENDBRANCH  18  20
ENDBRANCH  17  18
ENDBRANCH   1  17
BRANCH   3  24
ATOM     24  C   UNL     1       4.248   1.826  20.013  0.00  0.00    +0.000 C 
BRANCH  24  25
ATOM     25  O   UNL     1       5.442   1.107  20.293  0.00  0.00    +0.000 OA
ATOM     26  H   UNL     1       6.016   1.182  19.511  0.00  0.00    +0.000 HD
ENDBRANCH  24  25
ENDBRANCH   3  24
TORSDOF 8
ENDMDL
MODEL 9
REMARK VINA RESULT:      -5.8      1.442      2.012
REMARK  Name = 
REMARK  11 active torsions:
REMARK  status: ('A' for Active; 'I' for Inactive)
REMARK    1  A    between atoms: C_1  and  O_2
REMARK    2  A    between atoms: O_2  and  C_3
REMARK    3  A    between atoms: C_3  and  C_4
REMARK    4  A    between atoms: C_4  and  N_5
REMARK    5  A    between atoms: N_5  and  C_6
REMARK    6  A    between atoms: N_5  and  C_7
REMARK    7  A    between atoms: C_7  and  C_8
REMARK    8  A    between atoms: C_10  and  C_11
REMARK    9  A    between atoms: C_11  and  O_12
REMARK   10  A    between atoms: C_15  and  C_17
REMARK   11  A    between atoms: C_23  and  C_24
REMARK                            x       y       z     vdW  Elec       q    Type
REMARK                         _______ _______ _______ _____ _____    ______ ____
ROOT
ATOM      1  C   UNL     1       6.080   5.155  14.767  0.00  0.00    +0.000 C 
ATOM      2  C   UNL     1       6.994   5.978  15.691  0.00  0.00    +0.000 C 
ATOM      3  C   UNL     1       6.830   5.724  17.195  0.00  0.00    +0.000 C 
ATOM      4  C   UNL     1       5.371   5.629  17.602  0.00  0.00    +0.000 C 
ATOM      5  N   UNL     1       4.560   4.744  16.771  0.00  0.00    +0.000 N 
ATOM      6  C   UNL     1       3.389   4.076  17.215  0.00  0.00    +0.000 C 
ATOM      7  O   UNL     1       2.588   3.576  16.421  0.00  0.00    +0.000 OA
ATOM      8  C   UNL     1       4.652   5.009  15.330  0.00  0.00    +0.000 C 
ENDROOT
BRANCH   6   9
ATOM      9  C   UNL     1       3.096   3.917  18.678  0.00  0.00    +0.000 A 
ATOM     10  C   UNL     1       3.548   2.783  19.372  0.00  0.00    +0.000 A 
ATOM     11  C   UNL     1       3.167   2.547  20.693  0.00  0.00    +0.000 A 
ATOM     12  C   UNL     1       2.424   3.502  21.364  0.00  0.00    +0.000 A 
ATOM     13  F   UNL     1       2.053   3.280  22.632  0.00  0.00    +0.000 F 
ATOM     14  C   UNL     1       2.077   4.698  20.744  0.00  0.00    +0.000 A 
ATOM     15  C   UNL     1       2.405   4.926  19.396  0.00  0.00    +0.000 A 
ATOM     16  C   UNL     1       2.066   6.268  18.803  0.00  0.00    +0.000 C 
ENDBRANCH   6   9
BRANCH   1  17
ATOM     17  C   UNL     1       6.661   3.786  14.321  0.00  0.00    +0.000 C 
BRANCH  17  18
ATOM     18  N   UNL     1       6.988   3.640  12.878  0.00  0.00    +0.000 NA
ATOM     19  C   UNL     1       7.180   4.929  12.207  0.00  0.00    +0.000 C 
BRANCH  18  20
ATOM     20  C   UNL     1       5.907   2.868  12.208  0.00  0.00    +0.000 C 
BRANCH  20  21
ATOM     21  C   UNL     1       4.641   3.681  11.873  0.00  0.00    +0.000 C 
BRANCH  21  23
ATOM     22  C   UNL     1       3.213   3.853  10.010  0.00  0.00    +0.000 C 
ATOM     23  O   UNL     1       3.835   2.963  10.931  0.00  0.00    +0.000 OA
ENDBRANCH  21  23
ENDBRANCH  20  21
ENDBRANCH  18  20
ENDBRANCH  17  18
ENDBRANCH   1  17
BRANCH   3  24
ATOM     24  C   UNL     1       7.606   4.527  17.748  0.00  0.00    +0.000 C 
BRANCH  24  25
ATOM     25  O   UNL     1       8.106   4.848  19.039  0.00  0.00    +0.000 OA
ATOM     26  H   UNL     1       9.034   4.558  19.071  0.00  0.00    +0.000 HD
ENDBRANCH  24  25
ENDBRANCH   3  24
TORSDOF 8
ENDMDL
