MODEL 1
REMARK VINA RESULT:      -7.7      0.000      0.000
REMARK  Name = 
REMARK  8 active torsions:
REMARK  status: ('A' for Active; 'I' for Inactive)
REMARK    1  A    between atoms: C_1  and  C_2
REMARK    2  A    between atoms: C_4  and  N_5
REMARK    3  A    between atoms: C_6  and  C_8
REMARK    4  A    between atoms: C_8  and  O_9
REMARK    5  A    between atoms: O_9  and  C_10
REMARK    6  A    between atoms: C_10  and  C_12
REMARK    7  A    between atoms: C_18  and  N_19
REMARK    8  A    between atoms: C_23  and  C_24
REMARK                            x       y       z     vdW  Elec       q    Type
REMARK                         _______ _______ _______ _____ _____    ______ ____
ROOT
ATOM      1  N   UNL     1       6.475   7.566  17.079  0.00  0.00    +0.000 N 
ATOM      2  C   UNL     1       7.623   7.791  17.833  0.00  0.00    +0.000 C 
ATOM      3  O   UNL     1       8.106   7.023  18.662  0.00  0.00    +0.000 OA
ATOM      4  H   UNL     1       6.176   8.317  16.454  0.00  0.00    +0.000 HD
ENDROOT
BRANCH   1   8
ATOM      5  C   UNL     1       2.043   5.729  18.310  0.00  0.00    +0.000 C 
ATOM      6  C   UNL     1       3.408   5.476  17.723  0.00  0.00    +0.000 A 
ATOM      7  C   UNL     1       4.318   6.547  17.667  0.00  0.00    +0.000 A 
ATOM      8  C   UNL     1       5.610   6.429  17.136  0.00  0.00    +0.000 A 
ATOM      9  C   UNL     1       5.983   5.152  16.658  0.00  0.00    +0.000 A 
ATOM     10  C   UNL     1       5.078   4.065  16.709  0.00  0.00    +0.000 A 
ATOM     11  C   UNL     1       3.787   4.220  17.234  0.00  0.00    +0.000 A 
ATOM     12  C   UNL     1       2.832   3.058  17.259  0.00  0.00    +0.000 C 
BRANCH   9  13
ATOM     13  N   UNL     1       7.321   4.885  16.107  0.00  0.00    +0.000 N 
ATOM     14  O   UNL     1       8.111   4.208  16.791  0.00  0.00    +0.000 OA
ATOM     15  O   UNL     1       7.593   5.338  14.985  0.00  0.00    +0.000 OA
ENDBRANCH   9  13
ENDBRANCH   1   8
BRANCH   2  16
ATOM     16  C   UNL     1       8.307   9.136  17.580  0.00  0.00    +0.000 C 
BRANCH  16  17
ATOM     17  O   UNL     1       8.882   9.650  18.784  0.00  0.00    +0.000 OA
BRANCH  17  18
ATOM     18  C   UNL     1       9.529  10.832  18.621  0.00  0.00    +0.000 C 
ATOM     19  O   UNL     1      10.282  11.088  17.690  0.00  0.00    +0.000 OA
BRANCH  18  20
ATOM     20  C   UNL     1       9.206  11.774  19.735  0.00  0.00    +0.000 C 
ATOM     21  C   UNL     1       9.256  11.277  20.975  0.00  0.00    +0.000 C 
ATOM     22  O   UNL     1       9.001  11.950  22.128  0.00  0.00    +0.000 OA
ATOM     23  C   UNL     1       8.588  13.301  21.972  0.00  0.00    +0.000 C 
ATOM     24  C   UNL     1       8.477  13.876  20.556  0.00  0.00    +0.000 C 
ATOM     25  O   UNL     1       8.891  13.079  19.451  0.00  0.00    +0.000 OA
ENDBRANCH  18  20
ENDBRANCH  17  18
ENDBRANCH  16  17
ENDBRANCH   2  16
TORSDOF 6
ENDMDL
MODEL 2
REMARK VINA RESULT:      -7.6      1.307      2.081
REMARK  Name = 
REMARK  8 active torsions:
REMARK  status: ('A' for Active; 'I' for Inactive)
REMARK    1  A    between atoms: C_1  and  C_2
REMARK    2  A    between atoms: C_4  and  N_5
REMARK    3  A    between atoms: C_6  and  C_8
REMARK    4  A    between atoms: C_8  and  O_9
REMARK    5  A    between atoms: O_9  and  C_10
REMARK    6  A    between atoms: C_10  and  C_12
REMARK    7  A    between atoms: C_18  and  N_19
REMARK    8  A    between atoms: C_23  and  C_24
REMARK                            x       y       z     vdW  Elec       q    Type
REMARK                         _______ _______ _______ _____ _____    ______ ____
ROOT
ATOM      1  N   UNL     1       6.381   7.555  17.211  0.00  0.00    +0.000 N 
ATOM      2  C   UNL     1       7.530   7.760  17.969  0.00  0.00    +0.000 C 
ATOM      3  O   UNL     1       8.034   6.956  18.750  0.00  0.00    +0.000 OA
ATOM      4  H   UNL     1       6.063   8.334  16.631  0.00  0.00    +0.000 HD
ENDROOT
BRANCH   1   8
ATOM      5  C   UNL     1       1.987   5.572  18.348  0.00  0.00    +0.000 C 
ATOM      6  C   UNL     1       3.356   5.377  17.748  0.00  0.00    +0.000 A 
ATOM      7  C   UNL     1       4.245   6.466  17.747  0.00  0.00    +0.000 A 
ATOM      8  C   UNL     1       5.538   6.401  17.209  0.00  0.00    +0.000 A 
ATOM      9  C   UNL     1       5.935   5.158  16.665  0.00  0.00    +0.000 A 
ATOM     10  C   UNL     1       5.050   4.053  16.660  0.00  0.00    +0.000 A 
ATOM     11  C   UNL     1       3.757   4.156  17.193  0.00  0.00    +0.000 A 
ATOM     12  C   UNL     1       2.824   2.975  17.159  0.00  0.00    +0.000 C 
BRANCH   9  13
ATOM     13  N   UNL     1       7.276   4.945  16.099  0.00  0.00    +0.000 N 
ATOM     14  O   UNL     1       7.563   5.530  15.038  0.00  0.00    +0.000 OA
ATOM     15  O   UNL     1       8.059   4.204  16.712  0.00  0.00    +0.000 OA
ENDBRANCH   9  13
ENDBRANCH   1   8
BRANCH   2  16
ATOM     16  C   UNL     1       8.187   9.130  17.788  0.00  0.00    +0.000 C 
BRANCH  16  17
ATOM     17  O   UNL     1       9.319   9.270  18.651  0.00  0.00    +0.000 OA
BRANCH  17  18
ATOM     18  C   UNL     1       9.304  10.406  19.394  0.00  0.00    +0.000 C 
ATOM     19  O   UNL     1       8.945  10.465  20.562  0.00  0.00    +0.000 OA
BRANCH  18  20
ATOM     20  C   UNL     1       9.777  11.574  18.590  0.00  0.00    +0.000 C 
ATOM     21  C   UNL     1      11.031  11.518  18.132  0.00  0.00    +0.000 C 
ATOM     22  O   UNL     1      11.662  12.463  17.386  0.00  0.00    +0.000 OA
ATOM     23  C   UNL     1      10.913  13.642  17.126  0.00  0.00    +0.000 C 
ATOM     24  C   UNL     1       9.490  13.745  17.684  0.00  0.00    +0.000 C 
ATOM     25  O   UNL     1       8.924  12.622  18.350  0.00  0.00    +0.000 OA
ENDBRANCH  18  20
ENDBRANCH  17  18
ENDBRANCH  16  17
ENDBRANCH   2  16
TORSDOF 6
ENDMDL
MODEL 3
REMARK VINA RESULT:      -7.4      5.301      8.044
REMARK  Name = 
REMARK  8 active torsions:
REMARK  status: ('A' for Active; 'I' for Inactive)
REMARK    1  A    between atoms: C_1  and  C_2
REMARK    2  A    between atoms: C_4  and  N_5
REMARK    3  A    between atoms: C_6  and  C_8
REMARK    4  A    between atoms: C_8  and  O_9
REMARK    5  A    between atoms: O_9  and  C_10
REMARK    6  A    between atoms: C_10  and  C_12
REMARK    7  A    between atoms: C_18  and  N_19
REMARK    8  A    between atoms: C_23  and  C_24
REMARK                            x       y       z     vdW  Elec       q    Type
REMARK                         _______ _______ _______ _____ _____    ______ ____
ROOT
ATOM      1  N   UNL     1       2.334   5.590  20.860  0.00  0.00    +0.000 N 
ATOM      2  C   UNL     1       1.649   4.386  20.729  0.00  0.00    +0.000 C 
ATOM      3  O   UNL     1       0.543   4.235  20.215  0.00  0.00    +0.000 OA
ATOM      4  H   UNL     1       3.233   5.562  21.346  0.00  0.00    +0.000 HD
ENDROOT
BRANCH   1   8
ATOM      5  C   UNL     1       0.027   9.790  22.114  0.00  0.00    +0.000 C 
ATOM      6  C   UNL     1       0.755   9.004  21.053  0.00  0.00    +0.000 A 
ATOM      7  C   UNL     1       1.194   7.706  21.370  0.00  0.00    +0.000 A 
ATOM      8  C   UNL     1       1.887   6.889  20.465  0.00  0.00    +0.000 A 
ATOM      9  C   UNL     1       2.122   7.427  19.179  0.00  0.00    +0.000 A 
ATOM     10  C   UNL     1       1.685   8.732  18.847  0.00  0.00    +0.000 A 
ATOM     11  C   UNL     1       1.006   9.529  19.780  0.00  0.00    +0.000 A 
ATOM     12  C   UNL     1       0.569  10.922  19.415  0.00  0.00    +0.000 C 
BRANCH   9  13
ATOM     13  N   UNL     1       2.808   6.661  18.126  0.00  0.00    +0.000 N 
ATOM     14  O   UNL     1       3.920   7.068  17.738  0.00  0.00    +0.000 OA
ATOM     15  O   UNL     1       2.252   5.645  17.685  0.00  0.00    +0.000 OA
ENDBRANCH   9  13
ENDBRANCH   1   8
BRANCH   2  16
ATOM     16  C   UNL     1       2.375   3.166  21.301  0.00  0.00    +0.000 C 
BRANCH  16  17
ATOM     17  O   UNL     1       3.656   3.001  20.686  0.00  0.00    +0.000 OA
BRANCH  17  18
ATOM     18  C   UNL     1       3.594   2.596  19.392  0.00  0.00    +0.000 C 
ATOM     19  O   UNL     1       2.851   1.717  18.975  0.00  0.00    +0.000 OA
BRANCH  18  20
ATOM     20  C   UNL     1       4.562   3.360  18.549  0.00  0.00    +0.000 C 
ATOM     21  C   UNL     1       4.383   3.299  17.226  0.00  0.00    +0.000 C 
ATOM     22  O   UNL     1       5.140   3.912  16.278  0.00  0.00    +0.000 OA
ATOM     23  C   UNL     1       6.260   4.640  16.762  0.00  0.00    +0.000 C 
ATOM     24  C   UNL     1       6.511   4.682  18.273  0.00  0.00    +0.000 C 
ATOM     25  O   UNL     1       5.561   4.085  19.149  0.00  0.00    +0.000 OA
ENDBRANCH  18  20
ENDBRANCH  17  18
ENDBRANCH  16  17
ENDBRANCH   2  16
TORSDOF 6
ENDMDL
MODEL 4
REMARK VINA RESULT:      -7.4      5.269      7.641
REMARK  Name = 
REMARK  8 active torsions:
REMARK  status: ('A' for Active; 'I' for Inactive)
REMARK    1  A    between atoms: C_1  and  C_2
REMARK    2  A    between atoms: C_4  and  N_5
REMARK    3  A    between atoms: C_6  and  C_8
REMARK    4  A    between atoms: C_8  and  O_9
REMARK    5  A    between atoms: O_9  and  C_10
REMARK    6  A    between atoms: C_10  and  C_12
REMARK    7  A    between atoms: C_18  and  N_19
REMARK    8  A    between atoms: C_23  and  C_24
REMARK                            x       y       z     vdW  Elec       q    Type
REMARK                         _______ _______ _______ _____ _____    ______ ____
ROOT
ATOM      1  N   UNL     1       2.714   6.599  20.275  0.00  0.00    +0.000 N 
ATOM      2  C   UNL     1       2.346   5.267  20.111  0.00  0.00    +0.000 C 
ATOM      3  O   UNL     1       1.200   4.846  19.967  0.00  0.00    +0.000 OA
ATOM      4  H   UNL     1       3.707   6.791  20.420  0.00  0.00    +0.000 HD
ENDROOT
BRANCH   1   8
ATOM      5  C   UNL     1      -0.258   9.437  23.040  0.00  0.00    +0.000 C 
ATOM      6  C   UNL     1       0.370   9.183  21.694  0.00  0.00    +0.000 A 
ATOM      7  C   UNL     1       1.207   8.063  21.549  0.00  0.00    +0.000 A 
ATOM      8  C   UNL     1       1.849   7.735  20.347  0.00  0.00    +0.000 A 
ATOM      9  C   UNL     1       1.606   8.589  19.246  0.00  0.00    +0.000 A 
ATOM     10  C   UNL     1       0.765   9.719  19.378  0.00  0.00    +0.000 A 
ATOM     11  C   UNL     1       0.148  10.027  20.599  0.00  0.00    +0.000 A 
ATOM     12  C   UNL     1      -0.726  11.246  20.723  0.00  0.00    +0.000 C 
BRANCH   9  13
ATOM     13  N   UNL     1       2.192   8.339  17.920  0.00  0.00    +0.000 N 
ATOM     14  O   UNL     1       2.376   9.314  17.169  0.00  0.00    +0.000 OA
ATOM     15  O   UNL     1       2.482   7.171  17.619  0.00  0.00    +0.000 OA
ENDBRANCH   9  13
ENDBRANCH   1   8
BRANCH   2  16
ATOM     16  C   UNL     1       3.506   4.270  20.128  0.00  0.00    +0.000 C 
BRANCH  16  17
ATOM     17  O   UNL     1       4.125   4.187  18.841  0.00  0.00    +0.000 OA
BRANCH  17  18
ATOM     18  C   UNL     1       5.321   4.826  18.766  0.00  0.00    +0.000 C 
ATOM     19  O   UNL     1       5.895   5.335  19.720  0.00  0.00    +0.000 OA
BRANCH  18  20
ATOM     20  C   UNL     1       5.834   4.831  17.363  0.00  0.00    +0.000 C 
ATOM     21  C   UNL     1       7.139   4.593  17.202  0.00  0.00    +0.000 C 
ATOM     22  O   UNL     1       7.814   4.551  16.023  0.00  0.00    +0.000 OA
ATOM     23  C   UNL     1       7.047   4.848  14.865  0.00  0.00    +0.000 C 
ATOM     24  C   UNL     1       5.558   5.171  15.034  0.00  0.00    +0.000 C 
ATOM     25  O   UNL     1       4.968   5.061  16.324  0.00  0.00    +0.000 OA
ENDBRANCH  18  20
ENDBRANCH  17  18
ENDBRANCH  16  17
ENDBRANCH   2  16
TORSDOF 6
ENDMDL
MODEL 5
REMARK VINA RESULT:      -7.3      5.270      7.989
REMARK  Name = 
REMARK  8 active torsions:
REMARK  status: ('A' for Active; 'I' for Inactive)
REMARK    1  A    between atoms: C_1  and  C_2
REMARK    2  A    between atoms: C_4  and  N_5
REMARK    3  A    between atoms: C_6  and  C_8
REMARK    4  A    between atoms: C_8  and  O_9
REMARK    5  A    between atoms: O_9  and  C_10
REMARK    6  A    between atoms: C_10  and  C_12
REMARK    7  A    between atoms: C_18  and  N_19
REMARK    8  A    between atoms: C_23  and  C_24
REMARK                            x       y       z     vdW  Elec       q    Type
REMARK                         _______ _______ _______ _____ _____    ______ ____
ROOT
ATOM      1  N   UNL     1       2.342   5.706  20.782  0.00  0.00    +0.000 N 
ATOM      2  C   UNL     1       1.660   4.497  20.685  0.00  0.00    +0.000 C 
ATOM      3  O   UNL     1       0.533   4.337  20.224  0.00  0.00    +0.000 OA
ATOM      4  H   UNL     1       3.263   5.686  21.224  0.00  0.00    +0.000 HD
ENDROOT
BRANCH   1   8
ATOM      5  C   UNL     1      -0.104   9.814  22.077  0.00  0.00    +0.000 C 
ATOM      6  C   UNL     1       0.667   9.072  21.016  0.00  0.00    +0.000 A 
ATOM      7  C   UNL     1       1.135   7.779  21.313  0.00  0.00    +0.000 A 
ATOM      8  C   UNL     1       1.867   7.001  20.406  0.00  0.00    +0.000 A 
ATOM      9  C   UNL     1       2.114   7.574  19.136  0.00  0.00    +0.000 A 
ATOM     10  C   UNL     1       1.648   8.873  18.824  0.00  0.00    +0.000 A 
ATOM     11  C   UNL     1       0.930   9.631  19.760  0.00  0.00    +0.000 A 
ATOM     12  C   UNL     1       0.462  11.019  19.415  0.00  0.00    +0.000 C 
BRANCH   9  13
ATOM     13  N   UNL     1       2.842   6.850  18.082  0.00  0.00    +0.000 N 
ATOM     14  O   UNL     1       3.886   7.361  17.637  0.00  0.00    +0.000 OA
ATOM     15  O   UNL     1       2.385   5.764  17.696  0.00  0.00    +0.000 OA
ENDBRANCH   9  13
ENDBRANCH   1   8
BRANCH   2  16
ATOM     16  C   UNL     1       2.421   3.283  21.224  0.00  0.00    +0.000 C 
BRANCH  16  17
ATOM     17  O   UNL     1       3.689   3.147  20.576  0.00  0.00    +0.000 OA
BRANCH  17  18
ATOM     18  C   UNL     1       3.609   2.648  19.317  0.00  0.00    +0.000 C 
ATOM     19  O   UNL     1       2.907   1.700  18.990  0.00  0.00    +0.000 OA
BRANCH  18  20
ATOM     20  C   UNL     1       4.501   3.405  18.387  0.00  0.00    +0.000 C 
ATOM     21  C   UNL     1       5.396   4.224  18.948  0.00  0.00    +0.000 C 
ATOM     22  O   UNL     1       6.299   5.003  18.297  0.00  0.00    +0.000 OA
ATOM     23  C   UNL     1       6.230   4.970  16.879  0.00  0.00    +0.000 C 
ATOM     24  C   UNL     1       5.178   4.074  16.216  0.00  0.00    +0.000 C 
ATOM     25  O   UNL     1       4.378   3.226  17.032  0.00  0.00    +0.000 OA
ENDBRANCH  18  20
ENDBRANCH  17  18
ENDBRANCH  16  17
ENDBRANCH   2  16
TORSDOF 6
ENDMDL
MODEL 6
REMARK VINA RESULT:      -7.3      1.313      2.186
REMARK  Name = 
REMARK  8 active torsions:
REMARK  status: ('A' for Active; 'I' for Inactive)
REMARK    1  A    between atoms: C_1  and  C_2
REMARK    2  A    between atoms: C_4  and  N_5
REMARK    3  A    between atoms: C_6  and  C_8
REMARK    4  A    between atoms: C_8  and  O_9
REMARK    5  A    between atoms: O_9  and  C_10
REMARK    6  A    between atoms: C_10  and  C_12
REMARK    7  A    between atoms: C_18  and  N_19
REMARK    8  A    between atoms: C_23  and  C_24
REMARK                            x       y       z     vdW  Elec       q    Type
REMARK                         _______ _______ _______ _____ _____    ______ ____
ROOT
ATOM      1  N   UNL     1       6.571   7.541  16.992  0.00  0.00    +0.000 N 
ATOM      2  C   UNL     1       7.706   7.718  17.776  0.00  0.00    +0.000 C 
ATOM      3  O   UNL     1       8.093   6.968  18.669  0.00  0.00    +0.000 OA
ATOM      4  H   UNL     1       6.358   8.272  16.310  0.00  0.00    +0.000 HD
ENDROOT
BRANCH   1   8
ATOM      5  C   UNL     1       2.194   5.993  18.718  0.00  0.00    +0.000 C 
ATOM      6  C   UNL     1       3.429   5.679  17.913  0.00  0.00    +0.000 A 
ATOM      7  C   UNL     1       4.426   6.665  17.810  0.00  0.00    +0.000 A 
ATOM      8  C   UNL     1       5.611   6.486  17.083  0.00  0.00    +0.000 A 
ATOM      9  C   UNL     1       5.780   5.233  16.448  0.00  0.00    +0.000 A 
ATOM     10  C   UNL     1       4.784   4.232  16.544  0.00  0.00    +0.000 A 
ATOM     11  C   UNL     1       3.603   4.449  17.269  0.00  0.00    +0.000 A 
ATOM     12  C   UNL     1       2.548   3.379  17.340  0.00  0.00    +0.000 C 
BRANCH   9  13
ATOM     13  N   UNL     1       6.992   4.904  15.681  0.00  0.00    +0.000 N 
ATOM     14  O   UNL     1       6.987   5.128  14.457  0.00  0.00    +0.000 OA
ATOM     15  O   UNL     1       7.960   4.429  16.293  0.00  0.00    +0.000 OA
ENDBRANCH   9  13
ENDBRANCH   1   8
BRANCH   2  16
ATOM     16  C   UNL     1       8.511   8.983  17.469  0.00  0.00    +0.000 C 
BRANCH  16  17
ATOM     17  O   UNL     1       8.094  10.068  18.304  0.00  0.00    +0.000 OA
BRANCH  17  18
ATOM     18  C   UNL     1       9.081  10.560  19.095  0.00  0.00    +0.000 C 
ATOM     19  O   UNL     1       9.367  10.120  20.201  0.00  0.00    +0.000 OA
BRANCH  18  20
ATOM     20  C   UNL     1       9.763  11.716  18.438  0.00  0.00    +0.000 C 
ATOM     21  C   UNL     1       9.074  12.859  18.369  0.00  0.00    +0.000 C 
ATOM     22  O   UNL     1       9.497  14.027  17.818  0.00  0.00    +0.000 OA
ATOM     23  C   UNL     1      10.781  13.991  17.212  0.00  0.00    +0.000 C 
ATOM     24  C   UNL     1      11.568  12.676  17.238  0.00  0.00    +0.000 C 
ATOM     25  O   UNL     1      11.039  11.567  17.956  0.00  0.00    +0.000 OA
ENDBRANCH  18  20
ENDBRANCH  17  18
ENDBRANCH  16  17
ENDBRANCH   2  16
TORSDOF 6
ENDMDL
MODEL 7
REMARK VINA RESULT:      -7.3      1.435      1.949
REMARK  Name = 
REMARK  8 active torsions:
REMARK  status: ('A' for Active; 'I' for Inactive)
REMARK    1  A    between atoms: C_1  and  C_2
REMARK    2  A    between atoms: C_4  and  N_5
REMARK    3  A    between atoms: C_6  and  C_8
REMARK    4  A    between atoms: C_8  and  O_9
REMARK    5  A    between atoms: O_9  and  C_10
REMARK    6  A    between atoms: C_10  and  C_12
REMARK    7  A    between atoms: C_18  and  N_19
REMARK    8  A    between atoms: C_23  and  C_24
REMARK                            x       y       z     vdW  Elec       q    Type
REMARK                         _______ _______ _______ _____ _____    ______ ____
ROOT
ATOM      1  N   UNL     1       6.647   7.609  16.950  0.00  0.00    +0.000 N 
ATOM      2  C   UNL     1       7.752   7.881  17.749  0.00  0.00    +0.000 C 
ATOM      3  O   UNL     1       8.141   7.207  18.700  0.00  0.00    +0.000 OA
ATOM      4  H   UNL     1       6.427   8.285  16.216  0.00  0.00    +0.000 HD
ENDROOT
BRANCH   1   8
ATOM      5  C   UNL     1       2.141   6.091  18.338  0.00  0.00    +0.000 C 
ATOM      6  C   UNL     1       3.483   5.730  17.754  0.00  0.00    +0.000 A 
ATOM      7  C   UNL     1       4.447   6.745  17.622  0.00  0.00    +0.000 A 
ATOM      8  C   UNL     1       5.724   6.526  17.086  0.00  0.00    +0.000 A 
ATOM      9  C   UNL     1       6.023   5.203  16.685  0.00  0.00    +0.000 A 
ATOM     10  C   UNL     1       5.062   4.172  16.813  0.00  0.00    +0.000 A 
ATOM     11  C   UNL     1       3.788   4.428  17.340  0.00  0.00    +0.000 A 
ATOM     12  C   UNL     1       2.774   3.322  17.448  0.00  0.00    +0.000 C 
BRANCH   9  13
ATOM     13  N   UNL     1       7.337   4.832  16.138  0.00  0.00    +0.000 N 
ATOM     14  O   UNL     1       7.615   5.202  14.982  0.00  0.00    +0.000 OA
ATOM     15  O   UNL     1       8.107   4.178  16.857  0.00  0.00    +0.000 OA
ENDBRANCH   9  13
ENDBRANCH   1   8
BRANCH   2  16
ATOM     16  C   UNL     1       8.518   9.154  17.380  0.00  0.00    +0.000 C 
BRANCH  16  17
ATOM     17  O   UNL     1       8.534  10.075  18.473  0.00  0.00    +0.000 OA
BRANCH  17  18
ATOM     18  C   UNL     1       8.704  11.368  18.097  0.00  0.00    +0.000 C 
ATOM     19  O   UNL     1       7.936  11.985  17.370  0.00  0.00    +0.000 OA
BRANCH  18  20
ATOM     20  C   UNL     1       9.957  11.933  18.682  0.00  0.00    +0.000 C 
ATOM     21  C   UNL     1       9.992  13.257  18.861  0.00  0.00    +0.000 C 
ATOM     22  O   UNL     1      11.025  13.977  19.375  0.00  0.00    +0.000 OA
ATOM     23  C   UNL     1      12.193  13.234  19.694  0.00  0.00    +0.000 C 
ATOM     24  C   UNL     1      12.190  11.721  19.451  0.00  0.00    +0.000 C 
ATOM     25  O   UNL     1      10.989  11.092  19.015  0.00  0.00    +0.000 OA
ENDBRANCH  18  20
ENDBRANCH  17  18
ENDBRANCH  16  17
ENDBRANCH   2  16
TORSDOF 6
ENDMDL
MODEL 8
REMARK VINA RESULT:      -7.3      4.108      6.797
REMARK  Name = 
REMARK  8 active torsions:
REMARK  status: ('A' for Active; 'I' for Inactive)
REMARK    1  A    between atoms: C_1  and  C_2
REMARK    2  A    between atoms: C_4  and  N_5
REMARK    3  A    between atoms: C_6  and  C_8
REMARK    4  A    between atoms: C_8  and  O_9
REMARK    5  A    between atoms: O_9  and  C_10
REMARK    6  A    between atoms: C_10  and  C_12
REMARK    7  A    between atoms: C_18  and  N_19
REMARK    8  A    between atoms: C_23  and  C_24
REMARK                            x       y       z     vdW  Elec       q    Type
REMARK                         _______ _______ _______ _____ _____    ______ ____
ROOT
ATOM      1  N   UNL     1       5.218   5.770  17.851  0.00  0.00    +0.000 N 
ATOM      2  C   UNL     1       6.410   5.925  18.551  0.00  0.00    +0.000 C 
ATOM      3  O   UNL     1       6.676   5.435  19.645  0.00  0.00    +0.000 OA
ATOM      4  H   UNL     1       5.132   6.271  16.964  0.00  0.00    +0.000 HD
ENDROOT
BRANCH   1   8
ATOM      5  C   UNL     1       3.064   1.378  18.627  0.00  0.00    +0.000 C 
ATOM      6  C   UNL     1       2.950   2.879  18.680  0.00  0.00    +0.000 A 
ATOM      7  C   UNL     1       4.048   3.647  18.254  0.00  0.00    +0.000 A 
ATOM      8  C   UNL     1       4.056   5.049  18.267  0.00  0.00    +0.000 A 
ATOM      9  C   UNL     1       2.878   5.684  18.723  0.00  0.00    +0.000 A 
ATOM     10  C   UNL     1       1.765   4.923  19.154  0.00  0.00    +0.000 A 
ATOM     11  C   UNL     1       1.794   3.521  19.142  0.00  0.00    +0.000 A 
ATOM     12  C   UNL     1       0.608   2.731  19.624  0.00  0.00    +0.000 C 
BRANCH   9  13
ATOM     13  N   UNL     1       2.743   7.149  18.756  0.00  0.00    +0.000 N 
ATOM     14  O   UNL     1       3.113   7.792  17.756  0.00  0.00    +0.000 OA
ATOM     15  O   UNL     1       2.259   7.669  19.772  0.00  0.00    +0.000 OA
ENDBRANCH   9  13
ENDBRANCH   1   8
BRANCH   2  16
ATOM     16  C   UNL     1       7.455   6.805  17.859  0.00  0.00    +0.000 C 
BRANCH  16  17
ATOM     17  O   UNL     1       7.550   6.484  16.468  0.00  0.00    +0.000 OA
BRANCH  17  18
ATOM     18  C   UNL     1       7.668   5.155  16.219  0.00  0.00    +0.000 C 
ATOM     19  O   UNL     1       8.037   4.326  17.041  0.00  0.00    +0.000 OA
BRANCH  18  20
ATOM     20  C   UNL     1       7.296   4.843  14.806  0.00  0.00    +0.000 C 
ATOM     21  C   UNL     1       6.309   3.960  14.627  0.00  0.00    +0.000 C 
ATOM     22  O   UNL     1       5.812   3.532  13.436  0.00  0.00    +0.000 OA
ATOM     23  C   UNL     1       6.458   4.047  12.281  0.00  0.00    +0.000 C 
ATOM     24  C   UNL     1       7.624   5.024  12.465  0.00  0.00    +0.000 C 
ATOM     25  O   UNL     1       7.954   5.468  13.777  0.00  0.00    +0.000 OA
ENDBRANCH  18  20
ENDBRANCH  17  18
ENDBRANCH  16  17
ENDBRANCH   2  16
TORSDOF 6
ENDMDL
MODEL 9
REMARK VINA RESULT:      -7.3      5.380      8.070
REMARK  Name = 
REMARK  8 active torsions:
REMARK  status: ('A' for Active; 'I' for Inactive)
REMARK    1  A    between atoms: C_1  and  C_2
REMARK    2  A    between atoms: C_4  and  N_5
REMARK    3  A    between atoms: C_6  and  C_8
REMARK    4  A    between atoms: C_8  and  O_9
REMARK    5  A    between atoms: O_9  and  C_10
REMARK    6  A    between atoms: C_10  and  C_12
REMARK    7  A    between atoms: C_18  and  N_19
REMARK    8  A    between atoms: C_23  and  C_24
REMARK                            x       y       z     vdW  Elec       q    Type
REMARK                         _______ _______ _______ _____ _____    ______ ____
ROOT
ATOM      1  N   UNL     1       2.563   6.825  20.239  0.00  0.00    +0.000 N 
ATOM      2  C   UNL     1       2.193   5.484  20.283  0.00  0.00    +0.000 C 
ATOM      3  O   UNL     1       1.052   5.053  20.437  0.00  0.00    +0.000 OA
ATOM      4  H   UNL     1       3.560   7.028  20.140  0.00  0.00    +0.000 HD
ENDROOT
BRANCH   1   8
ATOM      5  C   UNL     1      -0.257   9.560  23.255  0.00  0.00    +0.000 C 
ATOM      6  C   UNL     1       0.309   9.362  21.873  0.00  0.00    +0.000 A 
ATOM      7  C   UNL     1       1.128   8.242  21.642  0.00  0.00    +0.000 A 
ATOM      8  C   UNL     1       1.714   7.964  20.399  0.00  0.00    +0.000 A 
ATOM      9  C   UNL     1       1.432   8.869  19.349  0.00  0.00    +0.000 A 
ATOM     10  C   UNL     1       0.610   9.999  19.568  0.00  0.00    +0.000 A 
ATOM     11  C   UNL     1       0.050  10.257  20.828  0.00  0.00    +0.000 A 
ATOM     12  C   UNL     1      -0.805  11.477  21.044  0.00  0.00    +0.000 C 
BRANCH   9  13
ATOM     13  N   UNL     1       1.958   8.674  17.989  0.00  0.00    +0.000 N 
ATOM     14  O   UNL     1       2.171   9.685  17.294  0.00  0.00    +0.000 OA
ATOM     15  O   UNL     1       2.172   7.515  17.605  0.00  0.00    +0.000 OA
ENDBRANCH   9  13
ENDBRANCH   1   8
BRANCH   2  16
ATOM     16  C   UNL     1       3.347   4.491  20.130  0.00  0.00    +0.000 C 
BRANCH  16  17
ATOM     17  O   UNL     1       4.171   4.835  19.012  0.00  0.00    +0.000 OA
BRANCH  17  18
ATOM     18  C   UNL     1       4.081   3.963  17.976  0.00  0.00    +0.000 C 
ATOM     19  O   UNL     1       3.258   3.060  17.900  0.00  0.00    +0.000 OA
BRANCH  18  20
ATOM     20  C   UNL     1       5.126   4.248  16.948  0.00  0.00    +0.000 C 
ATOM     21  C   UNL     1       6.361   4.489  17.399  0.00  0.00    +0.000 C 
ATOM     22  O   UNL     1       7.457   4.770  16.645  0.00  0.00    +0.000 OA
ATOM     23  C   UNL     1       7.233   4.866  15.246  0.00  0.00    +0.000 C 
ATOM     24  C   UNL     1       5.814   4.640  14.713  0.00  0.00    +0.000 C 
ATOM     25  O   UNL     1       4.791   4.239  15.617  0.00  0.00    +0.000 OA
ENDBRANCH  18  20
ENDBRANCH  17  18
ENDBRANCH  16  17
ENDBRANCH   2  16
TORSDOF 6
ENDMDL
