MODEL 1
REMARK VINA RESULT:      -6.3      0.000      0.000
REMARK  Name = 
REMARK  20 active torsions:
REMARK  status: ('A' for Active; 'I' for Inactive)
REMARK    1  A    between atoms: C_1  and  C_2
REMARK    2  A    between atoms: C_5  and  C_6
REMARK    3  A    between atoms: C_6  and  O_7
REMARK    4  A    between atoms: O_7  and  C_8
REMARK    5  A    between atoms: C_8  and  C_9
REMARK    6  A    between atoms: C_9  and  O_10
REMARK    7  A    between atoms: O_10  and  C_11
REMARK    8  A    between atoms: C_11  and  C_12
REMARK    9  A    between atoms: C_12  and  C_13
REMARK   10  A    between atoms: C_13  and  C_14
REMARK   11  A    between atoms: C_14  and  C_15
REMARK   12  A    between atoms: C_15  and  C_16
REMARK   13  A    between atoms: C_16  and  N_17
REMARK   14  A    between atoms: N_17  and  C_18
REMARK   15  A    between atoms: C_18  and  C_19
REMARK   16  A    between atoms: C_19  and  O_20
REMARK   17  A    between atoms: C_19  and  C_21
REMARK   18  A    between atoms: C_24  and  O_25
REMARK   19  A    between atoms: C_26  and  C_27
REMARK   20  A    between atoms: C_27  and  O_28
REMARK                            x       y       z     vdW  Elec       q    Type
REMARK                         _______ _______ _______ _____ _____    ______ ____
ROOT
ATOM      1  C   UNL     1       0.849   3.434  20.483  0.00  0.00    +0.000 C 
ENDROOT
BRANCH   1   2
ATOM      2  N   UNL     1       1.726   2.287  20.276  0.00  0.00    +0.000 NA
ATOM      3  H   UNL     1       1.692   2.009  19.295  0.00  0.00    +0.000 HD
BRANCH   2   4
ATOM      4  C   UNL     1       3.120   2.538  20.655  0.00  0.00    +0.000 C 
BRANCH   4   5
ATOM      5  C   UNL     1       4.092   2.246  19.477  0.00  0.00    +0.000 C 
BRANCH   5   6
ATOM      6  C   UNL     1       4.482   3.388  18.550  0.00  0.00    +0.000 A 
ATOM      7  C   UNL     1       3.904   3.431  17.268  0.00  0.00    +0.000 A 
ATOM      8  C   UNL     1       4.268   4.409  16.342  0.00  0.00    +0.000 A 
ATOM      9  C   UNL     1       5.228   5.356  16.684  0.00  0.00    +0.000 A 
ATOM     10  C   UNL     1       5.825   5.353  17.949  0.00  0.00    +0.000 A 
ATOM     11  C   UNL     1       5.424   4.375  18.879  0.00  0.00    +0.000 A 
BRANCH   9  12
ATOM     12  O   UNL     1       5.611   6.308  15.778  0.00  0.00    +0.000 OA
ATOM     13  H   UNL     1       4.810   6.738  15.432  0.00  0.00    +0.000 HD
ENDBRANCH   9  12
BRANCH  10  14
ATOM     14  C   UNL     1       6.936   6.310  18.303  0.00  0.00    +0.000 C 
BRANCH  14  15
ATOM     15  O   UNL     1       7.849   6.486  17.227  0.00  0.00    +0.000 OA
ATOM     16  H   UNL     1       8.492   7.148  17.549  0.00  0.00    +0.000 HD
ENDBRANCH  14  15
ENDBRANCH  10  14
ENDBRANCH   5   6
BRANCH   5  17
ATOM     17  O   UNL     1       5.303   1.716  20.048  0.00  0.00    +0.000 OA
ATOM     18  H   UNL     1       5.778   1.307  19.302  0.00  0.00    +0.000 HD
ENDBRANCH   5  17
ENDBRANCH   4   5
ENDBRANCH   2   4
ENDBRANCH   1   2
BRANCH   1  19
ATOM     19  C   UNL     1       1.331   4.586  19.593  0.00  0.00    +0.000 C 
BRANCH  19  20
ATOM     20  C   UNL     1       1.770   5.798  20.421  0.00  0.00    +0.000 C 
BRANCH  20  21
ATOM     21  C   UNL     1       2.767   6.675  19.675  0.00  0.00    +0.000 C 
BRANCH  21  22
ATOM     22  C   UNL     1       2.255   6.973  18.263  0.00  0.00    +0.000 C 
BRANCH  22  23
ATOM     23  C   UNL     1       2.586   8.391  17.819  0.00  0.00    +0.000 C 
BRANCH  23  24
ATOM     24  O   UNL     1       1.371   9.123  17.692  0.00  0.00    +0.000 OA
BRANCH  24  25
ATOM     25  C   UNL     1       1.298  10.184  18.638  0.00  0.00    +0.000 C 
BRANCH  25  26
ATOM     26  C   UNL     1      -0.021  10.085  19.393  0.00  0.00    +0.000 C 
BRANCH  26  27
ATOM     27  O   UNL     1      -1.090  10.226  18.467  0.00  0.00    +0.000 OA
BRANCH  27  28
ATOM     28  C   UNL     1      -1.398  11.596  18.220  0.00  0.00    +0.000 C 
BRANCH  28  33
ATOM     29  C   UNL     1      -7.187  12.211  18.310  0.00  0.00    +0.000 C 
ATOM     30  C   UNL     1      -5.696  12.055  18.294  0.00  0.00    +0.000 A 
ATOM     31  C   UNL     1      -4.927  12.385  19.413  0.00  0.00    +0.000 A 
ATOM     32  C   UNL     1      -3.540  12.236  19.385  0.00  0.00    +0.000 A 
ATOM     33  C   UNL     1      -2.894  11.750  18.239  0.00  0.00    +0.000 A 
ATOM     34  C   UNL     1      -3.666  11.422  17.118  0.00  0.00    +0.000 A 
ATOM     35  C   UNL     1      -5.056  11.572  17.147  0.00  0.00    +0.000 A 
ENDBRANCH  28  33
ENDBRANCH  27  28
ENDBRANCH  26  27
ENDBRANCH  25  26
ENDBRANCH  24  25
ENDBRANCH  23  24
ENDBRANCH  22  23
ENDBRANCH  21  22
ENDBRANCH  20  21
ENDBRANCH  19  20
ENDBRANCH   1  19
TORSDOF 19
ENDMDL
MODEL 2
REMARK VINA RESULT:      -6.2      2.727      9.750
REMARK  Name = 
REMARK  20 active torsions:
REMARK  status: ('A' for Active; 'I' for Inactive)
REMARK    1  A    between atoms: C_1  and  C_2
REMARK    2  A    between atoms: C_5  and  C_6
REMARK    3  A    between atoms: C_6  and  O_7
REMARK    4  A    between atoms: O_7  and  C_8
REMARK    5  A    between atoms: C_8  and  C_9
REMARK    6  A    between atoms: C_9  and  O_10
REMARK    7  A    between atoms: O_10  and  C_11
REMARK    8  A    between atoms: C_11  and  C_12
REMARK    9  A    between atoms: C_12  and  C_13
REMARK   10  A    between atoms: C_13  and  C_14
REMARK   11  A    between atoms: C_14  and  C_15
REMARK   12  A    between atoms: C_15  and  C_16
REMARK   13  A    between atoms: C_16  and  N_17
REMARK   14  A    between atoms: N_17  and  C_18
REMARK   15  A    between atoms: C_18  and  C_19
REMARK   16  A    between atoms: C_19  and  O_20
REMARK   17  A    between atoms: C_19  and  C_21
REMARK   18  A    between atoms: C_24  and  O_25
REMARK   19  A    between atoms: C_26  and  C_27
REMARK   20  A    between atoms: C_27  and  O_28
REMARK                            x       y       z     vdW  Elec       q    Type
REMARK                         _______ _______ _______ _____ _____    ______ ____
ROOT
ATOM      1  C   UNL     1       0.360   9.970  21.662  0.00  0.00    +0.000 C 
ENDROOT
BRANCH   1   2
ATOM      2  N   UNL     1       1.140  11.157  21.331  0.00  0.00    +0.000 NA
ATOM      3  H   UNL     1       2.133  10.951  21.443  0.00  0.00    +0.000 HD
BRANCH   2   4
ATOM      4  C   UNL     1       0.906  11.653  19.970  0.00  0.00    +0.000 C 
BRANCH   4   5
ATOM      5  C   UNL     1       0.063  10.649  19.135  0.00  0.00    +0.000 C 
BRANCH   5   6
ATOM      6  C   UNL     1      -1.301  11.089  18.621  0.00  0.00    +0.000 A 
ATOM      7  C   UNL     1      -2.164  11.755  19.510  0.00  0.00    +0.000 A 
ATOM      8  C   UNL     1      -3.453  12.125  19.127  0.00  0.00    +0.000 A 
ATOM      9  C   UNL     1      -3.903  11.822  17.846  0.00  0.00    +0.000 A 
ATOM     10  C   UNL     1      -3.078  11.164  16.929  0.00  0.00    +0.000 A 
ATOM     11  C   UNL     1      -1.770  10.824  17.325  0.00  0.00    +0.000 A 
BRANCH   9  12
ATOM     12  O   UNL     1      -5.173  12.158  17.464  0.00  0.00    +0.000 OA
ATOM     13  H   UNL     1      -5.320  13.094  17.683  0.00  0.00    +0.000 HD
ENDBRANCH   9  12
BRANCH  10  14
ATOM     14  C   UNL     1      -3.581  10.740  15.572  0.00  0.00    +0.000 C 
BRANCH  14  15
ATOM     15  O   UNL     1      -2.815   9.673  15.030  0.00  0.00    +0.000 OA
ATOM     16  H   UNL     1      -2.005  10.095  14.681  0.00  0.00    +0.000 HD
ENDBRANCH  14  15
ENDBRANCH  10  14
ENDBRANCH   5   6
BRANCH   5  17
ATOM     17  O   UNL     1       0.858  10.274  17.994  0.00  0.00    +0.000 OA
ATOM     18  H   UNL     1       0.676  10.957  17.323  0.00  0.00    +0.000 HD
ENDBRANCH   5  17
ENDBRANCH   4   5
ENDBRANCH   2   4
ENDBRANCH   1   2
BRANCH   1  19
ATOM     19  C   UNL     1       1.325   8.809  21.928  0.00  0.00    +0.000 C 
BRANCH  19  20
ATOM     20  C   UNL     1       0.996   7.587  21.062  0.00  0.00    +0.000 C 
BRANCH  20  21
ATOM     21  C   UNL     1       2.119   7.250  20.090  0.00  0.00    +0.000 C 
BRANCH  21  22
ATOM     22  C   UNL     1       2.078   5.763  19.730  0.00  0.00    +0.000 C 
BRANCH  22  23
ATOM     23  C   UNL     1       2.214   4.871  20.956  0.00  0.00    +0.000 C 
BRANCH  23  24
ATOM     24  O   UNL     1       1.279   3.803  20.848  0.00  0.00    +0.000 OA
BRANCH  24  25
ATOM     25  C   UNL     1       0.883   3.588  19.497  0.00  0.00    +0.000 C 
BRANCH  25  26
ATOM     26  C   UNL     1       1.364   2.213  19.052  0.00  0.00    +0.000 C 
BRANCH  26  27
ATOM     27  O   UNL     1       2.184   2.366  17.901  0.00  0.00    +0.000 OA
BRANCH  27  28
ATOM     28  C   UNL     1       3.558   2.130  18.197  0.00  0.00    +0.000 C 
BRANCH  28  33
ATOM     29  C   UNL     1       6.492   7.087  17.348  0.00  0.00    +0.000 C 
ATOM     30  C   UNL     1       5.739   5.810  17.573  0.00  0.00    +0.000 A 
ATOM     31  C   UNL     1       5.843   5.120  18.784  0.00  0.00    +0.000 A 
ATOM     32  C   UNL     1       5.137   3.931  18.981  0.00  0.00    +0.000 A 
ATOM     33  C   UNL     1       4.311   3.412  17.973  0.00  0.00    +0.000 A 
ATOM     34  C   UNL     1       4.211   4.105  16.760  0.00  0.00    +0.000 A 
ATOM     35  C   UNL     1       4.919   5.295  16.563  0.00  0.00    +0.000 A 
ENDBRANCH  28  33
ENDBRANCH  27  28
ENDBRANCH  26  27
ENDBRANCH  25  26
ENDBRANCH  24  25
ENDBRANCH  23  24
ENDBRANCH  22  23
ENDBRANCH  21  22
ENDBRANCH  20  21
ENDBRANCH  19  20
ENDBRANCH   1  19
TORSDOF 19
ENDMDL
MODEL 3
REMARK VINA RESULT:      -6.2      2.121      3.174
REMARK  Name = 
REMARK  20 active torsions:
REMARK  status: ('A' for Active; 'I' for Inactive)
REMARK    1  A    between atoms: C_1  and  C_2
REMARK    2  A    between atoms: C_5  and  C_6
REMARK    3  A    between atoms: C_6  and  O_7
REMARK    4  A    between atoms: O_7  and  C_8
REMARK    5  A    between atoms: C_8  and  C_9
REMARK    6  A    between atoms: C_9  and  O_10
REMARK    7  A    between atoms: O_10  and  C_11
REMARK    8  A    between atoms: C_11  and  C_12
REMARK    9  A    between atoms: C_12  and  C_13
REMARK   10  A    between atoms: C_13  and  C_14
REMARK   11  A    between atoms: C_14  and  C_15
REMARK   12  A    between atoms: C_15  and  C_16
REMARK   13  A    between atoms: C_16  and  N_17
REMARK   14  A    between atoms: N_17  and  C_18
REMARK   15  A    between atoms: C_18  and  C_19
REMARK   16  A    between atoms: C_19  and  O_20
REMARK   17  A    between atoms: C_19  and  C_21
REMARK   18  A    between atoms: C_24  and  O_25
REMARK   19  A    between atoms: C_26  and  C_27
REMARK   20  A    between atoms: C_27  and  O_28
REMARK                            x       y       z     vdW  Elec       q    Type
REMARK                         _______ _______ _______ _____ _____    ______ ____
ROOT
ATOM      1  C   UNL     1       2.088   5.679  19.487  0.00  0.00    +0.000 C 
ENDROOT
BRANCH   1   2
ATOM      2  N   UNL     1       2.882   4.570  20.004  0.00  0.00    +0.000 NA
ATOM      3  H   UNL     1       2.605   4.377  20.966  0.00  0.00    +0.000 HD
BRANCH   2   4
ATOM      4  C   UNL     1       2.756   3.340  19.215  0.00  0.00    +0.000 C 
BRANCH   4   5
ATOM      5  C   UNL     1       4.110   2.940  18.565  0.00  0.00    +0.000 C 
BRANCH   5   6
ATOM      6  C   UNL     1       5.038   4.040  18.070  0.00  0.00    +0.000 A 
ATOM      7  C   UNL     1       4.902   4.477  16.740  0.00  0.00    +0.000 A 
ATOM      8  C   UNL     1       5.764   5.432  16.200  0.00  0.00    +0.000 A 
ATOM      9  C   UNL     1       6.786   5.958  16.984  0.00  0.00    +0.000 A 
ATOM     10  C   UNL     1       6.955   5.555  18.313  0.00  0.00    +0.000 A 
ATOM     11  C   UNL     1       6.058   4.611  18.848  0.00  0.00    +0.000 A 
BRANCH   9  12
ATOM     12  O   UNL     1       7.652   6.879  16.461  0.00  0.00    +0.000 OA
ATOM     13  H   UNL     1       8.452   6.411  16.165  0.00  0.00    +0.000 HD
ENDBRANCH   9  12
BRANCH  10  14
ATOM     14  C   UNL     1       8.115   6.039  19.146  0.00  0.00    +0.000 C 
BRANCH  14  15
ATOM     15  O   UNL     1       8.057   5.545  20.477  0.00  0.00    +0.000 OA
ATOM     16  H   UNL     1       8.911   5.800  20.878  0.00  0.00    +0.000 HD
ENDBRANCH  14  15
ENDBRANCH  10  14
ENDBRANCH   5   6
BRANCH   5  17
ATOM     17  O   UNL     1       4.835   2.164  19.538  0.00  0.00    +0.000 OA
ATOM     18  H   UNL     1       4.495   2.459  20.402  0.00  0.00    +0.000 HD
ENDBRANCH   5  17
ENDBRANCH   4   5
ENDBRANCH   2   4
ENDBRANCH   1   2
BRANCH   1  19
ATOM     19  C   UNL     1       1.476   6.437  20.672  0.00  0.00    +0.000 C 
BRANCH  19  20
ATOM     20  C   UNL     1       1.616   7.954  20.509  0.00  0.00    +0.000 C 
BRANCH  20  21
ATOM     21  C   UNL     1       1.286   8.704  21.793  0.00  0.00    +0.000 C 
BRANCH  21  22
ATOM     22  C   UNL     1       0.634  10.051  21.466  0.00  0.00    +0.000 C 
BRANCH  22  23
ATOM     23  C   UNL     1      -0.581  10.327  22.339  0.00  0.00    +0.000 C 
BRANCH  23  24
ATOM     24  O   UNL     1      -0.414  11.596  22.964  0.00  0.00    +0.000 OA
BRANCH  24  25
ATOM     25  C   UNL     1      -1.651  12.295  23.068  0.00  0.00    +0.000 C 
BRANCH  25  26
ATOM     26  C   UNL     1      -1.584  13.551  22.211  0.00  0.00    +0.000 C 
BRANCH  26  27
ATOM     27  O   UNL     1      -1.728  13.181  20.846  0.00  0.00    +0.000 OA
BRANCH  27  28
ATOM     28  C   UNL     1      -3.040  12.698  20.565  0.00  0.00    +0.000 C 
BRANCH  28  33
ATOM     29  C   UNL     1      -2.836   9.769  15.537  0.00  0.00    +0.000 C 
ATOM     30  C   UNL     1      -2.881  10.522  16.833  0.00  0.00    +0.000 A 
ATOM     31  C   UNL     1      -1.732  10.677  17.614  0.00  0.00    +0.000 A 
ATOM     32  C   UNL     1      -1.788  11.380  18.819  0.00  0.00    +0.000 A 
ATOM     33  C   UNL     1      -2.992  11.946  19.264  0.00  0.00    +0.000 A 
ATOM     34  C   UNL     1      -4.141  11.787  18.481  0.00  0.00    +0.000 A 
ATOM     35  C   UNL     1      -4.085  11.082  17.274  0.00  0.00    +0.000 A 
ENDBRANCH  28  33
ENDBRANCH  27  28
ENDBRANCH  26  27
ENDBRANCH  25  26
ENDBRANCH  24  25
ENDBRANCH  23  24
ENDBRANCH  22  23
ENDBRANCH  21  22
ENDBRANCH  20  21
ENDBRANCH  19  20
ENDBRANCH   1  19
TORSDOF 19
ENDMDL
MODEL 4
REMARK VINA RESULT:      -6.0      3.467      9.524
REMARK  Name = 
REMARK  20 active torsions:
REMARK  status: ('A' for Active; 'I' for Inactive)
REMARK    1  A    between atoms: C_1  and  C_2
REMARK    2  A    between atoms: C_5  and  C_6
REMARK    3  A    between atoms: C_6  and  O_7
REMARK    4  A    between atoms: O_7  and  C_8
REMARK    5  A    between atoms: C_8  and  C_9
REMARK    6  A    between atoms: C_9  and  O_10
REMARK    7  A    between atoms: O_10  and  C_11
REMARK    8  A    between atoms: C_11  and  C_12
REMARK    9  A    between atoms: C_12  and  C_13
REMARK   10  A    between atoms: C_13  and  C_14
REMARK   11  A    between atoms: C_14  and  C_15
REMARK   12  A    between atoms: C_15  and  C_16
REMARK   13  A    between atoms: C_16  and  N_17
REMARK   14  A    between atoms: N_17  and  C_18
REMARK   15  A    between atoms: C_18  and  C_19
REMARK   16  A    between atoms: C_19  and  O_20
REMARK   17  A    between atoms: C_19  and  C_21
REMARK   18  A    between atoms: C_24  and  O_25
REMARK   19  A    between atoms: C_26  and  C_27
REMARK   20  A    between atoms: C_27  and  O_28
REMARK                            x       y       z     vdW  Elec       q    Type
REMARK                         _______ _______ _______ _____ _____    ______ ____
ROOT
ATOM      1  C   UNL     1       3.429   7.109  18.292  0.00  0.00    +0.000 C 
ENDROOT
BRANCH   1   2
ATOM      2  N   UNL     1       2.834   8.232  17.576  0.00  0.00    +0.000 NA
ATOM      3  H   UNL     1       2.964   8.100  16.574  0.00  0.00    +0.000 HD
BRANCH   2   4
ATOM      4  C   UNL     1       1.406   8.416  17.853  0.00  0.00    +0.000 C 
BRANCH   4   5
ATOM      5  C   UNL     1       1.048   9.918  18.029  0.00  0.00    +0.000 C 
BRANCH   5   6
ATOM      6  C   UNL     1       0.676  10.425  19.416  0.00  0.00    +0.000 A 
ATOM      7  C   UNL     1       0.108   9.515  20.326  0.00  0.00    +0.000 A 
ATOM      8  C   UNL     1      -0.320   9.926  21.589  0.00  0.00    +0.000 A 
ATOM      9  C   UNL     1      -0.195  11.262  21.956  0.00  0.00    +0.000 A 
ATOM     10  C   UNL     1       0.369  12.199  21.084  0.00  0.00    +0.000 A 
ATOM     11  C   UNL     1       0.820  11.760  19.825  0.00  0.00    +0.000 A 
BRANCH   9  12
ATOM     12  O   UNL     1      -0.630  11.684  23.183  0.00  0.00    +0.000 OA
ATOM     13  H   UNL     1       0.148  11.846  23.744  0.00  0.00    +0.000 HD
ENDBRANCH   9  12
BRANCH  10  14
ATOM     14  C   UNL     1       0.423  13.667  21.426  0.00  0.00    +0.000 C 
BRANCH  14  15
ATOM     15  O   UNL     1      -0.866  14.194  21.715  0.00  0.00    +0.000 OA
ATOM     16  H   UNL     1      -1.008  14.892  21.045  0.00  0.00    +0.000 HD
ENDBRANCH  14  15
ENDBRANCH  10  14
ENDBRANCH   5   6
BRANCH   5  17
ATOM     17  O   UNL     1       2.184  10.680  17.578  0.00  0.00    +0.000 OA
ATOM     18  H   UNL     1       2.869  10.542  18.258  0.00  0.00    +0.000 HD
ENDBRANCH   5  17
ENDBRANCH   4   5
ENDBRANCH   2   4
ENDBRANCH   1   2
BRANCH   1  19
ATOM     19  C   UNL     1       2.515   6.738  19.466  0.00  0.00    +0.000 C 
BRANCH  19  20
ATOM     20  C   UNL     1       2.760   5.303  19.945  0.00  0.00    +0.000 C 
BRANCH  20  21
ATOM     21  C   UNL     1       1.797   4.892  21.051  0.00  0.00    +0.000 C 
BRANCH  21  22
ATOM     22  C   UNL     1       1.562   3.379  21.013  0.00  0.00    +0.000 C 
BRANCH  22  23
ATOM     23  C   UNL     1       1.074   2.908  19.652  0.00  0.00    +0.000 C 
BRANCH  23  24
ATOM     24  O   UNL     1       1.988   1.937  19.151  0.00  0.00    +0.000 OA
BRANCH  24  25
ATOM     25  C   UNL     1       2.398   2.241  17.822  0.00  0.00    +0.000 C 
BRANCH  25  26
ATOM     26  C   UNL     1       3.889   2.551  17.822  0.00  0.00    +0.000 C 
BRANCH  26  27
ATOM     27  O   UNL     1       4.127   3.653  16.955  0.00  0.00    +0.000 OA
BRANCH  27  28
ATOM     28  C   UNL     1       5.444   3.622  16.411  0.00  0.00    +0.000 C 
BRANCH  28  33
ATOM     29  C   UNL     1       8.274   8.380  18.218  0.00  0.00    +0.000 C 
ATOM     30  C   UNL     1       7.548   7.151  17.758  0.00  0.00    +0.000 A 
ATOM     31  C   UNL     1       7.748   5.920  18.390  0.00  0.00    +0.000 A 
ATOM     32  C   UNL     1       7.067   4.783  17.951  0.00  0.00    +0.000 A 
ATOM     33  C   UNL     1       6.170   4.855  16.876  0.00  0.00    +0.000 A 
ATOM     34  C   UNL     1       5.973   6.088  16.243  0.00  0.00    +0.000 A 
ATOM     35  C   UNL     1       6.656   7.227  16.682  0.00  0.00    +0.000 A 
ENDBRANCH  28  33
ENDBRANCH  27  28
ENDBRANCH  26  27
ENDBRANCH  25  26
ENDBRANCH  24  25
ENDBRANCH  23  24
ENDBRANCH  22  23
ENDBRANCH  21  22
ENDBRANCH  20  21
ENDBRANCH  19  20
ENDBRANCH   1  19
TORSDOF 19
ENDMDL
MODEL 5
REMARK VINA RESULT:      -6.0      2.375      9.195
REMARK  Name = 
REMARK  20 active torsions:
REMARK  status: ('A' for Active; 'I' for Inactive)
REMARK    1  A    between atoms: C_1  and  C_2
REMARK    2  A    between atoms: C_5  and  C_6
REMARK    3  A    between atoms: C_6  and  O_7
REMARK    4  A    between atoms: O_7  and  C_8
REMARK    5  A    between atoms: C_8  and  C_9
REMARK    6  A    between atoms: C_9  and  O_10
REMARK    7  A    between atoms: O_10  and  C_11
REMARK    8  A    between atoms: C_11  and  C_12
REMARK    9  A    between atoms: C_12  and  C_13
REMARK   10  A    between atoms: C_13  and  C_14
REMARK   11  A    between atoms: C_14  and  C_15
REMARK   12  A    between atoms: C_15  and  C_16
REMARK   13  A    between atoms: C_16  and  N_17
REMARK   14  A    between atoms: N_17  and  C_18
REMARK   15  A    between atoms: C_18  and  C_19
REMARK   16  A    between atoms: C_19  and  O_20
REMARK   17  A    between atoms: C_19  and  C_21
REMARK   18  A    between atoms: C_24  and  O_25
REMARK   19  A    between atoms: C_26  and  C_27
REMARK   20  A    between atoms: C_27  and  O_28
REMARK                            x       y       z     vdW  Elec       q    Type
REMARK                         _______ _______ _______ _____ _____    ______ ____
ROOT
ATOM      1  C   UNL     1       2.186   7.099  18.347  0.00  0.00    +0.000 C 
ENDROOT
BRANCH   1   2
ATOM      2  N   UNL     1       2.250   8.441  18.915  0.00  0.00    +0.000 NA
ATOM      3  H   UNL     1       2.012   9.123  18.195  0.00  0.00    +0.000 HD
BRANCH   2   4
ATOM      4  C   UNL     1       1.363   8.634  20.068  0.00  0.00    +0.000 C 
BRANCH   4   5
ATOM      5  C   UNL     1       0.971  10.127  20.241  0.00  0.00    +0.000 C 
BRANCH   5   6
ATOM      6  C   UNL     1      -0.234  10.661  19.479  0.00  0.00    +0.000 A 
ATOM      7  C   UNL     1      -0.990  11.691  20.067  0.00  0.00    +0.000 A 
ATOM      8  C   UNL     1      -2.146  12.180  19.458  0.00  0.00    +0.000 A 
ATOM      9  C   UNL     1      -2.569  11.635  18.250  0.00  0.00    +0.000 A 
ATOM     10  C   UNL     1      -1.845  10.614  17.627  0.00  0.00    +0.000 A 
ATOM     11  C   UNL     1      -0.666  10.152  18.244  0.00  0.00    +0.000 A 
BRANCH   9  12
ATOM     12  O   UNL     1      -3.712  12.090  17.651  0.00  0.00    +0.000 OA
ATOM     13  H   UNL     1      -3.459  12.663  16.907  0.00  0.00    +0.000 HD
ENDBRANCH   9  12
BRANCH  10  14
ATOM     14  C   UNL     1      -2.340   9.945  16.369  0.00  0.00    +0.000 C 
BRANCH  14  15
ATOM     15  O   UNL     1      -2.461  10.863  15.291  0.00  0.00    +0.000 OA
ATOM     16  H   UNL     1      -1.754  11.521  15.439  0.00  0.00    +0.000 HD
ENDBRANCH  14  15
ENDBRANCH  10  14
ENDBRANCH   5   6
BRANCH   5  17
ATOM     17  O   UNL     1       0.728  10.342  21.645  0.00  0.00    +0.000 OA
ATOM     18  H   UNL     1       0.737   9.452  22.043  0.00  0.00    +0.000 HD
ENDBRANCH   5  17
ENDBRANCH   4   5
ENDBRANCH   2   4
ENDBRANCH   1   2
BRANCH   1  19
ATOM     19  C   UNL     1       3.617   6.587  18.139  0.00  0.00    +0.000 C 
BRANCH  19  20
ATOM     20  C   UNL     1       4.149   5.866  19.383  0.00  0.00    +0.000 C 
BRANCH  20  21
ATOM     21  C   UNL     1       5.598   5.428  19.218  0.00  0.00    +0.000 C 
BRANCH  21  22
ATOM     22  C   UNL     1       6.267   6.225  18.094  0.00  0.00    +0.000 C 
BRANCH  22  23
ATOM     23  C   UNL     1       7.217   5.368  17.271  0.00  0.00    +0.000 C 
BRANCH  23  24
ATOM     24  O   UNL     1       7.173   5.810  15.918  0.00  0.00    +0.000 OA
BRANCH  24  25
ATOM     25  C   UNL     1       5.983   5.380  15.264  0.00  0.00    +0.000 C 
BRANCH  25  26
ATOM     26  C   UNL     1       5.684   3.944  15.675  0.00  0.00    +0.000 C 
BRANCH  26  27
ATOM     27  O   UNL     1       4.403   3.902  16.290  0.00  0.00    +0.000 OA
BRANCH  27  28
ATOM     28  C   UNL     1       4.043   2.576  16.670  0.00  0.00    +0.000 C 
BRANCH  28  33
ATOM     29  C   UNL     1       1.258   2.844  21.776  0.00  0.00    +0.000 C 
ATOM     30  C   UNL     1       1.969   2.777  20.458  0.00  0.00    +0.000 A 
ATOM     31  C   UNL     1       1.322   3.140  19.274  0.00  0.00    +0.000 A 
ATOM     32  C   UNL     1       1.995   3.073  18.053  0.00  0.00    +0.000 A 
ATOM     33  C   UNL     1       3.329   2.647  17.992  0.00  0.00    +0.000 A 
ATOM     34  C   UNL     1       3.975   2.281  19.180  0.00  0.00    +0.000 A 
ATOM     35  C   UNL     1       3.300   2.348  20.403  0.00  0.00    +0.000 A 
ENDBRANCH  28  33
ENDBRANCH  27  28
ENDBRANCH  26  27
ENDBRANCH  25  26
ENDBRANCH  24  25
ENDBRANCH  23  24
ENDBRANCH  22  23
ENDBRANCH  21  22
ENDBRANCH  20  21
ENDBRANCH  19  20
ENDBRANCH   1  19
TORSDOF 19
ENDMDL
MODEL 6
REMARK VINA RESULT:      -5.9      3.281      4.190
REMARK  Name = 
REMARK  20 active torsions:
REMARK  status: ('A' for Active; 'I' for Inactive)
REMARK    1  A    between atoms: C_1  and  C_2
REMARK    2  A    between atoms: C_5  and  C_6
REMARK    3  A    between atoms: C_6  and  O_7
REMARK    4  A    between atoms: O_7  and  C_8
REMARK    5  A    between atoms: C_8  and  C_9
REMARK    6  A    between atoms: C_9  and  O_10
REMARK    7  A    between atoms: O_10  and  C_11
REMARK    8  A    between atoms: C_11  and  C_12
REMARK    9  A    between atoms: C_12  and  C_13
REMARK   10  A    between atoms: C_13  and  C_14
REMARK   11  A    between atoms: C_14  and  C_15
REMARK   12  A    between atoms: C_15  and  C_16
REMARK   13  A    between atoms: C_16  and  N_17
REMARK   14  A    between atoms: N_17  and  C_18
REMARK   15  A    between atoms: C_18  and  C_19
REMARK   16  A    between atoms: C_19  and  O_20
REMARK   17  A    between atoms: C_19  and  C_21
REMARK   18  A    between atoms: C_24  and  O_25
REMARK   19  A    between atoms: C_26  and  C_27
REMARK   20  A    between atoms: C_27  and  O_28
REMARK                            x       y       z     vdW  Elec       q    Type
REMARK                         _______ _______ _______ _____ _____    ______ ____
ROOT
ATOM      1  C   UNL     1       1.216   2.519  19.678  0.00  0.00    +0.000 C 
ENDROOT
BRANCH   1   2
ATOM      2  N   UNL     1       1.985   1.552  18.902  0.00  0.00    +0.000 NA
ATOM      3  H   UNL     1       1.418   1.217  18.123  0.00  0.00    +0.000 HD
BRANCH   2   4
ATOM      4  C   UNL     1       3.247   2.087  18.380  0.00  0.00    +0.000 C 
BRANCH   4   5
ATOM      5  C   UNL     1       3.045   3.479  17.720  0.00  0.00    +0.000 C 
BRANCH   5   6
ATOM      6  C   UNL     1       4.270   4.249  17.246  0.00  0.00    +0.000 A 
ATOM      7  C   UNL     1       4.555   4.263  15.868  0.00  0.00    +0.000 A 
ATOM      8  C   UNL     1       5.697   4.891  15.371  0.00  0.00    +0.000 A 
ATOM      9  C   UNL     1       6.581   5.507  16.252  0.00  0.00    +0.000 A 
ATOM     10  C   UNL     1       6.335   5.521  17.628  0.00  0.00    +0.000 A 
ATOM     11  C   UNL     1       5.162   4.906  18.107  0.00  0.00    +0.000 A 
BRANCH   9  12
ATOM     12  O   UNL     1       7.717   6.107  15.781  0.00  0.00    +0.000 OA
ATOM     13  H   UNL     1       7.627   7.068  15.903  0.00  0.00    +0.000 HD
ENDBRANCH   9  12
BRANCH  10  14
ATOM     14  C   UNL     1       7.328   6.097  18.605  0.00  0.00    +0.000 C 
BRANCH  14  15
ATOM     15  O   UNL     1       8.016   5.083  19.325  0.00  0.00    +0.000 OA
ATOM     16  H   UNL     1       7.821   4.255  18.843  0.00  0.00    +0.000 HD
ENDBRANCH  14  15
ENDBRANCH  10  14
ENDBRANCH   5   6
BRANCH   5  17
ATOM     17  O   UNL     1       2.185   3.287  16.580  0.00  0.00    +0.000 OA
ATOM     18  H   UNL     1       2.451   2.429  16.202  0.00  0.00    +0.000 HD
ENDBRANCH   5  17
ENDBRANCH   4   5
ENDBRANCH   2   4
ENDBRANCH   1   2
BRANCH   1  19
ATOM     19  C   UNL     1       1.866   2.666  21.059  0.00  0.00    +0.000 C 
BRANCH  19  20
ATOM     20  C   UNL     1       2.110   4.136  21.418  0.00  0.00    +0.000 C 
BRANCH  20  21
ATOM     21  C   UNL     1       1.483   5.088  20.408  0.00  0.00    +0.000 C 
BRANCH  21  22
ATOM     22  C   UNL     1       2.434   6.253  20.119  0.00  0.00    +0.000 C 
BRANCH  22  23
ATOM     23  C   UNL     1       1.727   7.599  20.177  0.00  0.00    +0.000 C 
BRANCH  23  24
ATOM     24  O   UNL     1       1.410   7.888  21.535  0.00  0.00    +0.000 OA
BRANCH  24  25
ATOM     25  C   UNL     1       0.817   9.176  21.672  0.00  0.00    +0.000 C 
BRANCH  25  26
ATOM     26  C   UNL     1       0.240   9.601  20.329  0.00  0.00    +0.000 C 
BRANCH  26  27
ATOM     27  O   UNL     1       0.503  10.985  20.136  0.00  0.00    +0.000 OA
BRANCH  27  28
ATOM     28  C   UNL     1       1.181  11.227  18.906  0.00  0.00    +0.000 C 
BRANCH  28  33
ATOM     29  C   UNL     1       2.698  16.846  18.724  0.00  0.00    +0.000 C 
ATOM     30  C   UNL     1       2.313  15.398  18.767  0.00  0.00    +0.000 A 
ATOM     31  C   UNL     1       3.021  14.445  18.029  0.00  0.00    +0.000 A 
ATOM     32  C   UNL     1       2.651  13.099  18.076  0.00  0.00    +0.000 A 
ATOM     33  C   UNL     1       1.571  12.679  18.865  0.00  0.00    +0.000 A 
ATOM     34  C   UNL     1       0.862  13.637  19.601  0.00  0.00    +0.000 A 
ATOM     35  C   UNL     1       1.231  14.984  19.553  0.00  0.00    +0.000 A 
ENDBRANCH  28  33
ENDBRANCH  27  28
ENDBRANCH  26  27
ENDBRANCH  25  26
ENDBRANCH  24  25
ENDBRANCH  23  24
ENDBRANCH  22  23
ENDBRANCH  21  22
ENDBRANCH  20  21
ENDBRANCH  19  20
ENDBRANCH   1  19
TORSDOF 19
ENDMDL
MODEL 7
REMARK VINA RESULT:      -5.9      3.194     10.558
REMARK  Name = 
REMARK  20 active torsions:
REMARK  status: ('A' for Active; 'I' for Inactive)
REMARK    1  A    between atoms: C_1  and  C_2
REMARK    2  A    between atoms: C_5  and  C_6
REMARK    3  A    between atoms: C_6  and  O_7
REMARK    4  A    between atoms: O_7  and  C_8
REMARK    5  A    between atoms: C_8  and  C_9
REMARK    6  A    between atoms: C_9  and  O_10
REMARK    7  A    between atoms: O_10  and  C_11
REMARK    8  A    between atoms: C_11  and  C_12
REMARK    9  A    between atoms: C_12  and  C_13
REMARK   10  A    between atoms: C_13  and  C_14
REMARK   11  A    between atoms: C_14  and  C_15
REMARK   12  A    between atoms: C_15  and  C_16
REMARK   13  A    between atoms: C_16  and  N_17
REMARK   14  A    between atoms: N_17  and  C_18
REMARK   15  A    between atoms: C_18  and  C_19
REMARK   16  A    between atoms: C_19  and  O_20
REMARK   17  A    between atoms: C_19  and  C_21
REMARK   18  A    between atoms: C_24  and  O_25
REMARK   19  A    between atoms: C_26  and  C_27
REMARK   20  A    between atoms: C_27  and  O_28
REMARK                            x       y       z     vdW  Elec       q    Type
REMARK                         _______ _______ _______ _____ _____    ______ ____
ROOT
ATOM      1  C   UNL     1       1.410   9.333  18.595  0.00  0.00    +0.000 C 
ENDROOT
BRANCH   1   2
ATOM      2  N   UNL     1       1.082   9.777  19.946  0.00  0.00    +0.000 NA
ATOM      3  H   UNL     1       1.906   9.687  20.540  0.00  0.00    +0.000 HD
BRANCH   2   4
ATOM      4  C   UNL     1       0.596  11.159  20.008  0.00  0.00    +0.000 C 
BRANCH   4   5
ATOM      5  C   UNL     1       0.119  11.531  21.440  0.00  0.00    +0.000 C 
BRANCH   5   6
ATOM      6  C   UNL     1      -1.339  11.914  21.650  0.00  0.00    +0.000 A 
ATOM      7  C   UNL     1      -2.077  12.359  20.538  0.00  0.00    +0.000 A 
ATOM      8  C   UNL     1      -3.397  12.791  20.670  0.00  0.00    +0.000 A 
ATOM      9  C   UNL     1      -3.997  12.793  21.925  0.00  0.00    +0.000 A 
ATOM     10  C   UNL     1      -3.302  12.354  23.057  0.00  0.00    +0.000 A 
ATOM     11  C   UNL     1      -1.980  11.897  22.898  0.00  0.00    +0.000 A 
BRANCH   9  12
ATOM     12  O   UNL     1      -5.284  13.235  22.074  0.00  0.00    +0.000 OA
ATOM     13  H   UNL     1      -5.482  13.848  21.345  0.00  0.00    +0.000 HD
ENDBRANCH   9  12
BRANCH  10  14
ATOM     14  C   UNL     1      -3.902  12.442  24.438  0.00  0.00    +0.000 C 
BRANCH  14  15
ATOM     15  O   UNL     1      -4.285  13.770  24.769  0.00  0.00    +0.000 OA
ATOM     16  H   UNL     1      -5.149  13.900  24.332  0.00  0.00    +0.000 HD
ENDBRANCH  14  15
ENDBRANCH  10  14
ENDBRANCH   5   6
BRANCH   5  17
ATOM     17  O   UNL     1       0.398  10.400  22.287  0.00  0.00    +0.000 OA
ATOM     18  H   UNL     1       1.324  10.515  22.567  0.00  0.00    +0.000 HD
ENDBRANCH   5  17
ENDBRANCH   4   5
ENDBRANCH   2   4
ENDBRANCH   1   2
BRANCH   1  19
ATOM     19  C   UNL     1       2.142   7.989  18.686  0.00  0.00    +0.000 C 
BRANCH  19  20
ATOM     20  C   UNL     1       1.986   7.349  20.070  0.00  0.00    +0.000 C 
BRANCH  20  21
ATOM     21  C   UNL     1       2.684   5.998  20.162  0.00  0.00    +0.000 C 
BRANCH  21  22
ATOM     22  C   UNL     1       1.693   4.921  20.614  0.00  0.00    +0.000 C 
BRANCH  22  23
ATOM     23  C   UNL     1       1.201   4.071  19.452  0.00  0.00    +0.000 C 
BRANCH  23  24
ATOM     24  O   UNL     1       1.831   4.523  18.258  0.00  0.00    +0.000 OA
BRANCH  24  25
ATOM     25  C   UNL     1       2.177   3.437  17.405  0.00  0.00    +0.000 C 
BRANCH  25  26
ATOM     26  C   UNL     1       3.348   2.679  18.016  0.00  0.00    +0.000 C 
BRANCH  26  27
ATOM     27  O   UNL     1       4.549   3.382  17.725  0.00  0.00    +0.000 OA
BRANCH  27  28
ATOM     28  C   UNL     1       5.182   3.859  18.910  0.00  0.00    +0.000 C 
BRANCH  28  33
ATOM     29  C   UNL     1       8.186   8.655  17.538  0.00  0.00    +0.000 C 
ATOM     30  C   UNL     1       7.407   7.422  17.887  0.00  0.00    +0.000 A 
ATOM     31  C   UNL     1       6.160   7.173  17.306  0.00  0.00    +0.000 A 
ATOM     32  C   UNL     1       5.445   6.021  17.640  0.00  0.00    +0.000 A 
ATOM     33  C   UNL     1       5.963   5.095  18.556  0.00  0.00    +0.000 A 
ATOM     34  C   UNL     1       7.212   5.349  19.138  0.00  0.00    +0.000 A 
ATOM     35  C   UNL     1       7.928   6.503  18.804  0.00  0.00    +0.000 A 
ENDBRANCH  28  33
ENDBRANCH  27  28
ENDBRANCH  26  27
ENDBRANCH  25  26
ENDBRANCH  24  25
ENDBRANCH  23  24
ENDBRANCH  22  23
ENDBRANCH  21  22
ENDBRANCH  20  21
ENDBRANCH  19  20
ENDBRANCH   1  19
TORSDOF 19
ENDMDL
MODEL 8
REMARK VINA RESULT:      -5.9      2.236      9.391
REMARK  Name = 
REMARK  20 active torsions:
REMARK  status: ('A' for Active; 'I' for Inactive)
REMARK    1  A    between atoms: C_1  and  C_2
REMARK    2  A    between atoms: C_5  and  C_6
REMARK    3  A    between atoms: C_6  and  O_7
REMARK    4  A    between atoms: O_7  and  C_8
REMARK    5  A    between atoms: C_8  and  C_9
REMARK    6  A    between atoms: C_9  and  O_10
REMARK    7  A    between atoms: O_10  and  C_11
REMARK    8  A    between atoms: C_11  and  C_12
REMARK    9  A    between atoms: C_12  and  C_13
REMARK   10  A    between atoms: C_13  and  C_14
REMARK   11  A    between atoms: C_14  and  C_15
REMARK   12  A    between atoms: C_15  and  C_16
REMARK   13  A    between atoms: C_16  and  N_17
REMARK   14  A    between atoms: N_17  and  C_18
REMARK   15  A    between atoms: C_18  and  C_19
REMARK   16  A    between atoms: C_19  and  O_20
REMARK   17  A    between atoms: C_19  and  C_21
REMARK   18  A    between atoms: C_24  and  O_25
REMARK   19  A    between atoms: C_26  and  C_27
REMARK   20  A    between atoms: C_27  and  O_28
REMARK                            x       y       z     vdW  Elec       q    Type
REMARK                         _______ _______ _______ _____ _____    ______ ____
ROOT
ATOM      1  C   UNL     1       1.366   8.759  20.902  0.00  0.00    +0.000 C 
ENDROOT
BRANCH   1   2
ATOM      2  N   UNL     1       0.053   9.365  21.090  0.00  0.00    +0.000 NA
ATOM      3  H   UNL     1      -0.079   9.585  22.077  0.00  0.00    +0.000 HD
BRANCH   2   4
ATOM      4  C   UNL     1      -0.152  10.582  20.298  0.00  0.00    +0.000 C 
BRANCH   4   5
ATOM      5  C   UNL     1      -0.367  10.253  18.795  0.00  0.00    +0.000 C 
BRANCH   5   6
ATOM      6  C   UNL     1      -1.688  10.638  18.143  0.00  0.00    +0.000 A 
ATOM      7  C   UNL     1      -2.618  11.368  18.905  0.00  0.00    +0.000 A 
ATOM      8  C   UNL     1      -3.875  11.695  18.395  0.00  0.00    +0.000 A 
ATOM      9  C   UNL     1      -4.224  11.285  17.112  0.00  0.00    +0.000 A 
ATOM     10  C   UNL     1      -3.328  10.562  16.318  0.00  0.00    +0.000 A 
ATOM     11  C   UNL     1      -2.055  10.265  16.840  0.00  0.00    +0.000 A 
BRANCH   9  12
ATOM     12  O   UNL     1      -5.461  11.579  16.607  0.00  0.00    +0.000 OA
ATOM     13  H   UNL     1      -5.478  11.318  15.670  0.00  0.00    +0.000 HD
ENDBRANCH   9  12
BRANCH  10  14
ATOM     14  C   UNL     1      -3.724  10.025  14.965  0.00  0.00    +0.000 C 
BRANCH  14  15
ATOM     15  O   UNL     1      -2.668  10.132  14.020  0.00  0.00    +0.000 OA
ATOM     16  H   UNL     1      -2.560  11.091  13.870  0.00  0.00    +0.000 HD
ENDBRANCH  14  15
ENDBRANCH  10  14
ENDBRANCH   5   6
BRANCH   5  17
ATOM     17  O   UNL     1       0.687  10.908  18.062  0.00  0.00    +0.000 OA
ATOM     18  H   UNL     1       1.468  10.336  18.175  0.00  0.00    +0.000 HD
ENDBRANCH   5  17
ENDBRANCH   4   5
ENDBRANCH   2   4
ENDBRANCH   1   2
BRANCH   1  19
ATOM     19  C   UNL     1       1.183   7.253  20.678  0.00  0.00    +0.000 C 
BRANCH  19  20
ATOM     20  C   UNL     1       2.457   6.602  20.128  0.00  0.00    +0.000 C 
BRANCH  20  21
ATOM     21  C   UNL     1       2.500   6.616  18.605  0.00  0.00    +0.000 C 
BRANCH  21  22
ATOM     22  C   UNL     1       2.819   8.026  18.099  0.00  0.00    +0.000 C 
BRANCH  22  23
ATOM     23  C   UNL     1       3.946   8.027  17.077  0.00  0.00    +0.000 C 
BRANCH  23  24
ATOM     24  O   UNL     1       4.674   6.809  17.200  0.00  0.00    +0.000 OA
BRANCH  24  25
ATOM     25  C   UNL     1       5.097   6.321  15.931  0.00  0.00    +0.000 C 
BRANCH  25  26
ATOM     26  C   UNL     1       6.287   5.392  16.129  0.00  0.00    +0.000 C 
BRANCH  26  27
ATOM     27  O   UNL     1       5.928   4.382  17.063  0.00  0.00    +0.000 OA
BRANCH  27  28
ATOM     28  C   UNL     1       4.847   3.583  16.589  0.00  0.00    +0.000 C 
BRANCH  28  33
ATOM     29  C   UNL     1       1.140   2.713  20.993  0.00  0.00    +0.000 C 
ATOM     30  C   UNL     1       2.089   2.937  19.855  0.00  0.00    +0.000 A 
ATOM     31  C   UNL     1       1.629   2.984  18.536  0.00  0.00    +0.000 A 
ATOM     32  C   UNL     1       2.523   3.192  17.484  0.00  0.00    +0.000 A 
ATOM     33  C   UNL     1       3.893   3.362  17.730  0.00  0.00    +0.000 A 
ATOM     34  C   UNL     1       4.351   3.312  19.053  0.00  0.00    +0.000 A 
ATOM     35  C   UNL     1       3.456   3.102  20.106  0.00  0.00    +0.000 A 
ENDBRANCH  28  33
ENDBRANCH  27  28
ENDBRANCH  26  27
ENDBRANCH  25  26
ENDBRANCH  24  25
ENDBRANCH  23  24
ENDBRANCH  22  23
ENDBRANCH  21  22
ENDBRANCH  20  21
ENDBRANCH  19  20
ENDBRANCH   1  19
TORSDOF 19
ENDMDL
MODEL 9
REMARK VINA RESULT:      -5.9      2.690      3.339
REMARK  Name = 
REMARK  20 active torsions:
REMARK  status: ('A' for Active; 'I' for Inactive)
REMARK    1  A    between atoms: C_1  and  C_2
REMARK    2  A    between atoms: C_5  and  C_6
REMARK    3  A    between atoms: C_6  and  O_7
REMARK    4  A    between atoms: O_7  and  C_8
REMARK    5  A    between atoms: C_8  and  C_9
REMARK    6  A    between atoms: C_9  and  O_10
REMARK    7  A    between atoms: O_10  and  C_11
REMARK    8  A    between atoms: C_11  and  C_12
REMARK    9  A    between atoms: C_12  and  C_13
REMARK   10  A    between atoms: C_13  and  C_14
REMARK   11  A    between atoms: C_14  and  C_15
REMARK   12  A    between atoms: C_15  and  C_16
REMARK   13  A    between atoms: C_16  and  N_17
REMARK   14  A    between atoms: N_17  and  C_18
REMARK   15  A    between atoms: C_18  and  C_19
REMARK   16  A    between atoms: C_19  and  O_20
REMARK   17  A    between atoms: C_19  and  C_21
REMARK   18  A    between atoms: C_24  and  O_25
REMARK   19  A    between atoms: C_26  and  C_27
REMARK   20  A    between atoms: C_27  and  O_28
REMARK                            x       y       z     vdW  Elec       q    Type
REMARK                         _______ _______ _______ _____ _____    ______ ____
ROOT
ATOM      1  C   UNL     1       1.114   4.314  20.086  0.00  0.00    +0.000 C 
ENDROOT
BRANCH   1   2
ATOM      2  N   UNL     1       1.750   3.053  19.721  0.00  0.00    +0.000 NA
ATOM      3  H   UNL     1       1.815   2.990  18.706  0.00  0.00    +0.000 HD
BRANCH   2   4
ATOM      4  C   UNL     1       3.088   2.882  20.297  0.00  0.00    +0.000 C 
BRANCH   4   5
ATOM      5  C   UNL     1       4.121   2.452  19.220  0.00  0.00    +0.000 C 
BRANCH   5   6
ATOM      6  C   UNL     1       4.930   3.528  18.509  0.00  0.00    +0.000 A 
ATOM      7  C   UNL     1       4.740   3.699  17.126  0.00  0.00    +0.000 A 
ATOM      8  C   UNL     1       5.495   4.619  16.399  0.00  0.00    +0.000 A 
ATOM      9  C   UNL     1       6.465   5.377  17.047  0.00  0.00    +0.000 A 
ATOM     10  C   UNL     1       6.684   5.244  18.422  0.00  0.00    +0.000 A 
ATOM     11  C   UNL     1       5.892   4.330  19.143  0.00  0.00    +0.000 A 
BRANCH   9  12
ATOM     12  O   UNL     1       7.229   6.267  16.343  0.00  0.00    +0.000 OA
ATOM     13  H   UNL     1       8.163   6.108  16.563  0.00  0.00    +0.000 HD
ENDBRANCH   9  12
BRANCH  10  14
ATOM     14  C   UNL     1       7.795   5.985  19.123  0.00  0.00    +0.000 C 
BRANCH  14  15
ATOM     15  O   UNL     1       8.033   5.476  20.428  0.00  0.00    +0.000 OA
ATOM     16  H   UNL     1       8.533   4.647  20.288  0.00  0.00    +0.000 HD
ENDBRANCH  14  15
ENDBRANCH  10  14
ENDBRANCH   5   6
BRANCH   5  17
ATOM     17  O   UNL     1       5.054   1.559  19.859  0.00  0.00    +0.000 OA
ATOM     18  H   UNL     1       5.690   1.315  19.162  0.00  0.00    +0.000 HD
ENDBRANCH   5  17
ENDBRANCH   4   5
ENDBRANCH   2   4
ENDBRANCH   1   2
BRANCH   1  19
ATOM     19  C   UNL     1       2.207   5.359  20.339  0.00  0.00    +0.000 C 
BRANCH  19  20
ATOM     20  C   UNL     1       2.625   6.069  19.046  0.00  0.00    +0.000 C 
BRANCH  20  21
ATOM     21  C   UNL     1       1.777   7.302  18.767  0.00  0.00    +0.000 C 
BRANCH  21  22
ATOM     22  C   UNL     1       2.624   8.382  18.086  0.00  0.00    +0.000 C 
BRANCH  22  23
ATOM     23  C   UNL     1       1.804   9.614  17.731  0.00  0.00    +0.000 C 
BRANCH  23  24
ATOM     24  O   UNL     1       0.625   9.623  18.530  0.00  0.00    +0.000 OA
BRANCH  24  25
ATOM     25  C   UNL     1       0.824  10.332  19.748  0.00  0.00    +0.000 C 
BRANCH  25  26
ATOM     26  C   UNL     1      -0.258   9.926  20.740  0.00  0.00    +0.000 C 
BRANCH  26  27
ATOM     27  O   UNL     1      -0.894  11.099  21.229  0.00  0.00    +0.000 OA
BRANCH  27  28
ATOM     28  C   UNL     1      -0.705  11.257  22.633  0.00  0.00    +0.000 C 
BRANCH  28  33
ATOM     29  C   UNL     1      -4.194  15.541  24.470  0.00  0.00    +0.000 C 
ATOM     30  C   UNL     1      -3.301  14.433  23.997  0.00  0.00    +0.000 A 
ATOM     31  C   UNL     1      -3.798  13.139  23.815  0.00  0.00    +0.000 A 
ATOM     32  C   UNL     1      -2.955  12.116  23.375  0.00  0.00    +0.000 A 
ATOM     33  C   UNL     1      -1.603  12.368  23.104  0.00  0.00    +0.000 A 
ATOM     34  C   UNL     1      -1.108  13.664  23.290  0.00  0.00    +0.000 A 
ATOM     35  C   UNL     1      -1.951  14.688  23.731  0.00  0.00    +0.000 A 
ENDBRANCH  28  33
ENDBRANCH  27  28
ENDBRANCH  26  27
ENDBRANCH  25  26
ENDBRANCH  24  25
ENDBRANCH  23  24
ENDBRANCH  22  23
ENDBRANCH  21  22
ENDBRANCH  20  21
ENDBRANCH  19  20
ENDBRANCH   1  19
TORSDOF 19
ENDMDL
