MODEL 1
REMARK VINA RESULT:      -8.4      0.000      0.000
REMARK  Name = 
REMARK  6 active torsions:
REMARK  status: ('A' for Active; 'I' for Inactive)
REMARK    1  A    between atoms: C_1  and  C_2
REMARK    2  A    between atoms: C_7  and  N_8
REMARK    3  A    between atoms: C_9  and  C_10
REMARK    4  A    between atoms: C_10  and  N_11
REMARK    5  A    between atoms: C_13  and  C_14
REMARK    6  A    between atoms: C_27  and  C_28
REMARK                            x       y       z     vdW  Elec       q    Type
REMARK                         _______ _______ _______ _____ _____    ______ ____
ROOT
ATOM      1  N   UNL     1       3.473   4.380  18.344  0.00  0.00    +0.000 N 
ATOM      2  C   UNL     1       3.810   5.598  18.862  0.00  0.00    +0.000 A 
ATOM      3  N   UNL     1       4.987   5.798  19.368  0.00  0.00    +0.000 NA
ATOM      4  C   UNL     1       5.984   5.509  18.418  0.00  0.00    +0.000 A 
ATOM      5  C   UNL     1       7.119   6.313  18.550  0.00  0.00    +0.000 A 
ATOM      6  C   UNL     1       7.815   6.694  17.422  0.00  0.00    +0.000 A 
ATOM      7  C   UNL     1       7.412   6.202  16.186  0.00  0.00    +0.000 A 
ATOM      8  C   UNL     1       6.357   5.251  16.046  0.00  0.00    +0.000 A 
ATOM      9  C   UNL     1       6.038   4.881  14.621  0.00  0.00    +0.000 C 
ATOM     10  C   UNL     1       5.646   4.855  17.209  0.00  0.00    +0.000 A 
ATOM     11  C   UNL     1       4.413   3.939  17.374  0.00  0.00    +0.000 A 
ATOM     12  O   UNL     1       4.292   2.914  16.700  0.00  0.00    +0.000 OA
ENDROOT
BRANCH   1  19
ATOM     13  C   UNL     1       0.578   3.570  18.039  0.00  0.00    +0.000 C 
ATOM     14  C   UNL     1       1.412   3.210  19.230  0.00  0.00    +0.000 A 
ATOM     15  C   UNL     1       0.721   2.675  20.353  0.00  0.00    +0.000 A 
ATOM     16  C   UNL     1       1.348   2.466  21.572  0.00  0.00    +0.000 A 
ATOM     17  C   UNL     1       2.686   2.804  21.703  0.00  0.00    +0.000 A 
ATOM     18  C   UNL     1       3.390   3.306  20.594  0.00  0.00    +0.000 A 
ATOM     19  C   UNL     1       2.794   3.512  19.320  0.00  0.00    +0.000 A 
ENDBRANCH   1  19
BRANCH   2  20
ATOM     20  C   UNL     1       2.982   6.757  18.362  0.00  0.00    +0.000 C 
BRANCH  20  21
ATOM     21  N   UNL     1       2.153   7.320  19.426  0.00  0.00    +0.000 N 
ATOM     22  C   UNL     1       1.676   8.596  19.550  0.00  0.00    +0.000 A 
ATOM     23  C   UNL     1       1.045   8.616  20.779  0.00  0.00    +0.000 A 
ATOM     24  N   UNL     1       1.118   7.356  21.322  0.00  0.00    +0.000 NA
ATOM     25  N   UNL     1       1.783   6.569  20.482  0.00  0.00    +0.000 NA
BRANCH  23  26
ATOM     26  C   UNL     1       0.406   9.748  21.425  0.00  0.00    +0.000 A 
ATOM     27  C   UNL     1      -0.420   9.609  22.548  0.00  0.00    +0.000 A 
ATOM     28  C   UNL     1      -1.043  10.729  23.101  0.00  0.00    +0.000 A 
ATOM     29  C   UNL     1      -0.823  11.964  22.524  0.00  0.00    +0.000 A 
ATOM     30  N   UNL     1      -0.031  12.147  21.445  0.00  0.00    +0.000 NA
ATOM     31  C   UNL     1       0.567  11.036  20.928  0.00  0.00    +0.000 A 
ENDBRANCH  23  26
ENDBRANCH  20  21
ENDBRANCH   2  20
TORSDOF 4
ENDMDL
MODEL 2
REMARK VINA RESULT:      -8.3      1.120      1.759
REMARK  Name = 
REMARK  6 active torsions:
REMARK  status: ('A' for Active; 'I' for Inactive)
REMARK    1  A    between atoms: C_1  and  C_2
REMARK    2  A    between atoms: C_7  and  N_8
REMARK    3  A    between atoms: C_9  and  C_10
REMARK    4  A    between atoms: C_10  and  N_11
REMARK    5  A    between atoms: C_13  and  C_14
REMARK    6  A    between atoms: C_27  and  C_28
REMARK                            x       y       z     vdW  Elec       q    Type
REMARK                         _______ _______ _______ _____ _____    ______ ____
ROOT
ATOM      1  N   UNL     1       3.292   4.556  18.227  0.00  0.00    +0.000 N 
ATOM      2  C   UNL     1       3.639   5.878  18.277  0.00  0.00    +0.000 A 
ATOM      3  N   UNL     1       4.829   6.234  18.643  0.00  0.00    +0.000 NA
ATOM      4  C   UNL     1       5.798   5.626  17.823  0.00  0.00    +0.000 A 
ATOM      5  C   UNL     1       6.932   6.419  17.631  0.00  0.00    +0.000 A 
ATOM      6  C   UNL     1       7.591   6.377  16.420  0.00  0.00    +0.000 A 
ATOM      7  C   UNL     1       7.151   5.487  15.446  0.00  0.00    +0.000 A 
ATOM      8  C   UNL     1       6.098   4.553  15.680  0.00  0.00    +0.000 A 
ATOM      9  C   UNL     1       5.736   3.711  14.485  0.00  0.00    +0.000 C 
ATOM     10  C   UNL     1       5.425   4.593  16.930  0.00  0.00    +0.000 A 
ATOM     11  C   UNL     1       4.203   3.799  17.444  0.00  0.00    +0.000 A 
ATOM     12  O   UNL     1       4.067   2.604  17.174  0.00  0.00    +0.000 OA
ENDROOT
BRANCH   1  19
ATOM     13  C   UNL     1       4.800   3.009  20.339  0.00  0.00    +0.000 C 
ATOM     14  C   UNL     1       3.329   3.281  20.411  0.00  0.00    +0.000 A 
ATOM     15  C   UNL     1       2.598   2.564  21.399  0.00  0.00    +0.000 A 
ATOM     16  C   UNL     1       1.213   2.592  21.454  0.00  0.00    +0.000 A 
ATOM     17  C   UNL     1       0.520   3.330  20.507  0.00  0.00    +0.000 A 
ATOM     18  C   UNL     1       1.230   4.068  19.543  0.00  0.00    +0.000 A 
ATOM     19  C   UNL     1       2.649   4.088  19.466  0.00  0.00    +0.000 A 
ENDBRANCH   1  19
BRANCH   2  20
ATOM     20  C   UNL     1       2.789   6.793  17.429  0.00  0.00    +0.000 C 
BRANCH  20  21
ATOM     21  N   UNL     1       2.241   7.895  18.218  0.00  0.00    +0.000 N 
ATOM     22  C   UNL     1       1.764   7.872  19.500  0.00  0.00    +0.000 A 
ATOM     23  C   UNL     1       1.275   9.146  19.716  0.00  0.00    +0.000 A 
ATOM     24  N   UNL     1       1.516   9.897  18.590  0.00  0.00    +0.000 NA
ATOM     25  N   UNL     1       2.119   9.129  17.688  0.00  0.00    +0.000 NA
BRANCH  23  26
ATOM     26  C   UNL     1       0.612   9.647  20.905  0.00  0.00    +0.000 A 
ATOM     27  C   UNL     1       0.650   8.973  22.132  0.00  0.00    +0.000 A 
ATOM     28  C   UNL     1      -0.043   9.482  23.232  0.00  0.00    +0.000 A 
ATOM     29  C   UNL     1      -0.753  10.656  23.083  0.00  0.00    +0.000 A 
ATOM     30  N   UNL     1      -0.814  11.344  21.922  0.00  0.00    +0.000 NA
ATOM     31  C   UNL     1      -0.125  10.826  20.866  0.00  0.00    +0.000 A 
ENDBRANCH  23  26
ENDBRANCH  20  21
ENDBRANCH   2  20
TORSDOF 4
ENDMDL
MODEL 3
REMARK VINA RESULT:      -8.1      0.927      1.137
REMARK  Name = 
REMARK  6 active torsions:
REMARK  status: ('A' for Active; 'I' for Inactive)
REMARK    1  A    between atoms: C_1  and  C_2
REMARK    2  A    between atoms: C_7  and  N_8
REMARK    3  A    between atoms: C_9  and  C_10
REMARK    4  A    between atoms: C_10  and  N_11
REMARK    5  A    between atoms: C_13  and  C_14
REMARK    6  A    between atoms: C_27  and  C_28
REMARK                            x       y       z     vdW  Elec       q    Type
REMARK                         _______ _______ _______ _____ _____    ______ ____
ROOT
ATOM      1  N   UNL     1       3.452   4.180  18.145  0.00  0.00    +0.000 N 
ATOM      2  C   UNL     1       3.588   5.520  18.379  0.00  0.00    +0.000 A 
ATOM      3  N   UNL     1       4.657   5.986  18.942  0.00  0.00    +0.000 NA
ATOM      4  C   UNL     1       5.799   5.620  18.207  0.00  0.00    +0.000 A 
ATOM      5  C   UNL     1       6.816   6.576  18.257  0.00  0.00    +0.000 A 
ATOM      6  C   UNL     1       7.617   6.773  17.151  0.00  0.00    +0.000 A 
ATOM      7  C   UNL     1       7.439   5.957  16.039  0.00  0.00    +0.000 A 
ATOM      8  C   UNL     1       6.517   4.868  16.027  0.00  0.00    +0.000 A 
ATOM      9  C   UNL     1       6.435   4.137  14.712  0.00  0.00    +0.000 C 
ATOM     10  C   UNL     1       5.698   4.663  17.168  0.00  0.00    +0.000 A 
ATOM     11  C   UNL     1       4.556   3.655  17.422  0.00  0.00    +0.000 A 
ATOM     12  O   UNL     1       4.634   2.495  17.013  0.00  0.00    +0.000 OA
ENDROOT
BRANCH   1  19
ATOM     13  C   UNL     1       0.519   3.479  17.952  0.00  0.00    +0.000 C 
ATOM     14  C   UNL     1       1.344   3.238  19.179  0.00  0.00    +0.000 A 
ATOM     15  C   UNL     1       0.636   2.888  20.363  0.00  0.00    +0.000 A 
ATOM     16  C   UNL     1       1.262   2.810  21.598  0.00  0.00    +0.000 A 
ATOM     17  C   UNL     1       2.615   3.097  21.683  0.00  0.00    +0.000 A 
ATOM     18  C   UNL     1       3.334   3.415  20.516  0.00  0.00    +0.000 A 
ATOM     19  C   UNL     1       2.740   3.481  19.227  0.00  0.00    +0.000 A 
ENDBRANCH   1  19
BRANCH   2  20
ATOM     20  C   UNL     1       2.721   6.409  17.521  0.00  0.00    +0.000 C 
BRANCH  20  21
ATOM     21  N   UNL     1       2.246   7.573  18.268  0.00  0.00    +0.000 N 
ATOM     22  C   UNL     1       1.726   7.622  19.532  0.00  0.00    +0.000 A 
ATOM     23  C   UNL     1       1.345   8.938  19.705  0.00  0.00    +0.000 A 
ATOM     24  N   UNL     1       1.689   9.639  18.573  0.00  0.00    +0.000 NA
ATOM     25  N   UNL     1       2.251   8.800  17.708  0.00  0.00    +0.000 NA
BRANCH  23  26
ATOM     26  C   UNL     1       0.690   9.524  20.860  0.00  0.00    +0.000 A 
ATOM     27  C   UNL     1       0.096   8.749  21.864  0.00  0.00    +0.000 A 
ATOM     28  C   UNL     1      -0.558   9.369  22.931  0.00  0.00    +0.000 A 
ATOM     29  C   UNL     1      -0.599  10.748  22.973  0.00  0.00    +0.000 A 
ATOM     30  N   UNL     1      -0.036  11.536  22.031  0.00  0.00    +0.000 NA
ATOM     31  C   UNL     1       0.599  10.904  21.003  0.00  0.00    +0.000 A 
ENDBRANCH  23  26
ENDBRANCH  20  21
ENDBRANCH   2  20
TORSDOF 4
ENDMDL
MODEL 4
REMARK VINA RESULT:      -8.1      1.710      5.198
REMARK  Name = 
REMARK  6 active torsions:
REMARK  status: ('A' for Active; 'I' for Inactive)
REMARK    1  A    between atoms: C_1  and  C_2
REMARK    2  A    between atoms: C_7  and  N_8
REMARK    3  A    between atoms: C_9  and  C_10
REMARK    4  A    between atoms: C_10  and  N_11
REMARK    5  A    between atoms: C_13  and  C_14
REMARK    6  A    between atoms: C_27  and  C_28
REMARK                            x       y       z     vdW  Elec       q    Type
REMARK                         _______ _______ _______ _____ _____    ______ ____
ROOT
ATOM      1  N   UNL     1       4.815   4.313  18.310  0.00  0.00    +0.000 N 
ATOM      2  C   UNL     1       3.786   5.209  18.215  0.00  0.00    +0.000 A 
ATOM      3  N   UNL     1       2.633   4.842  17.752  0.00  0.00    +0.000 NA
ATOM      4  C   UNL     1       2.122   3.768  18.503  0.00  0.00    +0.000 A 
ATOM      5  C   UNL     1       0.728   3.775  18.595  0.00  0.00    +0.000 A 
ATOM      6  C   UNL     1       0.123   3.330  19.752  0.00  0.00    +0.000 A 
ATOM      7  C   UNL     1       0.917   2.811  20.769  0.00  0.00    +0.000 A 
ATOM      8  C   UNL     1       2.327   2.644  20.630  0.00  0.00    +0.000 A 
ATOM      9  C   UNL     1       3.015   2.114  21.862  0.00  0.00    +0.000 C 
ATOM     10  C   UNL     1       2.948   3.096  19.437  0.00  0.00    +0.000 A 
ATOM     11  C   UNL     1       4.437   3.149  19.031  0.00  0.00    +0.000 A 
ATOM     12  O   UNL     1       5.205   2.231  19.327  0.00  0.00    +0.000 OA
ENDROOT
BRANCH   1  19
ATOM     13  C   UNL     1       7.458   5.777  18.299  0.00  0.00    +0.000 C 
ATOM     14  C   UNL     1       6.889   5.095  17.093  0.00  0.00    +0.000 A 
ATOM     15  C   UNL     1       7.524   5.370  15.849  0.00  0.00    +0.000 A 
ATOM     16  C   UNL     1       6.992   4.943  14.641  0.00  0.00    +0.000 A 
ATOM     17  C   UNL     1       5.797   4.241  14.647  0.00  0.00    +0.000 A 
ATOM     18  C   UNL     1       5.174   3.936  15.871  0.00  0.00    +0.000 A 
ATOM     19  C   UNL     1       5.697   4.330  17.132  0.00  0.00    +0.000 A 
ENDBRANCH   1  19
BRANCH   2  20
ATOM     20  C   UNL     1       3.906   6.416  19.114  0.00  0.00    +0.000 C 
BRANCH  20  21
ATOM     21  N   UNL     1       3.022   7.496  18.679  0.00  0.00    +0.000 N 
ATOM     22  C   UNL     1       1.985   8.075  19.357  0.00  0.00    +0.000 A 
ATOM     23  C   UNL     1       1.426   8.960  18.456  0.00  0.00    +0.000 A 
ATOM     24  N   UNL     1       2.167   8.922  17.298  0.00  0.00    +0.000 NA
ATOM     25  N   UNL     1       3.146   8.036  17.450  0.00  0.00    +0.000 NA
BRANCH  23  26
ATOM     26  C   UNL     1       0.260   9.801  18.651  0.00  0.00    +0.000 A 
ATOM     27  C   UNL     1      -0.777   9.884  17.714  0.00  0.00    +0.000 A 
ATOM     28  C   UNL     1      -1.854  10.745  17.936  0.00  0.00    +0.000 A 
ATOM     29  C   UNL     1      -1.874  11.498  19.093  0.00  0.00    +0.000 A 
ATOM     30  N   UNL     1      -0.899  11.447  20.028  0.00  0.00    +0.000 NA
ATOM     31  C   UNL     1       0.138  10.596  19.786  0.00  0.00    +0.000 A 
ENDBRANCH  23  26
ENDBRANCH  20  21
ENDBRANCH   2  20
TORSDOF 4
ENDMDL
MODEL 5
REMARK VINA RESULT:      -7.9      1.186      1.828
REMARK  Name = 
REMARK  6 active torsions:
REMARK  status: ('A' for Active; 'I' for Inactive)
REMARK    1  A    between atoms: C_1  and  C_2
REMARK    2  A    between atoms: C_7  and  N_8
REMARK    3  A    between atoms: C_9  and  C_10
REMARK    4  A    between atoms: C_10  and  N_11
REMARK    5  A    between atoms: C_13  and  C_14
REMARK    6  A    between atoms: C_27  and  C_28
REMARK                            x       y       z     vdW  Elec       q    Type
REMARK                         _______ _______ _______ _____ _____    ______ ____
ROOT
ATOM      1  N   UNL     1       3.293   4.633  18.012  0.00  0.00    +0.000 N 
ATOM      2  C   UNL     1       3.978   5.806  18.162  0.00  0.00    +0.000 A 
ATOM      3  N   UNL     1       5.252   5.801  18.397  0.00  0.00    +0.000 NA
ATOM      4  C   UNL     1       5.935   5.099  17.388  0.00  0.00    +0.000 A 
ATOM      5  C   UNL     1       7.211   5.607  17.131  0.00  0.00    +0.000 A 
ATOM      6  C   UNL     1       7.704   5.580  15.843  0.00  0.00    +0.000 A 
ATOM      7  C   UNL     1       6.946   4.975  14.846  0.00  0.00    +0.000 A 
ATOM      8  C   UNL     1       5.716   4.306  15.117  0.00  0.00    +0.000 A 
ATOM      9  C   UNL     1       5.022   3.760  13.896  0.00  0.00    +0.000 C 
ATOM     10  C   UNL     1       5.213   4.329  16.444  0.00  0.00    +0.000 A 
ATOM     11  C   UNL     1       3.886   3.796  17.030  0.00  0.00    +0.000 A 
ATOM     12  O   UNL     1       3.414   2.723  16.649  0.00  0.00    +0.000 OA
ENDROOT
BRANCH   1  19
ATOM     13  C   UNL     1       4.736   2.771  19.905  0.00  0.00    +0.000 C 
ATOM     14  C   UNL     1       3.320   3.216  20.107  0.00  0.00    +0.000 A 
ATOM     15  C   UNL     1       2.575   2.528  21.106  0.00  0.00    +0.000 A 
ATOM     16  C   UNL     1       1.212   2.723  21.270  0.00  0.00    +0.000 A 
ATOM     17  C   UNL     1       0.554   3.603  20.426  0.00  0.00    +0.000 A 
ATOM     18  C   UNL     1       1.283   4.312  19.454  0.00  0.00    +0.000 A 
ATOM     19  C   UNL     1       2.684   4.163  19.268  0.00  0.00    +0.000 A 
ENDBRANCH   1  19
BRANCH   2  20
ATOM     20  C   UNL     1       3.314   7.015  17.549  0.00  0.00    +0.000 C 
BRANCH  20  21
ATOM     21  N   UNL     1       2.479   7.718  18.522  0.00  0.00    +0.000 N 
ATOM     22  C   UNL     1       1.676   8.808  18.328  0.00  0.00    +0.000 A 
ATOM     23  C   UNL     1       1.203   9.123  19.587  0.00  0.00    +0.000 A 
ATOM     24  N   UNL     1       1.690   8.195  20.476  0.00  0.00    +0.000 NA
ATOM     25  N   UNL     1       2.456   7.334  19.814  0.00  0.00    +0.000 NA
BRANCH  23  26
ATOM     26  C   UNL     1       0.343  10.233  19.954  0.00  0.00    +0.000 A 
ATOM     27  C   UNL     1      -0.836  10.535  19.262  0.00  0.00    +0.000 A 
ATOM     28  C   UNL     1      -1.603  11.642  19.634  0.00  0.00    +0.000 A 
ATOM     29  C   UNL     1      -1.176  12.418  20.693  0.00  0.00    +0.000 A 
ATOM     30  N   UNL     1      -0.049  12.162  21.394  0.00  0.00    +0.000 NA
ATOM     31  C   UNL     1       0.677  11.073  21.010  0.00  0.00    +0.000 A 
ENDBRANCH  23  26
ENDBRANCH  20  21
ENDBRANCH   2  20
TORSDOF 4
ENDMDL
MODEL 6
REMARK VINA RESULT:      -7.4      1.936      5.092
REMARK  Name = 
REMARK  6 active torsions:
REMARK  status: ('A' for Active; 'I' for Inactive)
REMARK    1  A    between atoms: C_1  and  C_2
REMARK    2  A    between atoms: C_7  and  N_8
REMARK    3  A    between atoms: C_9  and  C_10
REMARK    4  A    between atoms: C_10  and  N_11
REMARK    5  A    between atoms: C_13  and  C_14
REMARK    6  A    between atoms: C_27  and  C_28
REMARK                            x       y       z     vdW  Elec       q    Type
REMARK                         _______ _______ _______ _____ _____    ______ ____
ROOT
ATOM      1  N   UNL     1       4.537   5.354  18.682  0.00  0.00    +0.000 N 
ATOM      2  C   UNL     1       3.279   5.874  18.555  0.00  0.00    +0.000 A 
ATOM      3  N   UNL     1       2.370   5.244  17.880  0.00  0.00    +0.000 NA
ATOM      4  C   UNL     1       2.186   3.948  18.396  0.00  0.00    +0.000 A 
ATOM      5  C   UNL     1       0.871   3.490  18.279  0.00  0.00    +0.000 A 
ATOM      6  C   UNL     1       0.347   2.677  19.262  0.00  0.00    +0.000 A 
ATOM      7  C   UNL     1       1.169   2.272  20.308  0.00  0.00    +0.000 A 
ATOM      8  C   UNL     1       2.558   2.593  20.361  0.00  0.00    +0.000 A 
ATOM      9  C   UNL     1       3.263   2.105  21.599  0.00  0.00    +0.000 C 
ATOM     10  C   UNL     1       3.098   3.424  19.344  0.00  0.00    +0.000 A 
ATOM     11  C   UNL     1       4.512   4.023  19.176  0.00  0.00    +0.000 A 
ATOM     12  O   UNL     1       5.515   3.364  19.458  0.00  0.00    +0.000 OA
ENDROOT
BRANCH   1  19
ATOM     13  C   UNL     1       4.957   3.945  16.043  0.00  0.00    +0.000 C 
ATOM     14  C   UNL     1       5.739   5.150  16.466  0.00  0.00    +0.000 A 
ATOM     15  C   UNL     1       6.880   5.475  15.680  0.00  0.00    +0.000 A 
ATOM     16  C   UNL     1       7.782   6.456  16.065  0.00  0.00    +0.000 A 
ATOM     17  C   UNL     1       7.572   7.129  17.258  0.00  0.00    +0.000 A 
ATOM     18  C   UNL     1       6.432   6.839  18.029  0.00  0.00    +0.000 A 
ATOM     19  C   UNL     1       5.469   5.861  17.661  0.00  0.00    +0.000 A 
ENDBRANCH   1  19
BRANCH   2  20
ATOM     20  C   UNL     1       2.893   6.877  19.614  0.00  0.00    +0.000 C 
BRANCH  20  21
ATOM     21  N   UNL     1       2.183   8.018  19.037  0.00  0.00    +0.000 N 
ATOM     22  C   UNL     1       1.050   8.636  19.490  0.00  0.00    +0.000 A 
ATOM     23  C   UNL     1       0.753   9.577  18.523  0.00  0.00    +0.000 A 
ATOM     24  N   UNL     1       1.732   9.529  17.559  0.00  0.00    +0.000 NA
ATOM     25  N   UNL     1       2.607   8.584  17.890  0.00  0.00    +0.000 NA
BRANCH  23  26
ATOM     26  C   UNL     1      -0.384  10.478  18.488  0.00  0.00    +0.000 A 
ATOM     27  C   UNL     1      -1.533  10.214  17.732  0.00  0.00    +0.000 A 
ATOM     28  C   UNL     1      -2.579  11.139  17.702  0.00  0.00    +0.000 A 
ATOM     29  C   UNL     1      -2.455  12.304  18.433  0.00  0.00    +0.000 A 
ATOM     30  N   UNL     1      -1.369  12.599  19.180  0.00  0.00    +0.000 NA
ATOM     31  C   UNL     1      -0.365  11.676  19.193  0.00  0.00    +0.000 A 
ENDBRANCH  23  26
ENDBRANCH  20  21
ENDBRANCH   2  20
TORSDOF 4
ENDMDL
MODEL 7
REMARK VINA RESULT:      -7.3      1.861      5.119
REMARK  Name = 
REMARK  6 active torsions:
REMARK  status: ('A' for Active; 'I' for Inactive)
REMARK    1  A    between atoms: C_1  and  C_2
REMARK    2  A    between atoms: C_7  and  N_8
REMARK    3  A    between atoms: C_9  and  C_10
REMARK    4  A    between atoms: C_10  and  N_11
REMARK    5  A    between atoms: C_13  and  C_14
REMARK    6  A    between atoms: C_27  and  C_28
REMARK                            x       y       z     vdW  Elec       q    Type
REMARK                         _______ _______ _______ _____ _____    ______ ____
ROOT
ATOM      1  N   UNL     1       4.857   4.296  18.116  0.00  0.00    +0.000 N 
ATOM      2  C   UNL     1       3.886   5.258  18.088  0.00  0.00    +0.000 A 
ATOM      3  N   UNL     1       2.684   4.972  17.697  0.00  0.00    +0.000 NA
ATOM      4  C   UNL     1       2.151   3.928  18.475  0.00  0.00    +0.000 A 
ATOM      5  C   UNL     1       0.769   4.027  18.655  0.00  0.00    +0.000 A 
ATOM      6  C   UNL     1       0.209   3.614  19.846  0.00  0.00    +0.000 A 
ATOM      7  C   UNL     1       1.029   3.038  20.810  0.00  0.00    +0.000 A 
ATOM      8  C   UNL     1       2.413   2.778  20.583  0.00  0.00    +0.000 A 
ATOM      9  C   UNL     1       3.139   2.196  21.768  0.00  0.00    +0.000 C 
ATOM     10  C   UNL     1       2.987   3.197  19.354  0.00  0.00    +0.000 A 
ATOM     11  C   UNL     1       4.448   3.154  18.856  0.00  0.00    +0.000 A 
ATOM     12  O   UNL     1       5.171   2.186  19.101  0.00  0.00    +0.000 OA
ENDROOT
BRANCH   1  19
ATOM     13  C   UNL     1       7.642   5.458  17.984  0.00  0.00    +0.000 C 
ATOM     14  C   UNL     1       6.930   4.892  16.795  0.00  0.00    +0.000 A 
ATOM     15  C   UNL     1       7.515   5.145  15.523  0.00  0.00    +0.000 A 
ATOM     16  C   UNL     1       6.867   4.829  14.339  0.00  0.00    +0.000 A 
ATOM     17  C   UNL     1       5.603   4.263  14.398  0.00  0.00    +0.000 A 
ATOM     18  C   UNL     1       5.024   3.979  15.648  0.00  0.00    +0.000 A 
ATOM     19  C   UNL     1       5.663   4.263  16.885  0.00  0.00    +0.000 A 
ENDBRANCH   1  19
BRANCH   2  20
ATOM     20  C   UNL     1       4.141   6.448  18.981  0.00  0.00    +0.000 C 
BRANCH  20  21
ATOM     21  N   UNL     1       2.928   7.240  19.175  0.00  0.00    +0.000 N 
ATOM     22  C   UNL     1       2.456   8.278  18.419  0.00  0.00    +0.000 A 
ATOM     23  C   UNL     1       1.342   8.730  19.099  0.00  0.00    +0.000 A 
ATOM     24  N   UNL     1       1.153   7.927  20.199  0.00  0.00    +0.000 NA
ATOM     25  N   UNL     1       2.117   7.013  20.228  0.00  0.00    +0.000 NA
BRANCH  23  26
ATOM     26  C   UNL     1       0.491   9.853  18.753  0.00  0.00    +0.000 A 
ATOM     27  C   UNL     1      -0.731   9.696  18.085  0.00  0.00    +0.000 A 
ATOM     28  C   UNL     1      -1.488  10.818  17.739  0.00  0.00    +0.000 A 
ATOM     29  C   UNL     1      -1.010  12.069  18.073  0.00  0.00    +0.000 A 
ATOM     30  N   UNL     1       0.159  12.269  18.720  0.00  0.00    +0.000 NA
ATOM     31  C   UNL     1       0.875  11.156  19.049  0.00  0.00    +0.000 A 
ENDBRANCH  23  26
ENDBRANCH  20  21
ENDBRANCH   2  20
TORSDOF 4
ENDMDL
MODEL 8
REMARK VINA RESULT:      -7.2      2.577      7.687
REMARK  Name = 
REMARK  6 active torsions:
REMARK  status: ('A' for Active; 'I' for Inactive)
REMARK    1  A    between atoms: C_1  and  C_2
REMARK    2  A    between atoms: C_7  and  N_8
REMARK    3  A    between atoms: C_9  and  C_10
REMARK    4  A    between atoms: C_10  and  N_11
REMARK    5  A    between atoms: C_13  and  C_14
REMARK    6  A    between atoms: C_27  and  C_28
REMARK                            x       y       z     vdW  Elec       q    Type
REMARK                         _______ _______ _______ _____ _____    ______ ____
ROOT
ATOM      1  N   UNL     1       2.862   6.017  19.236  0.00  0.00    +0.000 N 
ATOM      2  C   UNL     1       3.154   6.892  18.227  0.00  0.00    +0.000 A 
ATOM      3  N   UNL     1       2.207   7.500  17.585  0.00  0.00    +0.000 NA
ATOM      4  C   UNL     1       1.395   8.222  18.479  0.00  0.00    +0.000 A 
ATOM      5  C   UNL     1       0.873   9.394  17.924  0.00  0.00    +0.000 A 
ATOM      6  C   UNL     1       0.701  10.504  18.724  0.00  0.00    +0.000 A 
ATOM      7  C   UNL     1       0.980  10.403  20.083  0.00  0.00    +0.000 A 
ATOM      8  C   UNL     1       1.357   9.173  20.699  0.00  0.00    +0.000 A 
ATOM      9  C   UNL     1       1.666   9.282  22.169  0.00  0.00    +0.000 C 
ATOM     10  C   UNL     1       1.528   8.029  19.875  0.00  0.00    +0.000 A 
ATOM     11  C   UNL     1       2.017   6.604  20.216  0.00  0.00    +0.000 A 
ATOM     12  O   UNL     1       1.678   6.054  21.265  0.00  0.00    +0.000 OA
ENDROOT
BRANCH   1  19
ATOM     13  C   UNL     1       5.229   4.144  19.358  0.00  0.00    +0.000 C 
ATOM     14  C   UNL     1       3.915   3.771  18.743  0.00  0.00    +0.000 A 
ATOM     15  C   UNL     1       3.887   2.570  17.981  0.00  0.00    +0.000 A 
ATOM     16  C   UNL     1       2.786   2.206  17.221  0.00  0.00    +0.000 A 
ATOM     17  C   UNL     1       1.685   3.047  17.191  0.00  0.00    +0.000 A 
ATOM     18  C   UNL     1       1.686   4.223  17.963  0.00  0.00    +0.000 A 
ATOM     19  C   UNL     1       2.781   4.621  18.776  0.00  0.00    +0.000 A 
ENDBRANCH   1  19
BRANCH   2  20
ATOM     20  C   UNL     1       4.549   7.467  18.265  0.00  0.00    +0.000 C 
BRANCH  20  21
ATOM     21  N   UNL     1       5.405   6.861  17.246  0.00  0.00    +0.000 N 
ATOM     22  C   UNL     1       5.041   6.274  16.065  0.00  0.00    +0.000 A 
ATOM     23  C   UNL     1       6.219   5.779  15.542  0.00  0.00    +0.000 A 
ATOM     24  N   UNL     1       7.246   6.124  16.388  0.00  0.00    +0.000 NA
ATOM     25  N   UNL     1       6.741   6.796  17.417  0.00  0.00    +0.000 NA
BRANCH  23  26
ATOM     26  C   UNL     1       6.391   5.019  14.317  0.00  0.00    +0.000 A 
ATOM     27  C   UNL     1       5.520   3.990  13.939  0.00  0.00    +0.000 A 
ATOM     28  C   UNL     1       5.760   3.264  12.770  0.00  0.00    +0.000 A 
ATOM     29  C   UNL     1       6.862   3.586  12.004  0.00  0.00    +0.000 A 
ATOM     30  N   UNL     1       7.726   4.573  12.326  0.00  0.00    +0.000 NA
ATOM     31  C   UNL     1       7.465   5.268  13.470  0.00  0.00    +0.000 A 
ENDBRANCH  23  26
ENDBRANCH  20  21
ENDBRANCH   2  20
TORSDOF 4
ENDMDL
MODEL 9
REMARK VINA RESULT:      -7.0      3.604      9.857
REMARK  Name = 
REMARK  6 active torsions:
REMARK  status: ('A' for Active; 'I' for Inactive)
REMARK    1  A    between atoms: C_1  and  C_2
REMARK    2  A    between atoms: C_7  and  N_8
REMARK    3  A    between atoms: C_9  and  C_10
REMARK    4  A    between atoms: C_10  and  N_11
REMARK    5  A    between atoms: C_13  and  C_14
REMARK    6  A    between atoms: C_27  and  C_28
REMARK                            x       y       z     vdW  Elec       q    Type
REMARK                         _______ _______ _______ _____ _____    ______ ____
ROOT
ATOM      1  N   UNL     1      -1.397  12.065  20.894  0.00  0.00    +0.000 N 
ATOM      2  C   UNL     1      -1.080  11.936  22.217  0.00  0.00    +0.000 A 
ATOM      3  N   UNL     1      -1.163  12.951  23.018  0.00  0.00    +0.000 NA
ATOM      4  C   UNL     1      -2.464  13.486  22.998  0.00  0.00    +0.000 A 
ATOM      5  C   UNL     1      -2.856  14.024  24.227  0.00  0.00    +0.000 A 
ATOM      6  C   UNL     1      -4.175  13.928  24.619  0.00  0.00    +0.000 A 
ATOM      7  C   UNL     1      -5.096  13.364  23.743  0.00  0.00    +0.000 A 
ATOM      8  C   UNL     1      -4.748  12.957  22.421  0.00  0.00    +0.000 A 
ATOM      9  C   UNL     1      -5.875  12.324  21.648  0.00  0.00    +0.000 C 
ATOM     10  C   UNL     1      -3.392  13.064  22.016  0.00  0.00    +0.000 A 
ATOM     11  C   UNL     1      -2.690  12.624  20.712  0.00  0.00    +0.000 A 
ATOM     12  O   UNL     1      -3.243  12.764  19.619  0.00  0.00    +0.000 OA
ENDROOT
BRANCH   1  19
ATOM     13  C   UNL     1      -0.762  10.462  18.413  0.00  0.00    +0.000 C 
ATOM     14  C   UNL     1       0.127  11.544  18.944  0.00  0.00    +0.000 A 
ATOM     15  C   UNL     1       1.429  11.632  18.376  0.00  0.00    +0.000 A 
ATOM     16  C   UNL     1       2.404  12.470  18.897  0.00  0.00    +0.000 A 
ATOM     17  C   UNL     1       2.103  13.233  20.014  0.00  0.00    +0.000 A 
ATOM     18  C   UNL     1       0.811  13.179  20.568  0.00  0.00    +0.000 A 
ATOM     19  C   UNL     1      -0.225  12.354  20.052  0.00  0.00    +0.000 A 
ENDBRANCH   1  19
BRANCH   2  20
ATOM     20  C   UNL     1      -1.143  10.526  22.754  0.00  0.00    +0.000 C 
BRANCH  20  21
ATOM     21  N   UNL     1      -0.057   9.703  22.222  0.00  0.00    +0.000 N 
ATOM     22  C   UNL     1      -0.126   8.685  21.312  0.00  0.00    +0.000 A 
ATOM     23  C   UNL     1       1.160   8.186  21.245  0.00  0.00    +0.000 A 
ATOM     24  N   UNL     1       1.960   8.944  22.067  0.00  0.00    +0.000 NA
ATOM     25  N   UNL     1       1.210   9.876  22.647  0.00  0.00    +0.000 NA
BRANCH  23  26
ATOM     26  C   UNL     1       1.631   7.060  20.460  0.00  0.00    +0.000 A 
ATOM     27  C   UNL     1       1.450   5.731  20.863  0.00  0.00    +0.000 A 
ATOM     28  C   UNL     1       1.963   4.688  20.088  0.00  0.00    +0.000 A 
ATOM     29  C   UNL     1       2.639   4.998  18.925  0.00  0.00    +0.000 A 
ATOM     30  N   UNL     1       2.834   6.263  18.494  0.00  0.00    +0.000 NA
ATOM     31  C   UNL     1       2.319   7.260  19.269  0.00  0.00    +0.000 A 
ENDBRANCH  23  26
ENDBRANCH  20  21
ENDBRANCH   2  20
TORSDOF 4
ENDMDL
