MODEL 1
REMARK VINA RESULT:      -7.5      0.000      0.000
REMARK  Name = 
REMARK  9 active torsions:
REMARK  status: ('A' for Active; 'I' for Inactive)
REMARK    1  A    between atoms: C_1  and  C_2
REMARK    2  A    between atoms: C_2  and  C_3
REMARK    3  A    between atoms: C_2  and  O_4
REMARK    4  A    between atoms: C_2  and  C_5
REMARK    5  A    between atoms: C_6  and  C_7
REMARK    6  A    between atoms: C_15  and  C_16
REMARK    7  A    between atoms: C_21  and  C_22
REMARK    8  A    between atoms: C_22  and  C_23
REMARK    9  A    between atoms: C_23  and  O_25
REMARK                            x       y       z     vdW  Elec       q    Type
REMARK                         _______ _______ _______ _____ _____    ______ ____
ROOT
ATOM      1  C   UNL     1       1.638   8.446  19.578  0.00  0.00    +0.000 A 
ATOM      2  C   UNL     1       1.044   7.830  20.672  0.00  0.00    +0.000 A 
ATOM      3  C   UNL     1       1.452   6.552  21.039  0.00  0.00    +0.000 A 
ATOM      4  C   UNL     1       2.426   5.851  20.309  0.00  0.00    +0.000 A 
ATOM      5  C   UNL     1       3.051   6.471  19.207  0.00  0.00    +0.000 A 
ATOM      6  C   UNL     1       2.650   7.782  18.868  0.00  0.00    +0.000 A 
ATOM      7  C   UNL     1       4.008   5.811  18.318  0.00  0.00    +0.000 A 
ATOM      8  N   UNL     1       5.030   6.494  17.660  0.00  0.00    +0.000 NA
ATOM      9  C   UNL     1       5.720   5.643  16.912  0.00  0.00    +0.000 A 
ATOM     10  S   UNL     1       5.146   4.029  16.903  0.00  0.00    +0.000 S 
ATOM     11  C   UNL     1       3.922   4.469  18.009  0.00  0.00    +0.000 A 
ATOM     12  C   UNL     1       2.989   3.447  18.590  0.00  0.00    +0.000 C 
ATOM     13  C   UNL     1       3.186   3.512  20.113  0.00  0.00    +0.000 C 
ATOM     14  O   UNL     1       2.544   4.582  20.795  0.00  0.00    +0.000 OA
ENDROOT
BRANCH   9  15
ATOM     15  C   UNL     1       6.901   6.002  16.133  0.00  0.00    +0.000 C 
ATOM     16  N   UNL     1       7.645   7.036  16.643  0.00  0.00    +0.000 N 
ATOM     17  O   UNL     1       7.274   5.458  15.090  0.00  0.00    +0.000 OA
ATOM     18  H   UNL     1       7.376   7.473  17.515  0.00  0.00    +0.000 HD
ATOM     19  H   UNL     1       8.493   7.308  16.164  0.00  0.00    +0.000 HD
ENDBRANCH   9  15
BRANCH   1  21
ATOM     20  C   UNL     1       0.812  10.978  18.978  0.00  0.00    +0.000 C 
ATOM     21  C   UNL     1       1.215   9.758  19.202  0.00  0.00    +0.000 C 
BRANCH  20  23
ATOM     22  C   UNL     1       1.534  13.271  18.326  0.00  0.00    +0.000 C 
ATOM     23  C   UNL     1       0.343  12.399  18.718  0.00  0.00    +0.000 C 
ATOM     24  C   UNL     1      -0.353  12.946  19.963  0.00  0.00    +0.000 C 
BRANCH  23  25
ATOM     25  O   UNL     1      -0.588  12.369  17.641  0.00  0.00    +0.000 OA
ATOM     26  H   UNL     1      -0.671  11.445  17.351  0.00  0.00    +0.000 HD
ENDBRANCH  23  25
ENDBRANCH  20  23
ENDBRANCH   1  21
BRANCH  12  27
ATOM     27  C   UNL     1       1.546   3.658  18.106  0.00  0.00    +0.000 C 
BRANCH  27  28
ATOM     28  C   UNL     1       0.588   2.726  18.796  0.00  0.00    +0.000 C 
ATOM     29  O   UNL     1       0.220   1.654  18.336  0.00  0.00    +0.000 OA
BRANCH  28  30
ATOM     30  O   UNL     1       0.124   3.202  19.972  0.00  0.00    +0.000 OA
ATOM     31  H   UNL     1       0.795   3.647  20.525  0.00  0.00    +0.000 HD
ENDBRANCH  28  30
ENDBRANCH  27  28
ENDBRANCH  12  27
TORSDOF 7
ENDMDL
MODEL 2
REMARK VINA RESULT:      -7.3      8.030     11.476
REMARK  Name = 
REMARK  9 active torsions:
REMARK  status: ('A' for Active; 'I' for Inactive)
REMARK    1  A    between atoms: C_1  and  C_2
REMARK    2  A    between atoms: C_2  and  C_3
REMARK    3  A    between atoms: C_2  and  O_4
REMARK    4  A    between atoms: C_2  and  C_5
REMARK    5  A    between atoms: C_6  and  C_7
REMARK    6  A    between atoms: C_15  and  C_16
REMARK    7  A    between atoms: C_21  and  C_22
REMARK    8  A    between atoms: C_22  and  C_23
REMARK    9  A    between atoms: C_23  and  O_25
REMARK                            x       y       z     vdW  Elec       q    Type
REMARK                         _______ _______ _______ _____ _____    ______ ____
ROOT
ATOM      1  C   UNL     1       9.215  10.472  18.590  0.00  0.00    +0.000 A 
ATOM      2  C   UNL     1      10.169  11.001  17.731  0.00  0.00    +0.000 A 
ATOM      3  C   UNL     1      10.881  12.131  18.116  0.00  0.00    +0.000 A 
ATOM      4  C   UNL     1      10.636  12.776  19.340  0.00  0.00    +0.000 A 
ATOM      5  C   UNL     1       9.684  12.240  20.231  0.00  0.00    +0.000 A 
ATOM      6  C   UNL     1       8.993  11.071  19.839  0.00  0.00    +0.000 A 
ATOM      7  C   UNL     1       9.276  12.870  21.487  0.00  0.00    +0.000 A 
ATOM      8  N   UNL     1       8.848  12.144  22.598  0.00  0.00    +0.000 NA
ATOM      9  C   UNL     1       8.526  12.981  23.576  0.00  0.00    +0.000 A 
ATOM     10  S   UNL     1       8.651  14.647  23.197  0.00  0.00    +0.000 S 
ATOM     11  C   UNL     1       9.219  14.240  21.639  0.00  0.00    +0.000 A 
ATOM     12  C   UNL     1       9.668  15.295  20.670  0.00  0.00    +0.000 C 
ATOM     13  C   UNL     1      11.136  14.972  20.345  0.00  0.00    +0.000 C 
ATOM     14  O   UNL     1      11.369  13.925  19.413  0.00  0.00    +0.000 OA
ENDROOT
BRANCH   9  15
ATOM     15  C   UNL     1       8.097  12.565  24.907  0.00  0.00    +0.000 C 
ATOM     16  N   UNL     1       7.181  11.545  24.934  0.00  0.00    +0.000 N 
ATOM     17  O   UNL     1       8.490  13.041  25.976  0.00  0.00    +0.000 OA
ATOM     18  H   UNL     1       6.871  11.118  24.071  0.00  0.00    +0.000 HD
ATOM     19  H   UNL     1       6.870  11.193  25.830  0.00  0.00    +0.000 HD
ENDBRANCH   9  15
BRANCH   1  21
ATOM     20  C   UNL     1       7.918   8.191  17.839  0.00  0.00    +0.000 C 
ATOM     21  C   UNL     1       8.483   9.312  18.190  0.00  0.00    +0.000 C 
BRANCH  20  23
ATOM     22  C   UNL     1       5.751   7.078  17.318  0.00  0.00    +0.000 C 
ATOM     23  C   UNL     1       7.262   6.883  17.429  0.00  0.00    +0.000 C 
ATOM     24  C   UNL     1       7.604   5.796  18.445  0.00  0.00    +0.000 C 
BRANCH  23  25
ATOM     25  O   UNL     1       7.777   6.508  16.155  0.00  0.00    +0.000 OA
ATOM     26  H   UNL     1       8.629   6.065  16.304  0.00  0.00    +0.000 HD
ENDBRANCH  23  25
ENDBRANCH  20  23
ENDBRANCH   1  21
BRANCH  12  27
ATOM     27  C   UNL     1       8.731  15.383  19.455  0.00  0.00    +0.000 C 
BRANCH  27  28
ATOM     28  C   UNL     1       9.303  16.263  18.377  0.00  0.00    +0.000 C 
ATOM     29  O   UNL     1       9.377  17.482  18.452  0.00  0.00    +0.000 OA
BRANCH  28  30
ATOM     30  O   UNL     1       9.697  15.584  17.279  0.00  0.00    +0.000 OA
ATOM     31  H   UNL     1      10.565  15.143  17.361  0.00  0.00    +0.000 HD
ENDBRANCH  28  30
ENDBRANCH  27  28
ENDBRANCH  12  27
TORSDOF 7
ENDMDL
MODEL 3
REMARK VINA RESULT:      -7.1      0.967      1.231
REMARK  Name = 
REMARK  9 active torsions:
REMARK  status: ('A' for Active; 'I' for Inactive)
REMARK    1  A    between atoms: C_1  and  C_2
REMARK    2  A    between atoms: C_2  and  C_3
REMARK    3  A    between atoms: C_2  and  O_4
REMARK    4  A    between atoms: C_2  and  C_5
REMARK    5  A    between atoms: C_6  and  C_7
REMARK    6  A    between atoms: C_15  and  C_16
REMARK    7  A    between atoms: C_21  and  C_22
REMARK    8  A    between atoms: C_22  and  C_23
REMARK    9  A    between atoms: C_23  and  O_25
REMARK                            x       y       z     vdW  Elec       q    Type
REMARK                         _______ _______ _______ _____ _____    ______ ____
ROOT
ATOM      1  C   UNL     1       1.812   7.529  19.928  0.00  0.00    +0.000 A 
ATOM      2  C   UNL     1       1.290   6.701  20.913  0.00  0.00    +0.000 A 
ATOM      3  C   UNL     1       1.808   5.420  21.071  0.00  0.00    +0.000 A 
ATOM      4  C   UNL     1       2.822   4.926  20.234  0.00  0.00    +0.000 A 
ATOM      5  C   UNL     1       3.374   5.761  19.241  0.00  0.00    +0.000 A 
ATOM      6  C   UNL     1       2.860   7.072  19.116  0.00  0.00    +0.000 A 
ATOM      7  C   UNL     1       4.364   5.333  18.253  0.00  0.00    +0.000 A 
ATOM      8  N   UNL     1       5.315   6.193  17.705  0.00  0.00    +0.000 NA
ATOM      9  C   UNL     1       6.057   5.531  16.828  0.00  0.00    +0.000 A 
ATOM     10  S   UNL     1       5.617   3.896  16.568  0.00  0.00    +0.000 S 
ATOM     11  C   UNL     1       4.382   4.053  17.736  0.00  0.00    +0.000 A 
ATOM     12  C   UNL     1       3.547   2.878  18.153  0.00  0.00    +0.000 C 
ATOM     13  C   UNL     1       3.767   2.719  19.666  0.00  0.00    +0.000 C 
ATOM     14  O   UNL     1       3.053   3.611  20.513  0.00  0.00    +0.000 OA
ENDROOT
BRANCH   9  15
ATOM     15  C   UNL     1       7.191   6.106  16.110  0.00  0.00    +0.000 C 
ATOM     16  N   UNL     1       7.766   7.199  16.705  0.00  0.00    +0.000 N 
ATOM     17  O   UNL     1       7.660   5.690  15.047  0.00  0.00    +0.000 OA
ATOM     18  H   UNL     1       7.419   7.535  17.593  0.00  0.00    +0.000 HD
ATOM     19  H   UNL     1       8.576   7.621  16.269  0.00  0.00    +0.000 HD
ENDBRANCH   9  15
BRANCH   1  21
ATOM     20  C   UNL     1       0.791  10.024  19.497  0.00  0.00    +0.000 C 
ATOM     21  C   UNL     1       1.275   8.843  19.766  0.00  0.00    +0.000 C 
BRANCH  20  23
ATOM     22  C   UNL     1       0.208  12.250  20.450  0.00  0.00    +0.000 C 
ATOM     23  C   UNL     1       0.227  11.399  19.182  0.00  0.00    +0.000 C 
ATOM     24  C   UNL     1      -1.175  11.257  18.593  0.00  0.00    +0.000 C 
BRANCH  23  25
ATOM     25  O   UNL     1       1.075  12.016  18.219  0.00  0.00    +0.000 OA
ATOM     26  H   UNL     1       0.947  12.977  18.289  0.00  0.00    +0.000 HD
ENDBRANCH  23  25
ENDBRANCH  20  23
ENDBRANCH   1  21
BRANCH  12  27
ATOM     27  C   UNL     1       2.083   3.041  17.716  0.00  0.00    +0.000 C 
BRANCH  27  28
ATOM     28  C   UNL     1       1.145   2.307  18.636  0.00  0.00    +0.000 C 
ATOM     29  O   UNL     1       0.051   2.730  18.983  0.00  0.00    +0.000 OA
BRANCH  28  30
ATOM     30  O   UNL     1       1.642   1.136  19.090  0.00  0.00    +0.000 OA
ATOM     31  H   UNL     1       1.794   1.103  20.054  0.00  0.00    +0.000 HD
ENDBRANCH  28  30
ENDBRANCH  27  28
ENDBRANCH  12  27
TORSDOF 7
ENDMDL
MODEL 4
REMARK VINA RESULT:      -7.1      7.729     11.171
REMARK  Name = 
REMARK  9 active torsions:
REMARK  status: ('A' for Active; 'I' for Inactive)
REMARK    1  A    between atoms: C_1  and  C_2
REMARK    2  A    between atoms: C_2  and  C_3
REMARK    3  A    between atoms: C_2  and  O_4
REMARK    4  A    between atoms: C_2  and  C_5
REMARK    5  A    between atoms: C_6  and  C_7
REMARK    6  A    between atoms: C_15  and  C_16
REMARK    7  A    between atoms: C_21  and  C_22
REMARK    8  A    between atoms: C_22  and  C_23
REMARK    9  A    between atoms: C_23  and  O_25
REMARK                            x       y       z     vdW  Elec       q    Type
REMARK                         _______ _______ _______ _____ _____    ______ ____
ROOT
ATOM      1  C   UNL     1       9.201  10.395  18.643  0.00  0.00    +0.000 A 
ATOM      2  C   UNL     1      10.163  10.966  17.820  0.00  0.00    +0.000 A 
ATOM      3  C   UNL     1      10.861  12.084  18.262  0.00  0.00    +0.000 A 
ATOM      4  C   UNL     1      10.591  12.677  19.507  0.00  0.00    +0.000 A 
ATOM      5  C   UNL     1       9.630  12.098  20.361  0.00  0.00    +0.000 A 
ATOM      6  C   UNL     1       8.955  10.941  19.911  0.00  0.00    +0.000 A 
ATOM      7  C   UNL     1       9.198  12.674  21.635  0.00  0.00    +0.000 A 
ATOM      8  N   UNL     1       8.759  11.900  22.709  0.00  0.00    +0.000 NA
ATOM      9  C   UNL     1       8.416  12.695  23.714  0.00  0.00    +0.000 A 
ATOM     10  S   UNL     1       8.533  14.376  23.405  0.00  0.00    +0.000 S 
ATOM     11  C   UNL     1       9.128  14.037  21.841  0.00  0.00    +0.000 A 
ATOM     12  C   UNL     1       9.583  15.133  20.923  0.00  0.00    +0.000 C 
ATOM     13  C   UNL     1      11.058  14.835  20.608  0.00  0.00    +0.000 C 
ATOM     14  O   UNL     1      11.314  13.827  19.638  0.00  0.00    +0.000 OA
ENDROOT
BRANCH   9  15
ATOM     15  C   UNL     1       7.969  12.223  25.021  0.00  0.00    +0.000 C 
ATOM     16  N   UNL     1       8.617  12.777  26.096  0.00  0.00    +0.000 N 
ATOM     17  O   UNL     1       7.076  11.396  25.226  0.00  0.00    +0.000 OA
ATOM     18  H   UNL     1       9.328  13.481  25.952  0.00  0.00    +0.000 HD
ATOM     19  H   UNL     1       8.329  12.511  27.028  0.00  0.00    +0.000 HD
ENDBRANCH   9  15
BRANCH   1  21
ATOM     20  C   UNL     1       7.910   8.132  17.828  0.00  0.00    +0.000 C 
ATOM     21  C   UNL     1       8.484   9.247  18.184  0.00  0.00    +0.000 C 
BRANCH  20  23
ATOM     22  C   UNL     1       5.733   7.033  17.323  0.00  0.00    +0.000 C 
ATOM     23  C   UNL     1       7.244   6.831  17.412  0.00  0.00    +0.000 C 
ATOM     24  C   UNL     1       7.594   5.732  18.413  0.00  0.00    +0.000 C 
BRANCH  23  25
ATOM     25  O   UNL     1       7.742   6.467  16.129  0.00  0.00    +0.000 OA
ATOM     26  H   UNL     1       7.422   7.129  15.493  0.00  0.00    +0.000 HD
ENDBRANCH  23  25
ENDBRANCH  20  23
ENDBRANCH   1  21
BRANCH  12  27
ATOM     27  C   UNL     1       8.665  15.263  19.698  0.00  0.00    +0.000 C 
BRANCH  27  28
ATOM     28  C   UNL     1       7.371  15.949  20.046  0.00  0.00    +0.000 C 
ATOM     29  O   UNL     1       6.319  15.364  20.259  0.00  0.00    +0.000 OA
BRANCH  28  30
ATOM     30  O   UNL     1       7.463  17.297  20.060  0.00  0.00    +0.000 OA
ATOM     31  H   UNL     1       7.917  17.684  19.287  0.00  0.00    +0.000 HD
ENDBRANCH  28  30
ENDBRANCH  27  28
ENDBRANCH  12  27
TORSDOF 7
ENDMDL
MODEL 5
REMARK VINA RESULT:      -6.9      8.166     11.841
REMARK  Name = 
REMARK  9 active torsions:
REMARK  status: ('A' for Active; 'I' for Inactive)
REMARK    1  A    between atoms: C_1  and  C_2
REMARK    2  A    between atoms: C_2  and  C_3
REMARK    3  A    between atoms: C_2  and  O_4
REMARK    4  A    between atoms: C_2  and  C_5
REMARK    5  A    between atoms: C_6  and  C_7
REMARK    6  A    between atoms: C_15  and  C_16
REMARK    7  A    between atoms: C_21  and  C_22
REMARK    8  A    between atoms: C_22  and  C_23
REMARK    9  A    between atoms: C_23  and  O_25
REMARK                            x       y       z     vdW  Elec       q    Type
REMARK                         _______ _______ _______ _____ _____    ______ ____
ROOT
ATOM      1  C   UNL     1       9.407  10.710  18.517  0.00  0.00    +0.000 A 
ATOM      2  C   UNL     1      10.608  10.923  17.853  0.00  0.00    +0.000 A 
ATOM      3  C   UNL     1      11.360  12.054  18.151  0.00  0.00    +0.000 A 
ATOM      4  C   UNL     1      10.918  13.009  19.081  0.00  0.00    +0.000 A 
ATOM      5  C   UNL     1       9.710  12.798  19.776  0.00  0.00    +0.000 A 
ATOM      6  C   UNL     1       8.974  11.626  19.487  0.00  0.00    +0.000 A 
ATOM      7  C   UNL     1       9.102  13.761  20.696  0.00  0.00    +0.000 A 
ATOM      8  N   UNL     1       8.315  13.382  21.783  0.00  0.00    +0.000 NA
ATOM      9  C   UNL     1       7.888  14.466  22.418  0.00  0.00    +0.000 A 
ATOM     10  S   UNL     1       8.341  15.962  21.719  0.00  0.00    +0.000 S 
ATOM     11  C   UNL     1       9.209  15.124  20.510  0.00  0.00    +0.000 A 
ATOM     12  C   UNL     1      10.029  15.854  19.488  0.00  0.00    +0.000 C 
ATOM     13  C   UNL     1      11.469  15.344  19.658  0.00  0.00    +0.000 C 
ATOM     14  O   UNL     1      11.769  14.076  19.089  0.00  0.00    +0.000 OA
ENDROOT
BRANCH   9  15
ATOM     15  C   UNL     1       7.090  14.442  23.640  0.00  0.00    +0.000 C 
ATOM     16  N   UNL     1       7.391  15.421  24.553  0.00  0.00    +0.000 N 
ATOM     17  O   UNL     1       6.190  13.640  23.901  0.00  0.00    +0.000 OA
ATOM     18  H   UNL     1       8.102  16.108  24.344  0.00  0.00    +0.000 HD
ATOM     19  H   UNL     1       6.849  15.474  25.405  0.00  0.00    +0.000 HD
ENDBRANCH   9  15
BRANCH   1  21
ATOM     20  C   UNL     1       8.036   8.433  17.894  0.00  0.00    +0.000 C 
ATOM     21  C   UNL     1       8.635   9.549  18.206  0.00  0.00    +0.000 C 
BRANCH  20  23
ATOM     22  C   UNL     1       5.839   7.376  17.386  0.00  0.00    +0.000 C 
ATOM     23  C   UNL     1       7.340   7.133  17.528  0.00  0.00    +0.000 C 
ATOM     24  C   UNL     1       7.628   6.079  18.595  0.00  0.00    +0.000 C 
BRANCH  23  25
ATOM     25  O   UNL     1       7.861   6.687  16.280  0.00  0.00    +0.000 OA
ATOM     26  H   UNL     1       8.464   5.947  16.463  0.00  0.00    +0.000 HD
ENDBRANCH  23  25
ENDBRANCH  20  23
ENDBRANCH   1  21
BRANCH  12  27
ATOM     27  C   UNL     1       9.441  15.701  18.076  0.00  0.00    +0.000 C 
BRANCH  27  28
ATOM     28  C   UNL     1      10.245  16.460  17.055  0.00  0.00    +0.000 C 
ATOM     29  O   UNL     1      10.371  17.677  17.047  0.00  0.00    +0.000 OA
BRANCH  28  30
ATOM     30  O   UNL     1      10.790  15.672  16.104  0.00  0.00    +0.000 OA
ATOM     31  H   UNL     1      11.725  15.435  16.256  0.00  0.00    +0.000 HD
ENDBRANCH  28  30
ENDBRANCH  27  28
ENDBRANCH  12  27
TORSDOF 7
ENDMDL
MODEL 6
REMARK VINA RESULT:      -6.7      7.871     11.540
REMARK  Name = 
REMARK  9 active torsions:
REMARK  status: ('A' for Active; 'I' for Inactive)
REMARK    1  A    between atoms: C_1  and  C_2
REMARK    2  A    between atoms: C_2  and  C_3
REMARK    3  A    between atoms: C_2  and  O_4
REMARK    4  A    between atoms: C_2  and  C_5
REMARK    5  A    between atoms: C_6  and  C_7
REMARK    6  A    between atoms: C_15  and  C_16
REMARK    7  A    between atoms: C_21  and  C_22
REMARK    8  A    between atoms: C_22  and  C_23
REMARK    9  A    between atoms: C_23  and  O_25
REMARK                            x       y       z     vdW  Elec       q    Type
REMARK                         _______ _______ _______ _____ _____    ______ ____
ROOT
ATOM      1  C   UNL     1       9.282  10.661  18.522  0.00  0.00    +0.000 A 
ATOM      2  C   UNL     1      10.215  11.113  17.598  0.00  0.00    +0.000 A 
ATOM      3  C   UNL     1      10.886  12.307  17.837  0.00  0.00    +0.000 A 
ATOM      4  C   UNL     1      10.618  13.090  18.972  0.00  0.00    +0.000 A 
ATOM      5  C   UNL     1       9.686  12.636  19.927  0.00  0.00    +0.000 A 
ATOM      6  C   UNL     1       9.038  11.403  19.687  0.00  0.00    +0.000 A 
ATOM      7  C   UNL     1       9.256  13.403  21.096  0.00  0.00    +0.000 A 
ATOM      8  N   UNL     1       8.855  12.807  22.292  0.00  0.00    +0.000 NA
ATOM      9  C   UNL     1       8.504  13.748  23.158  0.00  0.00    +0.000 A 
ATOM     10  S   UNL     1       8.568  15.357  22.574  0.00  0.00    +0.000 S 
ATOM     11  C   UNL     1       9.150  14.779  21.076  0.00  0.00    +0.000 A 
ATOM     12  C   UNL     1       9.561  15.719  19.982  0.00  0.00    +0.000 C 
ATOM     13  C   UNL     1      11.039  15.412  19.692  0.00  0.00    +0.000 C 
ATOM     14  O   UNL     1      11.309  14.264  18.897  0.00  0.00    +0.000 OA
ENDROOT
BRANCH   9  15
ATOM     15  C   UNL     1       8.090  13.486  24.533  0.00  0.00    +0.000 C 
ATOM     16  N   UNL     1       8.383  12.232  25.004  0.00  0.00    +0.000 N 
ATOM     17  O   UNL     1       7.522  14.286  25.283  0.00  0.00    +0.000 OA
ATOM     18  H   UNL     1       8.878  11.573  24.418  0.00  0.00    +0.000 HD
ATOM     19  H   UNL     1       8.149  12.004  25.960  0.00  0.00    +0.000 HD
ENDBRANCH   9  15
BRANCH   1  21
ATOM     20  C   UNL     1       8.008   8.320  17.932  0.00  0.00    +0.000 C 
ATOM     21  C   UNL     1       8.591   9.436  18.273  0.00  0.00    +0.000 C 
BRANCH  20  23
ATOM     22  C   UNL     1       5.820   7.236  17.440  0.00  0.00    +0.000 C 
ATOM     23  C   UNL     1       7.329   7.021  17.533  0.00  0.00    +0.000 C 
ATOM     24  C   UNL     1       7.668   5.931  18.548  0.00  0.00    +0.000 C 
BRANCH  23  25
ATOM     25  O   UNL     1       7.824   6.635  16.255  0.00  0.00    +0.000 OA
ATOM     26  H   UNL     1       7.074   6.290  15.743  0.00  0.00    +0.000 HD
ENDBRANCH  23  25
ENDBRANCH  20  23
ENDBRANCH   1  21
BRANCH  12  27
ATOM     27  C   UNL     1       8.621  15.621  18.770  0.00  0.00    +0.000 C 
BRANCH  27  28
ATOM     28  C   UNL     1       7.703  16.811  18.683  0.00  0.00    +0.000 C 
ATOM     29  O   UNL     1       8.076  17.951  18.443  0.00  0.00    +0.000 OA
BRANCH  28  30
ATOM     30  O   UNL     1       6.411  16.514  18.939  0.00  0.00    +0.000 OA
ATOM     31  H   UNL     1       6.106  15.662  18.571  0.00  0.00    +0.000 HD
ENDBRANCH  28  30
ENDBRANCH  27  28
ENDBRANCH  12  27
TORSDOF 7
ENDMDL
MODEL 7
REMARK VINA RESULT:      -6.6      4.231      5.760
REMARK  Name = 
REMARK  9 active torsions:
REMARK  status: ('A' for Active; 'I' for Inactive)
REMARK    1  A    between atoms: C_1  and  C_2
REMARK    2  A    between atoms: C_2  and  C_3
REMARK    3  A    between atoms: C_2  and  O_4
REMARK    4  A    between atoms: C_2  and  C_5
REMARK    5  A    between atoms: C_6  and  C_7
REMARK    6  A    between atoms: C_15  and  C_16
REMARK    7  A    between atoms: C_21  and  C_22
REMARK    8  A    between atoms: C_22  and  C_23
REMARK    9  A    between atoms: C_23  and  O_25
REMARK                            x       y       z     vdW  Elec       q    Type
REMARK                         _______ _______ _______ _____ _____    ______ ____
ROOT
ATOM      1  C   UNL     1       7.890   7.463  18.233  0.00  0.00    +0.000 A 
ATOM      2  C   UNL     1       7.609   6.927  19.482  0.00  0.00    +0.000 A 
ATOM      3  C   UNL     1       6.989   5.685  19.568  0.00  0.00    +0.000 A 
ATOM      4  C   UNL     1       6.605   4.972  18.420  0.00  0.00    +0.000 A 
ATOM      5  C   UNL     1       6.899   5.495  17.144  0.00  0.00    +0.000 A 
ATOM      6  C   UNL     1       7.561   6.742  17.075  0.00  0.00    +0.000 A 
ATOM      7  C   UNL     1       6.469   4.893  15.882  0.00  0.00    +0.000 A 
ATOM      8  N   UNL     1       7.195   5.010  14.697  0.00  0.00    +0.000 NA
ATOM      9  C   UNL     1       6.552   4.383  13.721  0.00  0.00    +0.000 A 
ATOM     10  S   UNL     1       5.042   3.696  14.148  0.00  0.00    +0.000 S 
ATOM     11  C   UNL     1       5.270   4.221  15.757  0.00  0.00    +0.000 A 
ATOM     12  C   UNL     1       4.295   3.866  16.841  0.00  0.00    +0.000 C 
ATOM     13  C   UNL     1       5.100   3.089  17.895  0.00  0.00    +0.000 C 
ATOM     14  O   UNL     1       5.904   3.858  18.780  0.00  0.00    +0.000 OA
ENDROOT
BRANCH   9  15
ATOM     15  C   UNL     1       7.055   4.250  12.357  0.00  0.00    +0.000 C 
ATOM     16  N   UNL     1       6.881   3.014  11.788  0.00  0.00    +0.000 N 
ATOM     17  O   UNL     1       7.600   5.139  11.696  0.00  0.00    +0.000 OA
ATOM     18  H   UNL     1       6.408   2.282  12.300  0.00  0.00    +0.000 HD
ATOM     19  H   UNL     1       7.181   2.871  10.833  0.00  0.00    +0.000 HD
ENDBRANCH   9  15
BRANCH   1  21
ATOM     20  C   UNL     1       9.101   9.909  18.194  0.00  0.00    +0.000 C 
ATOM     21  C   UNL     1       8.523   8.740  18.148  0.00  0.00    +0.000 C 
BRANCH  20  23
ATOM     22  C   UNL     1      10.253  11.550  19.671  0.00  0.00    +0.000 C 
ATOM     23  C   UNL     1       9.773  11.270  18.249  0.00  0.00    +0.000 C 
ATOM     24  C   UNL     1       8.795  12.345  17.777  0.00  0.00    +0.000 C 
BRANCH  23  25
ATOM     25  O   UNL     1      10.896  11.247  17.374  0.00  0.00    +0.000 OA
ATOM     26  H   UNL     1      10.737  10.552  16.713  0.00  0.00    +0.000 HD
ENDBRANCH  23  25
ENDBRANCH  20  23
ENDBRANCH   1  21
BRANCH  12  27
ATOM     27  C   UNL     1       3.554   5.106  17.364  0.00  0.00    +0.000 C 
BRANCH  27  28
ATOM     28  C   UNL     1       2.226   4.743  17.972  0.00  0.00    +0.000 C 
ATOM     29  O   UNL     1       1.323   4.184  17.365  0.00  0.00    +0.000 OA
BRANCH  28  30
ATOM     30  O   UNL     1       2.097   5.133  19.258  0.00  0.00    +0.000 OA
ATOM     31  H   UNL     1       2.478   6.010  19.460  0.00  0.00    +0.000 HD
ENDBRANCH  28  30
ENDBRANCH  27  28
ENDBRANCH  12  27
TORSDOF 7
ENDMDL
MODEL 8
REMARK VINA RESULT:      -6.6      3.552      6.234
REMARK  Name = 
REMARK  9 active torsions:
REMARK  status: ('A' for Active; 'I' for Inactive)
REMARK    1  A    between atoms: C_1  and  C_2
REMARK    2  A    between atoms: C_2  and  C_3
REMARK    3  A    between atoms: C_2  and  O_4
REMARK    4  A    between atoms: C_2  and  C_5
REMARK    5  A    between atoms: C_6  and  C_7
REMARK    6  A    between atoms: C_15  and  C_16
REMARK    7  A    between atoms: C_21  and  C_22
REMARK    8  A    between atoms: C_22  and  C_23
REMARK    9  A    between atoms: C_23  and  O_25
REMARK                            x       y       z     vdW  Elec       q    Type
REMARK                         _______ _______ _______ _____ _____    ______ ____
ROOT
ATOM      1  C   UNL     1       6.747   7.466  17.388  0.00  0.00    +0.000 A 
ATOM      2  C   UNL     1       7.040   6.499  16.436  0.00  0.00    +0.000 A 
ATOM      3  C   UNL     1       6.129   5.475  16.203  0.00  0.00    +0.000 A 
ATOM      4  C   UNL     1       4.934   5.371  16.934  0.00  0.00    +0.000 A 
ATOM      5  C   UNL     1       4.615   6.355  17.891  0.00  0.00    +0.000 A 
ATOM      6  C   UNL     1       5.535   7.409  18.091  0.00  0.00    +0.000 A 
ATOM      7  C   UNL     1       3.450   6.305  18.776  0.00  0.00    +0.000 A 
ATOM      8  N   UNL     1       2.808   7.447  19.254  0.00  0.00    +0.000 NA
ATOM      9  C   UNL     1       1.805   7.092  20.045  0.00  0.00    +0.000 A 
ATOM     10  S   UNL     1       1.627   5.408  20.308  0.00  0.00    +0.000 S 
ATOM     11  C   UNL     1       2.944   5.116  19.260  0.00  0.00    +0.000 A 
ATOM     12  C   UNL     1       3.357   3.721  18.894  0.00  0.00    +0.000 C 
ATOM     13  C   UNL     1       3.237   3.632  17.364  0.00  0.00    +0.000 C 
ATOM     14  O   UNL     1       4.290   4.213  16.606  0.00  0.00    +0.000 OA
ENDROOT
BRANCH   9  15
ATOM     15  C   UNL     1       0.878   8.030  20.670  0.00  0.00    +0.000 C 
ATOM     16  N   UNL     1       1.000   9.333  20.259  0.00  0.00    +0.000 N 
ATOM     17  O   UNL     1       0.016   7.747  21.507  0.00  0.00    +0.000 OA
ATOM     18  H   UNL     1       1.676   9.581  19.550  0.00  0.00    +0.000 HD
ATOM     19  H   UNL     1       0.363  10.023  20.634  0.00  0.00    +0.000 HD
ENDBRANCH   9  15
BRANCH   1  21
ATOM     20  C   UNL     1       8.454   9.534  17.902  0.00  0.00    +0.000 C 
ATOM     21  C   UNL     1       7.687   8.516  17.628  0.00  0.00    +0.000 C 
BRANCH  20  23
ATOM     22  C   UNL     1       9.727  10.695  19.701  0.00  0.00    +0.000 C 
ATOM     23  C   UNL     1       9.346  10.722  18.222  0.00  0.00    +0.000 C 
ATOM     24  C   UNL     1       8.623  12.019  17.864  0.00  0.00    +0.000 C 
BRANCH  23  25
ATOM     25  O   UNL     1      10.527  10.615  17.435  0.00  0.00    +0.000 OA
ATOM     26  H   UNL     1      11.138  10.022  17.904  0.00  0.00    +0.000 HD
ENDBRANCH  23  25
ENDBRANCH  20  23
ENDBRANCH   1  21
BRANCH  12  27
ATOM     27  C   UNL     1       4.740   3.373  19.465  0.00  0.00    +0.000 C 
BRANCH  27  28
ATOM     28  C   UNL     1       4.776   1.972  20.014  0.00  0.00    +0.000 C 
ATOM     29  O   UNL     1       5.077   1.694  21.167  0.00  0.00    +0.000 OA
BRANCH  28  30
ATOM     30  O   UNL     1       4.485   1.025  19.097  0.00  0.00    +0.000 OA
ATOM     31  H   UNL     1       5.220   0.414  18.893  0.00  0.00    +0.000 HD
ENDBRANCH  28  30
ENDBRANCH  27  28
ENDBRANCH  12  27
TORSDOF 7
ENDMDL
MODEL 9
REMARK VINA RESULT:      -6.6      7.842     11.243
REMARK  Name = 
REMARK  9 active torsions:
REMARK  status: ('A' for Active; 'I' for Inactive)
REMARK    1  A    between atoms: C_1  and  C_2
REMARK    2  A    between atoms: C_2  and  C_3
REMARK    3  A    between atoms: C_2  and  O_4
REMARK    4  A    between atoms: C_2  and  C_5
REMARK    5  A    between atoms: C_6  and  C_7
REMARK    6  A    between atoms: C_15  and  C_16
REMARK    7  A    between atoms: C_21  and  C_22
REMARK    8  A    between atoms: C_22  and  C_23
REMARK    9  A    between atoms: C_23  and  O_25
REMARK                            x       y       z     vdW  Elec       q    Type
REMARK                         _______ _______ _______ _____ _____    ______ ____
ROOT
ATOM      1  C   UNL     1       9.170  10.205  18.614  0.00  0.00    +0.000 A 
ATOM      2  C   UNL     1      10.092  10.778  17.747  0.00  0.00    +0.000 A 
ATOM      3  C   UNL     1      10.759  11.936  18.130  0.00  0.00    +0.000 A 
ATOM      4  C   UNL     1      10.498  12.565  19.359  0.00  0.00    +0.000 A 
ATOM      5  C   UNL     1       9.579  11.985  20.257  0.00  0.00    +0.000 A 
ATOM      6  C   UNL     1       8.935  10.789  19.867  0.00  0.00    +0.000 A 
ATOM      7  C   UNL     1       9.157  12.593  21.519  0.00  0.00    +0.000 A 
ATOM      8  N   UNL     1       8.771  11.846  22.632  0.00  0.00    +0.000 NA
ATOM      9  C   UNL     1       8.423  12.666  23.615  0.00  0.00    +0.000 A 
ATOM     10  S   UNL     1       8.473  14.337  23.242  0.00  0.00    +0.000 S 
ATOM     11  C   UNL     1       9.043  13.960  21.677  0.00  0.00    +0.000 A 
ATOM     12  C   UNL     1       9.437  15.036  20.708  0.00  0.00    +0.000 C 
ATOM     13  C   UNL     1      10.914  14.777  20.367  0.00  0.00    +0.000 C 
ATOM     14  O   UNL     1      11.182  13.744  19.429  0.00  0.00    +0.000 OA
ENDROOT
BRANCH   9  15
ATOM     15  C   UNL     1       8.025  12.227  24.949  0.00  0.00    +0.000 C 
ATOM     16  N   UNL     1       8.774  12.736  25.980  0.00  0.00    +0.000 N 
ATOM     17  O   UNL     1       7.091  11.465  25.212  0.00  0.00    +0.000 OA
ATOM     18  H   UNL     1       9.522  13.389  25.789  0.00  0.00    +0.000 HD
ATOM     19  H   UNL     1       8.525  12.493  26.929  0.00  0.00    +0.000 HD
ENDBRANCH   9  15
BRANCH   1  21
ATOM     20  C   UNL     1       7.766   7.967  17.927  0.00  0.00    +0.000 C 
ATOM     21  C   UNL     1       8.484   9.017  18.216  0.00  0.00    +0.000 C 
BRANCH  20  23
ATOM     22  C   UNL     1       7.046   5.716  18.714  0.00  0.00    +0.000 C 
ATOM     23  C   UNL     1       6.928   6.745  17.591  0.00  0.00    +0.000 C 
ATOM     24  C   UNL     1       7.385   6.159  16.257  0.00  0.00    +0.000 C 
BRANCH  23  25
ATOM     25  O   UNL     1       5.569   7.156  17.477  0.00  0.00    +0.000 OA
ATOM     26  H   UNL     1       5.017   6.359  17.538  0.00  0.00    +0.000 HD
ENDBRANCH  23  25
ENDBRANCH  20  23
ENDBRANCH   1  21
BRANCH  12  27
ATOM     27  C   UNL     1       8.485  15.088  19.503  0.00  0.00    +0.000 C 
BRANCH  27  28
ATOM     28  C   UNL     1       9.004  16.004  18.427  0.00  0.00    +0.000 C 
ATOM     29  O   UNL     1       8.992  17.225  18.499  0.00  0.00    +0.000 OA
BRANCH  28  30
ATOM     30  O   UNL     1       9.453  15.351  17.333  0.00  0.00    +0.000 OA
ATOM     31  H   UNL     1      10.105  15.847  16.801  0.00  0.00    +0.000 HD
ENDBRANCH  28  30
ENDBRANCH  27  28
ENDBRANCH  12  27
TORSDOF 7
ENDMDL
