MODEL 1
REMARK VINA RESULT:      -7.1      0.000      0.000
REMARK  Name = 
REMARK  2 active torsions:
REMARK  status: ('A' for Active; 'I' for Inactive)
REMARK    1  A    between atoms: C_1  and  N_2
REMARK    2  A    between atoms: C_8  and  C_9
REMARK                            x       y       z     vdW  Elec       q    Type
REMARK                         _______ _______ _______ _____ _____    ______ ____
ROOT
ATOM      1  C   UNL     1       3.276   1.756  18.414  0.00  0.00    +0.000 C 
ATOM      2  N   UNL     1       3.749   3.124  18.279  0.00  0.00    +0.000 NA
ATOM      3  C   UNL     1       3.107   3.918  17.214  0.00  0.00    +0.000 C 
ATOM      4  C   UNL     1       1.688   4.164  17.762  0.00  0.00    +0.000 C 
ATOM      5  C   UNL     1       1.920   4.241  19.277  0.00  0.00    +0.000 C 
ATOM      6  C   UNL     1       3.434   4.029  19.393  0.00  0.00    +0.000 C 
ATOM      7  C   UNL     1       4.161   5.290  18.885  0.00  0.00    +0.000 C 
ATOM      8  C   UNL     1       3.924   5.234  17.352  0.00  0.00    +0.000 C 
ENDROOT
BRANCH   8   9
ATOM      9  C   UNL     1       5.203   5.264  16.541  0.00  0.00    +0.000 A 
ATOM     10  C   UNL     1       5.352   4.463  15.410  0.00  0.00    +0.000 A 
ATOM     11  C   UNL     1       6.541   4.528  14.703  0.00  0.00    +0.000 A 
ATOM     12  N   UNL     1       7.561   5.334  15.058  0.00  0.00    +0.000 NA
ATOM     13  N   UNL     1       7.429   6.119  16.154  0.00  0.00    +0.000 NA
ATOM     14  C   UNL     1       6.281   6.079  16.867  0.00  0.00    +0.000 A 
ENDBRANCH   8   9
TORSDOF 1
ENDMDL
MODEL 2
REMARK VINA RESULT:      -6.7      1.134      1.851
REMARK  Name = 
REMARK  2 active torsions:
REMARK  status: ('A' for Active; 'I' for Inactive)
REMARK    1  A    between atoms: C_1  and  N_2
REMARK    2  A    between atoms: C_8  and  C_9
REMARK                            x       y       z     vdW  Elec       q    Type
REMARK                         _______ _______ _______ _____ _____    ______ ____
ROOT
ATOM      1  C   UNL     1       3.616   2.622  20.421  0.00  0.00    +0.000 C 
ATOM      2  N   UNL     1       3.541   3.546  19.300  0.00  0.00    +0.000 NA
ATOM      3  C   UNL     1       3.729   2.944  17.966  0.00  0.00    +0.000 C 
ATOM      4  C   UNL     1       2.433   2.139  17.754  0.00  0.00    +0.000 C 
ATOM      5  C   UNL     1       1.388   2.977  18.504  0.00  0.00    +0.000 C 
ATOM      6  C   UNL     1       2.224   4.144  19.044  0.00  0.00    +0.000 C 
ATOM      7  C   UNL     1       2.610   5.072  17.874  0.00  0.00    +0.000 C 
ATOM      8  C   UNL     1       3.657   4.232  17.096  0.00  0.00    +0.000 C 
ENDROOT
BRANCH   8   9
ATOM      9  C   UNL     1       4.986   4.938  16.914  0.00  0.00    +0.000 A 
ATOM     10  C   UNL     1       5.158   6.257  17.332  0.00  0.00    +0.000 A 
ATOM     11  C   UNL     1       6.391   6.856  17.144  0.00  0.00    +0.000 A 
ATOM     12  N   UNL     1       7.435   6.222  16.575  0.00  0.00    +0.000 NA
ATOM     13  N   UNL     1       7.282   4.939  16.165  0.00  0.00    +0.000 NA
ATOM     14  C   UNL     1       6.090   4.325  16.335  0.00  0.00    +0.000 A 
ENDBRANCH   8   9
TORSDOF 1
ENDMDL
MODEL 3
REMARK VINA RESULT:      -6.7      0.843      1.431
REMARK  Name = 
REMARK  2 active torsions:
REMARK  status: ('A' for Active; 'I' for Inactive)
REMARK    1  A    between atoms: C_1  and  N_2
REMARK    2  A    between atoms: C_8  and  C_9
REMARK                            x       y       z     vdW  Elec       q    Type
REMARK                         _______ _______ _______ _____ _____    ______ ____
ROOT
ATOM      1  C   UNL     1       3.282   1.797  18.483  0.00  0.00    +0.000 C 
ATOM      2  N   UNL     1       3.612   3.212  18.543  0.00  0.00    +0.000 NA
ATOM      3  C   UNL     1       3.003   4.053  17.494  0.00  0.00    +0.000 C 
ATOM      4  C   UNL     1       1.515   4.094  17.891  0.00  0.00    +0.000 C 
ATOM      5  C   UNL     1       1.573   4.023  19.424  0.00  0.00    +0.000 C 
ATOM      6  C   UNL     1       3.080   3.950  19.697  0.00  0.00    +0.000 C 
ATOM      7  C   UNL     1       3.712   5.327  19.408  0.00  0.00    +0.000 C 
ATOM      8  C   UNL     1       3.649   5.420  17.860  0.00  0.00    +0.000 C 
ENDROOT
BRANCH   8   9
ATOM      9  C   UNL     1       4.997   5.668  17.213  0.00  0.00    +0.000 A 
ATOM     10  C   UNL     1       6.082   6.110  17.967  0.00  0.00    +0.000 A 
ATOM     11  C   UNL     1       7.292   6.321  17.328  0.00  0.00    +0.000 A 
ATOM     12  N   UNL     1       7.468   6.117  16.008  0.00  0.00    +0.000 NA
ATOM     13  N   UNL     1       6.422   5.686  15.263  0.00  0.00    +0.000 NA
ATOM     14  C   UNL     1       5.227   5.470  15.857  0.00  0.00    +0.000 A 
ENDBRANCH   8   9
TORSDOF 1
ENDMDL
MODEL 4
REMARK VINA RESULT:      -6.6      1.153      2.132
REMARK  Name = 
REMARK  2 active torsions:
REMARK  status: ('A' for Active; 'I' for Inactive)
REMARK    1  A    between atoms: C_1  and  N_2
REMARK    2  A    between atoms: C_8  and  C_9
REMARK                            x       y       z     vdW  Elec       q    Type
REMARK                         _______ _______ _______ _____ _____    ______ ____
ROOT
ATOM      1  C   UNL     1       2.461   7.026  18.603  0.00  0.00    +0.000 C 
ATOM      2  N   UNL     1       3.067   5.860  17.980  0.00  0.00    +0.000 NA
ATOM      3  C   UNL     1       4.144   5.212  18.753  0.00  0.00    +0.000 C 
ATOM      4  C   UNL     1       3.391   4.548  19.921  0.00  0.00    +0.000 C 
ATOM      5  C   UNL     1       2.043   4.177  19.287  0.00  0.00    +0.000 C 
ATOM      6  C   UNL     1       2.204   4.678  17.847  0.00  0.00    +0.000 C 
ATOM      7  C   UNL     1       3.185   3.753  17.098  0.00  0.00    +0.000 C 
ATOM      8  C   UNL     1       4.554   4.107  17.738  0.00  0.00    +0.000 C 
ENDROOT
BRANCH   8   9
ATOM      9  C   UNL     1       5.600   4.539  16.731  0.00  0.00    +0.000 A 
ATOM     10  C   UNL     1       5.706   3.907  15.493  0.00  0.00    +0.000 A 
ATOM     11  C   UNL     1       6.678   4.340  14.609  0.00  0.00    +0.000 A 
ATOM     12  N   UNL     1       7.527   5.349  14.890  0.00  0.00    +0.000 NA
ATOM     13  N   UNL     1       7.434   5.973  16.088  0.00  0.00    +0.000 NA
ATOM     14  C   UNL     1       6.495   5.574  16.975  0.00  0.00    +0.000 A 
ENDBRANCH   8   9
TORSDOF 1
ENDMDL
MODEL 5
REMARK VINA RESULT:      -6.6      1.117      1.186
REMARK  Name = 
REMARK  2 active torsions:
REMARK  status: ('A' for Active; 'I' for Inactive)
REMARK    1  A    between atoms: C_1  and  N_2
REMARK    2  A    between atoms: C_8  and  C_9
REMARK                            x       y       z     vdW  Elec       q    Type
REMARK                         _______ _______ _______ _____ _____    ______ ____
ROOT
ATOM      1  C   UNL     1       3.758   2.479  20.373  0.00  0.00    +0.000 C 
ATOM      2  N   UNL     1       3.807   3.465  19.305  0.00  0.00    +0.000 NA
ATOM      3  C   UNL     1       3.420   2.976  17.968  0.00  0.00    +0.000 C 
ATOM      4  C   UNL     1       1.898   2.773  18.092  0.00  0.00    +0.000 C 
ATOM      5  C   UNL     1       1.490   3.875  19.080  0.00  0.00    +0.000 C 
ATOM      6  C   UNL     1       2.828   4.557  19.389  0.00  0.00    +0.000 C 
ATOM      7  C   UNL     1       3.276   5.370  18.157  0.00  0.00    +0.000 C 
ATOM      8  C   UNL     1       3.679   4.268  17.141  0.00  0.00    +0.000 C 
ENDROOT
BRANCH   8   9
ATOM      9  C   UNL     1       5.098   4.407  16.628  0.00  0.00    +0.000 A 
ATOM     10  C   UNL     1       5.376   4.339  15.264  0.00  0.00    +0.000 A 
ATOM     11  C   UNL     1       6.689   4.473  14.847  0.00  0.00    +0.000 A 
ATOM     12  N   UNL     1       7.713   4.668  15.702  0.00  0.00    +0.000 NA
ATOM     13  N   UNL     1       7.457   4.738  17.030  0.00  0.00    +0.000 NA
ATOM     14  C   UNL     1       6.185   4.611  17.470  0.00  0.00    +0.000 A 
ENDBRANCH   8   9
TORSDOF 1
ENDMDL
MODEL 6
REMARK VINA RESULT:      -6.4      1.507      4.794
REMARK  Name = 
REMARK  2 active torsions:
REMARK  status: ('A' for Active; 'I' for Inactive)
REMARK    1  A    between atoms: C_1  and  N_2
REMARK    2  A    between atoms: C_8  and  C_9
REMARK                            x       y       z     vdW  Elec       q    Type
REMARK                         _______ _______ _______ _____ _____    ______ ____
ROOT
ATOM      1  C   UNL     1       7.074   4.741  15.396  0.00  0.00    +0.000 C 
ATOM      2  N   UNL     1       6.022   5.136  16.320  0.00  0.00    +0.000 NA
ATOM      3  C   UNL     1       6.184   4.663  17.708  0.00  0.00    +0.000 C 
ATOM      4  C   UNL     1       7.356   5.511  18.237  0.00  0.00    +0.000 C 
ATOM      5  C   UNL     1       7.181   6.837  17.483  0.00  0.00    +0.000 C 
ATOM      6  C   UNL     1       5.938   6.570  16.626  0.00  0.00    +0.000 C 
ATOM      7  C   UNL     1       4.694   6.544  17.537  0.00  0.00    +0.000 C 
ATOM      8  C   UNL     1       4.863   5.213  18.318  0.00  0.00    +0.000 C 
ENDROOT
BRANCH   8   9
ATOM      9  C   UNL     1       3.677   4.279  18.186  0.00  0.00    +0.000 A 
ATOM     10  C   UNL     1       3.817   2.910  18.408  0.00  0.00    +0.000 A 
ATOM     11  C   UNL     1       2.702   2.100  18.275  0.00  0.00    +0.000 A 
ATOM     12  N   UNL     1       1.486   2.576  17.942  0.00  0.00    +0.000 NA
ATOM     13  N   UNL     1       1.335   3.905  17.725  0.00  0.00    +0.000 NA
ATOM     14  C   UNL     1       2.405   4.724  17.846  0.00  0.00    +0.000 A 
ENDBRANCH   8   9
TORSDOF 1
ENDMDL
MODEL 7
REMARK VINA RESULT:      -6.3      1.573      2.123
REMARK  Name = 
REMARK  2 active torsions:
REMARK  status: ('A' for Active; 'I' for Inactive)
REMARK    1  A    between atoms: C_1  and  N_2
REMARK    2  A    between atoms: C_8  and  C_9
REMARK                            x       y       z     vdW  Elec       q    Type
REMARK                         _______ _______ _______ _____ _____    ______ ____
ROOT
ATOM      1  C   UNL     1       2.593   3.374  21.193  0.00  0.00    +0.000 C 
ATOM      2  N   UNL     1       2.851   3.756  19.814  0.00  0.00    +0.000 NA
ATOM      3  C   UNL     1       3.150   2.644  18.891  0.00  0.00    +0.000 C 
ATOM      4  C   UNL     1       1.791   1.937  18.736  0.00  0.00    +0.000 C 
ATOM      5  C   UNL     1       0.791   3.095  18.862  0.00  0.00    +0.000 C 
ATOM      6  C   UNL     1       1.709   4.305  19.071  0.00  0.00    +0.000 C 
ATOM      7  C   UNL     1       2.425   4.632  17.745  0.00  0.00    +0.000 C 
ATOM      8  C   UNL     1       3.432   3.460  17.597  0.00  0.00    +0.000 C 
ENDROOT
BRANCH   8   9
ATOM      9  C   UNL     1       4.869   3.914  17.443  0.00  0.00    +0.000 A 
ATOM     10  C   UNL     1       5.462   4.001  16.185  0.00  0.00    +0.000 A 
ATOM     11  C   UNL     1       6.778   4.422  16.099  0.00  0.00    +0.000 A 
ATOM     12  N   UNL     1       7.514   4.751  17.180  0.00  0.00    +0.000 NA
ATOM     13  N   UNL     1       6.950   4.672  18.409  0.00  0.00    +0.000 NA
ATOM     14  C   UNL     1       5.666   4.265  18.527  0.00  0.00    +0.000 A 
ENDBRANCH   8   9
TORSDOF 1
ENDMDL
MODEL 8
REMARK VINA RESULT:      -6.3      1.289      2.377
REMARK  Name = 
REMARK  2 active torsions:
REMARK  status: ('A' for Active; 'I' for Inactive)
REMARK    1  A    between atoms: C_1  and  N_2
REMARK    2  A    between atoms: C_8  and  C_9
REMARK                            x       y       z     vdW  Elec       q    Type
REMARK                         _______ _______ _______ _____ _____    ______ ____
ROOT
ATOM      1  C   UNL     1       2.166   5.315  20.302  0.00  0.00    +0.000 C 
ATOM      2  N   UNL     1       2.742   4.759  19.088  0.00  0.00    +0.000 NA
ATOM      3  C   UNL     1       3.769   3.718  19.289  0.00  0.00    +0.000 C 
ATOM      4  C   UNL     1       2.955   2.511  19.792  0.00  0.00    +0.000 C 
ATOM      5  C   UNL     1       1.613   2.682  19.068  0.00  0.00    +0.000 C 
ATOM      6  C   UNL     1       1.837   3.960  18.251  0.00  0.00    +0.000 C 
ATOM      7  C   UNL     1       2.801   3.653  17.087  0.00  0.00    +0.000 C 
ATOM      8  C   UNL     1       4.163   3.463  17.806  0.00  0.00    +0.000 C 
ENDROOT
BRANCH   8   9
ATOM      9  C   UNL     1       5.255   4.375  17.284  0.00  0.00    +0.000 A 
ATOM     10  C   UNL     1       6.372   4.673  18.063  0.00  0.00    +0.000 A 
ATOM     11  C   UNL     1       7.341   5.511  17.539  0.00  0.00    +0.000 A 
ATOM     12  N   UNL     1       7.255   6.051  16.308  0.00  0.00    +0.000 NA
ATOM     13  N   UNL     1       6.176   5.769  15.539  0.00  0.00    +0.000 NA
ATOM     14  C   UNL     1       5.211   4.953  16.021  0.00  0.00    +0.000 A 
ENDBRANCH   8   9
TORSDOF 1
ENDMDL
MODEL 9
REMARK VINA RESULT:      -6.3      1.244      1.619
REMARK  Name = 
REMARK  2 active torsions:
REMARK  status: ('A' for Active; 'I' for Inactive)
REMARK    1  A    between atoms: C_1  and  N_2
REMARK    2  A    between atoms: C_8  and  C_9
REMARK                            x       y       z     vdW  Elec       q    Type
REMARK                         _______ _______ _______ _____ _____    ______ ____
ROOT
ATOM      1  C   UNL     1       1.442   4.010  17.731  0.00  0.00    +0.000 C 
ATOM      2  N   UNL     1       2.825   4.246  18.116  0.00  0.00    +0.000 NA
ATOM      3  C   UNL     1       3.257   5.657  18.106  0.00  0.00    +0.000 C 
ATOM      4  C   UNL     1       2.520   6.262  19.316  0.00  0.00    +0.000 C 
ATOM      5  C   UNL     1       2.457   5.082  20.297  0.00  0.00    +0.000 C 
ATOM      6  C   UNL     1       3.161   3.965  19.518  0.00  0.00    +0.000 C 
ATOM      7  C   UNL     1       4.673   4.264  19.462  0.00  0.00    +0.000 C 
ATOM      8  C   UNL     1       4.753   5.466  18.483  0.00  0.00    +0.000 C 
ENDROOT
BRANCH   8   9
ATOM      9  C   UNL     1       5.671   5.224  17.302  0.00  0.00    +0.000 A 
ATOM     10  C   UNL     1       5.237   5.463  15.999  0.00  0.00    +0.000 A 
ATOM     11  C   UNL     1       6.114   5.227  14.954  0.00  0.00    +0.000 A 
ATOM     12  N   UNL     1       7.371   4.776  15.141  0.00  0.00    +0.000 NA
ATOM     13  N   UNL     1       7.805   4.540  16.402  0.00  0.00    +0.000 NA
ATOM     14  C   UNL     1       6.973   4.761  17.445  0.00  0.00    +0.000 A 
ENDBRANCH   8   9
TORSDOF 1
ENDMDL
