MODEL 1
REMARK VINA RESULT:      -8.2      0.000      0.000
REMARK  Name = 
REMARK  8 active torsions:
REMARK  status: ('A' for Active; 'I' for Inactive)
REMARK    1  A    between atoms: C_1  and  O_2
REMARK    2  A    between atoms: O_2  and  C_3
REMARK    3  A    between atoms: C_6  and  C_7
REMARK    4  A    between atoms: C_7  and  N_8
REMARK    5  A    between atoms: C_20  and  S_21
REMARK    6  A    between atoms: S_21  and  N_24
REMARK    7  A    between atoms: N_24  and  C_25
REMARK    8  A    between atoms: C_30  and  C_31
REMARK                            x       y       z     vdW  Elec       q    Type
REMARK                         _______ _______ _______ _____ _____    ______ ____
ROOT
ATOM      1  C   UNL     1       1.417   9.355  19.130  0.00  0.00    +0.000 A 
ATOM      2  C   UNL     1       2.026   8.657  18.075  0.00  0.00    +0.000 A 
ATOM      3  C   UNL     1       2.572   7.385  18.267  0.00  0.00    +0.000 A 
ATOM      4  C   UNL     1       2.509   6.768  19.517  0.00  0.00    +0.000 A 
ATOM      5  C   UNL     1       1.833   7.423  20.555  0.00  0.00    +0.000 A 
ATOM      6  C   UNL     1       1.299   8.713  20.369  0.00  0.00    +0.000 A 
ENDROOT
BRANCH   6   7
ATOM      7  S   UNL     1       0.443   9.454  21.743  0.00  0.00    +0.000 S 
ATOM      8  O   UNL     1      -0.728   8.652  22.030  0.00  0.00    +0.000 OA
ATOM      9  O   UNL     1       1.406   9.736  22.788  0.00  0.00    +0.000 OA
BRANCH   7  10
ATOM     10  N   UNL     1      -0.130  10.947  21.182  0.00  0.00    +0.000 NA
ATOM     11  H   UNL     1       0.093  11.001  20.189  0.00  0.00    +0.000 HD
BRANCH  10  12
ATOM     12  C   UNL     1      -1.474  11.427  21.589  0.00  0.00    +0.000 C 
ATOM     13  C   UNL     1      -1.408  12.203  22.912  0.00  0.00    +0.000 C 
ATOM     14  C   UNL     1      -0.609  13.497  22.775  0.00  0.00    +0.000 C 
ATOM     15  C   UNL     1      -1.230  14.406  21.723  0.00  0.00    +0.000 C 
ATOM     16  C   UNL     1      -1.378  13.699  20.378  0.00  0.00    +0.000 C 
ATOM     17  C   UNL     1      -2.091  12.342  20.496  0.00  0.00    +0.000 C 
ATOM     18  C   UNL     1      -2.187  11.675  19.121  0.00  0.00    +0.000 C 
ENDBRANCH  10  12
ENDBRANCH   7  10
ENDBRANCH   6   7
BRANCH   1  20
ATOM     19  C   UNL     1       1.853  11.590  18.471  0.00  0.00    +0.000 C 
ATOM     20  O   UNL     1       0.934  10.628  18.986  0.00  0.00    +0.000 OA
ENDBRANCH   1  20
BRANCH   4  21
ATOM     21  C   UNL     1       3.119   5.402  19.726  0.00  0.00    +0.000 C 
BRANCH  21  22
ATOM     22  N   UNL     1       4.029   5.059  18.661  0.00  0.00    +0.000 N 
ATOM     23  C   UNL     1       3.641   4.500  17.476  0.00  0.00    +0.000 C 
ATOM     24  O   UNL     1       2.534   4.155  17.112  0.00  0.00    +0.000 OA
ATOM     25  C   UNL     1       4.844   4.370  16.664  0.00  0.00    +0.000 A 
ATOM     26  C   UNL     1       5.047   3.898  15.385  0.00  0.00    +0.000 A 
ATOM     27  C   UNL     1       6.358   3.942  14.909  0.00  0.00    +0.000 A 
ATOM     28  C   UNL     1       7.374   4.450  15.730  0.00  0.00    +0.000 A 
ATOM     29  N   UNL     1       7.182   4.906  16.990  0.00  0.00    +0.000 NA
ATOM     30  C   UNL     1       5.901   4.846  17.404  0.00  0.00    +0.000 A 
ATOM     31  C   UNL     1       5.380   5.284  18.703  0.00  0.00    +0.000 C 
ATOM     32  O   UNL     1       6.031   5.743  19.626  0.00  0.00    +0.000 OA
ENDBRANCH  21  22
ENDBRANCH   4  21
TORSDOF 6
ENDMDL
MODEL 2
REMARK VINA RESULT:      -8.1      1.052      1.503
REMARK  Name = 
REMARK  8 active torsions:
REMARK  status: ('A' for Active; 'I' for Inactive)
REMARK    1  A    between atoms: C_1  and  O_2
REMARK    2  A    between atoms: O_2  and  C_3
REMARK    3  A    between atoms: C_6  and  C_7
REMARK    4  A    between atoms: C_7  and  N_8
REMARK    5  A    between atoms: C_20  and  S_21
REMARK    6  A    between atoms: S_21  and  N_24
REMARK    7  A    between atoms: N_24  and  C_25
REMARK    8  A    between atoms: C_30  and  C_31
REMARK                            x       y       z     vdW  Elec       q    Type
REMARK                         _______ _______ _______ _____ _____    ______ ____
ROOT
ATOM      1  C   UNL     1       1.266   9.114  18.764  0.00  0.00    +0.000 A 
ATOM      2  C   UNL     1       1.930   8.510  17.685  0.00  0.00    +0.000 A 
ATOM      3  C   UNL     1       2.756   7.399  17.872  0.00  0.00    +0.000 A 
ATOM      4  C   UNL     1       2.931   6.851  19.143  0.00  0.00    +0.000 A 
ATOM      5  C   UNL     1       2.210   7.398  20.213  0.00  0.00    +0.000 A 
ATOM      6  C   UNL     1       1.391   8.529  20.030  0.00  0.00    +0.000 A 
ENDROOT
BRANCH   6   7
ATOM      7  S   UNL     1       0.503   9.138  21.448  0.00  0.00    +0.000 S 
ATOM      8  O   UNL     1      -0.624   8.261  21.686  0.00  0.00    +0.000 OA
ATOM      9  O   UNL     1       1.454   9.404  22.509  0.00  0.00    +0.000 OA
BRANCH   7  10
ATOM     10  N   UNL     1      -0.147  10.632  20.982  0.00  0.00    +0.000 NA
ATOM     11  H   UNL     1      -1.127  10.474  20.748  0.00  0.00    +0.000 HD
BRANCH  10  12
ATOM     12  C   UNL     1       0.160  11.854  21.766  0.00  0.00    +0.000 C 
ATOM     13  C   UNL     1       0.849  12.913  20.895  0.00  0.00    +0.000 C 
ATOM     14  C   UNL     1      -0.074  13.435  19.796  0.00  0.00    +0.000 C 
ATOM     15  C   UNL     1      -1.328  14.057  20.394  0.00  0.00    +0.000 C 
ATOM     16  C   UNL     1      -2.059  13.084  21.317  0.00  0.00    +0.000 C 
ATOM     17  C   UNL     1      -1.133  12.462  22.376  0.00  0.00    +0.000 C 
ATOM     18  C   UNL     1      -1.918  11.481  23.252  0.00  0.00    +0.000 C 
ENDBRANCH  10  12
ENDBRANCH   7  10
ENDBRANCH   6   7
BRANCH   1  20
ATOM     19  C   UNL     1      -0.653  10.113  17.795  0.00  0.00    +0.000 C 
ATOM     20  O   UNL     1       0.504  10.242  18.620  0.00  0.00    +0.000 OA
ENDBRANCH   1  20
BRANCH   4  21
ATOM     21  C   UNL     1       3.842   5.664  19.345  0.00  0.00    +0.000 C 
BRANCH  21  22
ATOM     22  N   UNL     1       4.562   5.337  18.138  0.00  0.00    +0.000 N 
ATOM     23  C   UNL     1       4.089   4.497  17.170  0.00  0.00    +0.000 C 
ATOM     24  O   UNL     1       3.056   3.857  17.142  0.00  0.00    +0.000 OA
ATOM     25  C   UNL     1       5.085   4.486  16.106  0.00  0.00    +0.000 A 
ATOM     26  C   UNL     1       5.126   3.841  14.889  0.00  0.00    +0.000 A 
ATOM     27  C   UNL     1       6.250   4.083  14.098  0.00  0.00    +0.000 A 
ATOM     28  C   UNL     1       7.252   4.943  14.566  0.00  0.00    +0.000 A 
ATOM     29  N   UNL     1       7.221   5.572  15.765  0.00  0.00    +0.000 NA
ATOM     30  C   UNL     1       6.116   5.311  16.491  0.00  0.00    +0.000 A 
ATOM     31  C   UNL     1       5.787   5.856  17.812  0.00  0.00    +0.000 C 
ATOM     32  O   UNL     1       6.479   6.609  18.475  0.00  0.00    +0.000 OA
ENDBRANCH  21  22
ENDBRANCH   4  21
TORSDOF 6
ENDMDL
MODEL 3
REMARK VINA RESULT:      -7.8      2.097      3.166
REMARK  Name = 
REMARK  8 active torsions:
REMARK  status: ('A' for Active; 'I' for Inactive)
REMARK    1  A    between atoms: C_1  and  O_2
REMARK    2  A    between atoms: O_2  and  C_3
REMARK    3  A    between atoms: C_6  and  C_7
REMARK    4  A    between atoms: C_7  and  N_8
REMARK    5  A    between atoms: C_20  and  S_21
REMARK    6  A    between atoms: S_21  and  N_24
REMARK    7  A    between atoms: N_24  and  C_25
REMARK    8  A    between atoms: C_30  and  C_31
REMARK                            x       y       z     vdW  Elec       q    Type
REMARK                         _______ _______ _______ _____ _____    ______ ____
ROOT
ATOM      1  C   UNL     1       0.426   9.178  20.884  0.00  0.00    +0.000 A 
ATOM      2  C   UNL     1       1.131   8.009  21.210  0.00  0.00    +0.000 A 
ATOM      3  C   UNL     1       1.971   7.388  20.283  0.00  0.00    +0.000 A 
ATOM      4  C   UNL     1       2.143   7.928  19.007  0.00  0.00    +0.000 A 
ATOM      5  C   UNL     1       1.506   9.137  18.701  0.00  0.00    +0.000 A 
ATOM      6  C   UNL     1       0.644   9.755  19.627  0.00  0.00    +0.000 A 
ENDROOT
BRANCH   6   7
ATOM      7  S   UNL     1      -0.105  11.298  19.149  0.00  0.00    +0.000 S 
ATOM      8  O   UNL     1       0.886  12.080  18.439  0.00  0.00    +0.000 OA
ATOM      9  O   UNL     1      -1.387  11.019  18.534  0.00  0.00    +0.000 OA
BRANCH   7  10
ATOM     10  N   UNL     1      -0.419  12.128  20.593  0.00  0.00    +0.000 NA
ATOM     11  H   UNL     1       0.481  12.335  21.023  0.00  0.00    +0.000 HD
BRANCH  10  12
ATOM     12  C   UNL     1      -1.435  13.210  20.622  0.00  0.00    +0.000 C 
ATOM     13  C   UNL     1      -2.696  12.767  21.377  0.00  0.00    +0.000 C 
ATOM     14  C   UNL     1      -2.416  12.520  22.858  0.00  0.00    +0.000 C 
ATOM     15  C   UNL     1      -1.884  13.781  23.524  0.00  0.00    +0.000 C 
ATOM     16  C   UNL     1      -0.649  14.323  22.809  0.00  0.00    +0.000 C 
ATOM     17  C   UNL     1      -0.865  14.489  21.295  0.00  0.00    +0.000 C 
ATOM     18  C   UNL     1       0.414  15.011  20.634  0.00  0.00    +0.000 C 
ENDBRANCH  10  12
ENDBRANCH   7  10
ENDBRANCH   6   7
BRANCH   1  20
ATOM     19  C   UNL     1      -0.171   9.607  23.138  0.00  0.00    +0.000 C 
ATOM     20  O   UNL     1      -0.454   9.770  21.749  0.00  0.00    +0.000 OA
ENDBRANCH   1  20
BRANCH   4  21
ATOM     21  C   UNL     1       3.036   7.241  18.001  0.00  0.00    +0.000 C 
BRANCH  21  22
ATOM     22  N   UNL     1       3.202   5.841  18.307  0.00  0.00    +0.000 N 
ATOM     23  C   UNL     1       2.307   4.871  17.954  0.00  0.00    +0.000 C 
ATOM     24  O   UNL     1       1.236   4.978  17.388  0.00  0.00    +0.000 OA
ATOM     25  C   UNL     1       2.874   3.602  18.393  0.00  0.00    +0.000 A 
ATOM     26  C   UNL     1       2.425   2.304  18.284  0.00  0.00    +0.000 A 
ATOM     27  C   UNL     1       3.255   1.314  18.812  0.00  0.00    +0.000 A 
ATOM     28  C   UNL     1       4.469   1.678  19.410  0.00  0.00    +0.000 A 
ATOM     29  N   UNL     1       4.911   2.953  19.528  0.00  0.00    +0.000 NA
ATOM     30  C   UNL     1       4.078   3.872  19.002  0.00  0.00    +0.000 A 
ATOM     31  C   UNL     1       4.290   5.322  18.958  0.00  0.00    +0.000 C 
ATOM     32  O   UNL     1       5.241   5.927  19.420  0.00  0.00    +0.000 OA
ENDBRANCH  21  22
ENDBRANCH   4  21
TORSDOF 6
ENDMDL
MODEL 4
REMARK VINA RESULT:      -7.7      0.613      1.587
REMARK  Name = 
REMARK  8 active torsions:
REMARK  status: ('A' for Active; 'I' for Inactive)
REMARK    1  A    between atoms: C_1  and  O_2
REMARK    2  A    between atoms: O_2  and  C_3
REMARK    3  A    between atoms: C_6  and  C_7
REMARK    4  A    between atoms: C_7  and  N_8
REMARK    5  A    between atoms: C_20  and  S_21
REMARK    6  A    between atoms: S_21  and  N_24
REMARK    7  A    between atoms: N_24  and  C_25
REMARK    8  A    between atoms: C_30  and  C_31
REMARK                            x       y       z     vdW  Elec       q    Type
REMARK                         _______ _______ _______ _____ _____    ______ ____
ROOT
ATOM      1  C   UNL     1       1.359   9.483  19.330  0.00  0.00    +0.000 A 
ATOM      2  C   UNL     1       1.932   8.802  18.245  0.00  0.00    +0.000 A 
ATOM      3  C   UNL     1       2.432   7.505  18.385  0.00  0.00    +0.000 A 
ATOM      4  C   UNL     1       2.361   6.846  19.613  0.00  0.00    +0.000 A 
ATOM      5  C   UNL     1       1.720   7.488  20.681  0.00  0.00    +0.000 A 
ATOM      6  C   UNL     1       1.231   8.803  20.547  0.00  0.00    +0.000 A 
ENDROOT
BRANCH   6   7
ATOM      7  S   UNL     1       0.418   9.525  21.956  0.00  0.00    +0.000 S 
ATOM      8  O   UNL     1      -0.803   8.785  22.200  0.00  0.00    +0.000 OA
ATOM      9  O   UNL     1       1.392   9.690  23.016  0.00  0.00    +0.000 OA
BRANCH   7  10
ATOM     10  N   UNL     1      -0.056  11.078  21.473  0.00  0.00    +0.000 NA
ATOM     11  H   UNL     1       0.246  11.198  20.506  0.00  0.00    +0.000 HD
BRANCH  10  12
ATOM     12  C   UNL     1      -1.411  11.581  21.813  0.00  0.00    +0.000 C 
ATOM     13  C   UNL     1      -1.366  12.515  23.029  0.00  0.00    +0.000 C 
ATOM     14  C   UNL     1      -0.590  13.797  22.735  0.00  0.00    +0.000 C 
ATOM     15  C   UNL     1      -1.221  14.557  21.577  0.00  0.00    +0.000 C 
ATOM     16  C   UNL     1      -1.348  13.686  20.329  0.00  0.00    +0.000 C 
ATOM     17  C   UNL     1      -2.038  12.341  20.612  0.00  0.00    +0.000 C 
ATOM     18  C   UNL     1      -2.115  11.507  19.330  0.00  0.00    +0.000 C 
ENDBRANCH  10  12
ENDBRANCH   7  10
ENDBRANCH   6   7
BRANCH   1  20
ATOM     19  C   UNL     1       1.781  11.679  18.541  0.00  0.00    +0.000 C 
ATOM     20  O   UNL     1       0.922  10.777  19.237  0.00  0.00    +0.000 OA
ENDBRANCH   1  20
BRANCH   4  21
ATOM     21  C   UNL     1       2.923   5.453  19.767  0.00  0.00    +0.000 C 
BRANCH  21  22
ATOM     22  N   UNL     1       3.855   5.138  18.711  0.00  0.00    +0.000 N 
ATOM     23  C   UNL     1       5.203   5.342  18.796  0.00  0.00    +0.000 C 
ATOM     24  O   UNL     1       5.852   5.840  19.695  0.00  0.00    +0.000 OA
ATOM     25  C   UNL     1       5.778   4.839  17.556  0.00  0.00    +0.000 A 
ATOM     26  C   UNL     1       7.079   4.766  17.106  0.00  0.00    +0.000 A 
ATOM     27  C   UNL     1       7.268   4.191  15.848  0.00  0.00    +0.000 A 
ATOM     28  C   UNL     1       6.159   3.730  15.126  0.00  0.00    +0.000 A 
ATOM     29  N   UNL     1       4.879   3.808  15.559  0.00  0.00    +0.000 NA
ATOM     30  C   UNL     1       4.747   4.367  16.778  0.00  0.00    +0.000 A 
ATOM     31  C   UNL     1       3.497   4.568  17.518  0.00  0.00    +0.000 C 
ATOM     32  O   UNL     1       2.375   4.288  17.131  0.00  0.00    +0.000 OA
ENDBRANCH  21  22
ENDBRANCH   4  21
TORSDOF 6
ENDMDL
MODEL 5
REMARK VINA RESULT:      -7.6      3.487      5.278
REMARK  Name = 
REMARK  8 active torsions:
REMARK  status: ('A' for Active; 'I' for Inactive)
REMARK    1  A    between atoms: C_1  and  O_2
REMARK    2  A    between atoms: O_2  and  C_3
REMARK    3  A    between atoms: C_6  and  C_7
REMARK    4  A    between atoms: C_7  and  N_8
REMARK    5  A    between atoms: C_20  and  S_21
REMARK    6  A    between atoms: S_21  and  N_24
REMARK    7  A    between atoms: N_24  and  C_25
REMARK    8  A    between atoms: C_30  and  C_31
REMARK                            x       y       z     vdW  Elec       q    Type
REMARK                         _______ _______ _______ _____ _____    ______ ____
ROOT
ATOM      1  C   UNL     1      -2.757  11.327  18.394  0.00  0.00    +0.000 A 
ATOM      2  C   UNL     1      -1.988  10.452  17.612  0.00  0.00    +0.000 A 
ATOM      3  C   UNL     1      -0.663  10.157  17.944  0.00  0.00    +0.000 A 
ATOM      4  C   UNL     1      -0.074  10.719  19.078  0.00  0.00    +0.000 A 
ATOM      5  C   UNL     1      -0.859  11.531  19.907  0.00  0.00    +0.000 A 
ATOM      6  C   UNL     1      -2.189  11.844  19.564  0.00  0.00    +0.000 A 
ENDROOT
BRANCH   6   7
ATOM      7  S   UNL     1      -3.108  12.870  20.692  0.00  0.00    +0.000 S 
ATOM      8  O   UNL     1      -2.966  12.317  22.023  0.00  0.00    +0.000 OA
ATOM      9  O   UNL     1      -2.765  14.255  20.440  0.00  0.00    +0.000 OA
BRANCH   7  10
ATOM     10  N   UNL     1      -4.738  12.679  20.270  0.00  0.00    +0.000 NA
ATOM     11  H   UNL     1      -4.777  11.979  19.529  0.00  0.00    +0.000 HD
BRANCH  10  12
ATOM     12  C   UNL     1      -5.774  12.585  21.329  0.00  0.00    +0.000 C 
ATOM     13  C   UNL     1      -5.993  13.942  22.011  0.00  0.00    +0.000 C 
ATOM     14  C   UNL     1      -6.579  14.975  21.051  0.00  0.00    +0.000 C 
ATOM     15  C   UNL     1      -7.915  14.501  20.497  0.00  0.00    +0.000 C 
ATOM     16  C   UNL     1      -7.802  13.130  19.836  0.00  0.00    +0.000 C 
ATOM     17  C   UNL     1      -7.124  12.089  20.742  0.00  0.00    +0.000 C 
ATOM     18  C   UNL     1      -7.020  10.745  20.015  0.00  0.00    +0.000 C 
ENDBRANCH  10  12
ENDBRANCH   7  10
ENDBRANCH   6   7
BRANCH   1  20
ATOM     19  C   UNL     1      -4.430  11.394  16.715  0.00  0.00    +0.000 C 
ATOM     20  O   UNL     1      -4.035  11.684  18.055  0.00  0.00    +0.000 OA
ENDBRANCH   1  20
BRANCH   4  21
ATOM     21  C   UNL     1       1.365  10.416  19.421  0.00  0.00    +0.000 C 
BRANCH  21  22
ATOM     22  N   UNL     1       1.628   8.997  19.397  0.00  0.00    +0.000 N 
ATOM     23  C   UNL     1       2.155   8.337  18.324  0.00  0.00    +0.000 C 
ATOM     24  O   UNL     1       2.448   8.763  17.224  0.00  0.00    +0.000 OA
ATOM     25  C   UNL     1       2.317   6.946  18.730  0.00  0.00    +0.000 A 
ATOM     26  C   UNL     1       2.817   5.845  18.069  0.00  0.00    +0.000 A 
ATOM     27  C   UNL     1       2.841   4.649  18.788  0.00  0.00    +0.000 A 
ATOM     28  C   UNL     1       2.369   4.627  20.108  0.00  0.00    +0.000 A 
ATOM     29  N   UNL     1       1.868   5.704  20.758  0.00  0.00    +0.000 NA
ATOM     30  C   UNL     1       1.868   6.835  20.025  0.00  0.00    +0.000 A 
ATOM     31  C   UNL     1       1.411   8.159  20.459  0.00  0.00    +0.000 C 
ATOM     32  O   UNL     1       0.929   8.438  21.543  0.00  0.00    +0.000 OA
ENDBRANCH  21  22
ENDBRANCH   4  21
TORSDOF 6
ENDMDL
MODEL 6
REMARK VINA RESULT:      -7.6      2.242      9.164
REMARK  Name = 
REMARK  8 active torsions:
REMARK  status: ('A' for Active; 'I' for Inactive)
REMARK    1  A    between atoms: C_1  and  O_2
REMARK    2  A    between atoms: O_2  and  C_3
REMARK    3  A    between atoms: C_6  and  C_7
REMARK    4  A    between atoms: C_7  and  N_8
REMARK    5  A    between atoms: C_20  and  S_21
REMARK    6  A    between atoms: S_21  and  N_24
REMARK    7  A    between atoms: N_24  and  C_25
REMARK    8  A    between atoms: C_30  and  C_31
REMARK                            x       y       z     vdW  Elec       q    Type
REMARK                         _______ _______ _______ _____ _____    ______ ____
ROOT
ATOM      1  C   UNL     1       2.166   5.821  20.334  0.00  0.00    +0.000 A 
ATOM      2  C   UNL     1       1.550   6.960  20.876  0.00  0.00    +0.000 A 
ATOM      3  C   UNL     1       1.468   8.153  20.154  0.00  0.00    +0.000 A 
ATOM      4  C   UNL     1       1.986   8.237  18.861  0.00  0.00    +0.000 A 
ATOM      5  C   UNL     1       2.531   7.084  18.282  0.00  0.00    +0.000 A 
ATOM      6  C   UNL     1       2.632   5.885  19.014  0.00  0.00    +0.000 A 
ENDROOT
BRANCH   6   7
ATOM      7  S   UNL     1       3.324   4.470  18.184  0.00  0.00    +0.000 S 
ATOM      8  O   UNL     1       3.953   3.627  19.179  0.00  0.00    +0.000 OA
ATOM      9  O   UNL     1       2.320   3.921  17.295  0.00  0.00    +0.000 OA
BRANCH   7  10
ATOM     10  N   UNL     1       4.573   5.070  17.209  0.00  0.00    +0.000 NA
ATOM     11  H   UNL     1       4.692   6.055  17.444  0.00  0.00    +0.000 HD
BRANCH  10  12
ATOM     12  C   UNL     1       5.814   4.277  17.020  0.00  0.00    +0.000 C 
ATOM     13  C   UNL     1       5.729   3.408  15.758  0.00  0.00    +0.000 C 
ATOM     14  C   UNL     1       5.667   4.253  14.488  0.00  0.00    +0.000 C 
ATOM     15  C   UNL     1       6.897   5.142  14.369  0.00  0.00    +0.000 C 
ATOM     16  C   UNL     1       7.087   6.015  15.607  0.00  0.00    +0.000 C 
ATOM     17  C   UNL     1       7.055   5.205  16.914  0.00  0.00    +0.000 C 
ATOM     18  C   UNL     1       7.228   6.137  18.117  0.00  0.00    +0.000 C 
ENDBRANCH  10  12
ENDBRANCH   7  10
ENDBRANCH   6   7
BRANCH   1  20
ATOM     19  C   UNL     1       1.213   3.759  21.012  0.00  0.00    +0.000 C 
ATOM     20  O   UNL     1       2.319   4.660  21.043  0.00  0.00    +0.000 OA
ENDBRANCH   1  20
BRANCH   4  21
ATOM     21  C   UNL     1       1.915   9.535  18.093  0.00  0.00    +0.000 C 
BRANCH  21  22
ATOM     22  N   UNL     1       0.771  10.322  18.485  0.00  0.00    +0.000 N 
ATOM     23  C   UNL     1      -0.492  10.126  18.003  0.00  0.00    +0.000 C 
ATOM     24  O   UNL     1      -0.885   9.336  17.167  0.00  0.00    +0.000 OA
ATOM     25  C   UNL     1      -1.352  11.080  18.691  0.00  0.00    +0.000 A 
ATOM     26  C   UNL     1      -2.708  11.317  18.621  0.00  0.00    +0.000 A 
ATOM     27  C   UNL     1      -3.207  12.316  19.458  0.00  0.00    +0.000 A 
ATOM     28  C   UNL     1      -2.330  13.010  20.304  0.00  0.00    +0.000 A 
ATOM     29  N   UNL     1      -0.996  12.788  20.370  0.00  0.00    +0.000 NA
ATOM     30  C   UNL     1      -0.562  11.813  19.547  0.00  0.00    +0.000 A 
ATOM     31  C   UNL     1       0.816  11.333  19.409  0.00  0.00    +0.000 C 
ATOM     32  O   UNL     1       1.793  11.763  19.997  0.00  0.00    +0.000 OA
ENDBRANCH  21  22
ENDBRANCH   4  21
TORSDOF 6
ENDMDL
MODEL 7
REMARK VINA RESULT:      -7.6      2.178      9.276
REMARK  Name = 
REMARK  8 active torsions:
REMARK  status: ('A' for Active; 'I' for Inactive)
REMARK    1  A    between atoms: C_1  and  O_2
REMARK    2  A    between atoms: O_2  and  C_3
REMARK    3  A    between atoms: C_6  and  C_7
REMARK    4  A    between atoms: C_7  and  N_8
REMARK    5  A    between atoms: C_20  and  S_21
REMARK    6  A    between atoms: S_21  and  N_24
REMARK    7  A    between atoms: N_24  and  C_25
REMARK    8  A    between atoms: C_30  and  C_31
REMARK                            x       y       z     vdW  Elec       q    Type
REMARK                         _______ _______ _______ _____ _____    ______ ____
ROOT
ATOM      1  C   UNL     1       2.185   5.639  20.282  0.00  0.00    +0.000 A 
ATOM      2  C   UNL     1       1.727   6.785  20.950  0.00  0.00    +0.000 A 
ATOM      3  C   UNL     1       1.603   8.009  20.288  0.00  0.00    +0.000 A 
ATOM      4  C   UNL     1       1.920   8.119  18.934  0.00  0.00    +0.000 A 
ATOM      5  C   UNL     1       2.302   6.963  18.240  0.00  0.00    +0.000 A 
ATOM      6  C   UNL     1       2.446   5.732  18.909  0.00  0.00    +0.000 A 
ENDROOT
BRANCH   6   7
ATOM      7  S   UNL     1       2.919   4.318  17.936  0.00  0.00    +0.000 S 
ATOM      8  O   UNL     1       3.445   3.310  18.832  0.00  0.00    +0.000 OA
ATOM      9  O   UNL     1       1.833   3.994  17.034  0.00  0.00    +0.000 OA
BRANCH   7  10
ATOM     10  N   UNL     1       4.221   4.829  16.979  0.00  0.00    +0.000 NA
ATOM     11  H   UNL     1       4.345   5.827  17.147  0.00  0.00    +0.000 HD
BRANCH  10  12
ATOM     12  C   UNL     1       5.456   4.008  16.904  0.00  0.00    +0.000 C 
ATOM     13  C   UNL     1       5.708   3.516  15.473  0.00  0.00    +0.000 C 
ATOM     14  C   UNL     1       6.006   4.669  14.517  0.00  0.00    +0.000 C 
ATOM     15  C   UNL     1       7.233   5.446  14.974  0.00  0.00    +0.000 C 
ATOM     16  C   UNL     1       7.089   5.939  16.412  0.00  0.00    +0.000 C 
ATOM     17  C   UNL     1       6.690   4.818  17.386  0.00  0.00    +0.000 C 
ATOM     18  C   UNL     1       6.540   5.380  18.804  0.00  0.00    +0.000 C 
ENDBRANCH  10  12
ENDBRANCH   7  10
ENDBRANCH   6   7
BRANCH   1  20
ATOM     19  C   UNL     1       1.216   3.635  21.099  0.00  0.00    +0.000 C 
ATOM     20  O   UNL     1       2.379   4.444  20.921  0.00  0.00    +0.000 OA
ENDBRANCH   1  20
BRANCH   4  21
ATOM     21  C   UNL     1       1.805   9.449  18.228  0.00  0.00    +0.000 C 
BRANCH  21  22
ATOM     22  N   UNL     1       0.636  10.177  18.654  0.00  0.00    +0.000 N 
ATOM     23  C   UNL     1       0.631  11.082  19.678  0.00  0.00    +0.000 C 
ATOM     24  O   UNL     1       1.534  11.408  20.424  0.00  0.00    +0.000 OA
ATOM     25  C   UNL     1      -0.718  11.629  19.743  0.00  0.00    +0.000 A 
ATOM     26  C   UNL     1      -1.287  12.584  20.557  0.00  0.00    +0.000 A 
ATOM     27  C   UNL     1      -2.630  12.882  20.318  0.00  0.00    +0.000 A 
ATOM     28  C   UNL     1      -3.313  12.214  19.292  0.00  0.00    +0.000 A 
ATOM     29  N   UNL     1      -2.761  11.269  18.496  0.00  0.00    +0.000 NA
ATOM     30  C   UNL     1      -1.464  11.018  18.762  0.00  0.00    +0.000 A 
ATOM     31  C   UNL     1      -0.594  10.069  18.061  0.00  0.00    +0.000 C 
ATOM     32  O   UNL     1      -0.918   9.333  17.145  0.00  0.00    +0.000 OA
ENDBRANCH  21  22
ENDBRANCH   4  21
TORSDOF 6
ENDMDL
MODEL 8
REMARK VINA RESULT:      -7.6      2.475      3.766
REMARK  Name = 
REMARK  8 active torsions:
REMARK  status: ('A' for Active; 'I' for Inactive)
REMARK    1  A    between atoms: C_1  and  O_2
REMARK    2  A    between atoms: O_2  and  C_3
REMARK    3  A    between atoms: C_6  and  C_7
REMARK    4  A    between atoms: C_7  and  N_8
REMARK    5  A    between atoms: C_20  and  S_21
REMARK    6  A    between atoms: S_21  and  N_24
REMARK    7  A    between atoms: N_24  and  C_25
REMARK    8  A    between atoms: C_30  and  C_31
REMARK                            x       y       z     vdW  Elec       q    Type
REMARK                         _______ _______ _______ _____ _____    ______ ____
ROOT
ATOM      1  C   UNL     1       0.414   8.995  21.103  0.00  0.00    +0.000 A 
ATOM      2  C   UNL     1       1.038   7.761  21.344  0.00  0.00    +0.000 A 
ATOM      3  C   UNL     1       1.882   7.179  20.396  0.00  0.00    +0.000 A 
ATOM      4  C   UNL     1       2.138   7.821  19.184  0.00  0.00    +0.000 A 
ATOM      5  C   UNL     1       1.583   9.089  18.968  0.00  0.00    +0.000 A 
ATOM      6  C   UNL     1       0.717   9.670  19.914  0.00  0.00    +0.000 A 
ENDROOT
BRANCH   6   7
ATOM      7  S   UNL     1       0.076  11.292  19.555  0.00  0.00    +0.000 S 
ATOM      8  O   UNL     1       0.181  12.095  20.756  0.00  0.00    +0.000 OA
ATOM      9  O   UNL     1       0.666  11.757  18.316  0.00  0.00    +0.000 OA
BRANCH   7  10
ATOM     10  N   UNL     1      -1.580  11.083  19.266  0.00  0.00    +0.000 NA
ATOM     11  H   UNL     1      -2.037  11.010  20.175  0.00  0.00    +0.000 HD
BRANCH  10  12
ATOM     12  C   UNL     1      -2.266  11.910  18.241  0.00  0.00    +0.000 C 
ATOM     13  C   UNL     1      -2.077  11.320  16.837  0.00  0.00    +0.000 C 
ATOM     14  C   UNL     1      -2.759   9.961  16.693  0.00  0.00    +0.000 C 
ATOM     15  C   UNL     1      -4.253  10.075  16.962  0.00  0.00    +0.000 C 
ATOM     16  C   UNL     1      -4.538  10.697  18.327  0.00  0.00    +0.000 C 
ATOM     17  C   UNL     1      -3.786  12.021  18.544  0.00  0.00    +0.000 C 
ATOM     18  C   UNL     1      -4.094  12.581  19.936  0.00  0.00    +0.000 C 
ENDBRANCH  10  12
ENDBRANCH   7  10
ENDBRANCH   6   7
BRANCH   1  20
ATOM     19  C   UNL     1      -0.086   9.521  23.360  0.00  0.00    +0.000 C 
ATOM     20  O   UNL     1      -0.469   9.557  21.986  0.00  0.00    +0.000 OA
ENDBRANCH   1  20
BRANCH   4  21
ATOM     21  C   UNL     1       3.034   7.178  18.152  0.00  0.00    +0.000 C 
BRANCH  21  22
ATOM     22  N   UNL     1       3.214   5.770  18.410  0.00  0.00    +0.000 N 
ATOM     23  C   UNL     1       2.358   4.798  17.974  0.00  0.00    +0.000 C 
ATOM     24  O   UNL     1       1.314   4.908  17.362  0.00  0.00    +0.000 OA
ATOM     25  C   UNL     1       2.930   3.524  18.391  0.00  0.00    +0.000 A 
ATOM     26  C   UNL     1       2.513   2.223  18.207  0.00  0.00    +0.000 A 
ATOM     27  C   UNL     1       3.337   1.228  18.736  0.00  0.00    +0.000 A 
ATOM     28  C   UNL     1       4.513   1.590  19.407  0.00  0.00    +0.000 A 
ATOM     29  N   UNL     1       4.922   2.867  19.598  0.00  0.00    +0.000 NA
ATOM     30  C   UNL     1       4.097   3.791  19.068  0.00  0.00    +0.000 A 
ATOM     31  C   UNL     1       4.280   5.245  19.093  0.00  0.00    +0.000 C 
ATOM     32  O   UNL     1       5.195   5.849  19.625  0.00  0.00    +0.000 OA
ENDBRANCH  21  22
ENDBRANCH   4  21
TORSDOF 6
ENDMDL
MODEL 9
REMARK VINA RESULT:      -7.6      3.433      5.434
REMARK  Name = 
REMARK  8 active torsions:
REMARK  status: ('A' for Active; 'I' for Inactive)
REMARK    1  A    between atoms: C_1  and  O_2
REMARK    2  A    between atoms: O_2  and  C_3
REMARK    3  A    between atoms: C_6  and  C_7
REMARK    4  A    between atoms: C_7  and  N_8
REMARK    5  A    between atoms: C_20  and  S_21
REMARK    6  A    between atoms: S_21  and  N_24
REMARK    7  A    between atoms: N_24  and  C_25
REMARK    8  A    between atoms: C_30  and  C_31
REMARK                            x       y       z     vdW  Elec       q    Type
REMARK                         _______ _______ _______ _____ _____    ______ ____
ROOT
ATOM      1  C   UNL     1      -2.792  11.464  18.626  0.00  0.00    +0.000 A 
ATOM      2  C   UNL     1      -2.092  10.559  17.813  0.00  0.00    +0.000 A 
ATOM      3  C   UNL     1      -0.752  10.250  18.059  0.00  0.00    +0.000 A 
ATOM      4  C   UNL     1      -0.077  10.827  19.136  0.00  0.00    +0.000 A 
ATOM      5  C   UNL     1      -0.790  11.670  19.999  0.00  0.00    +0.000 A 
ATOM      6  C   UNL     1      -2.136  11.997  19.742  0.00  0.00    +0.000 A 
ENDROOT
BRANCH   6   7
ATOM      7  S   UNL     1      -2.959  13.063  20.907  0.00  0.00    +0.000 S 
ATOM      8  O   UNL     1      -2.323  12.896  22.197  0.00  0.00    +0.000 OA
ATOM      9  O   UNL     1      -3.079  14.382  20.321  0.00  0.00    +0.000 OA
BRANCH   7  10
ATOM     10  N   UNL     1      -4.529  12.448  21.068  0.00  0.00    +0.000 NA
ATOM     11  H   UNL     1      -4.508  11.760  21.820  0.00  0.00    +0.000 HD
BRANCH  10  12
ATOM     12  C   UNL     1      -5.694  13.369  21.043  0.00  0.00    +0.000 C 
ATOM     13  C   UNL     1      -6.864  12.760  20.260  0.00  0.00    +0.000 C 
ATOM     14  C   UNL     1      -7.426  11.517  20.947  0.00  0.00    +0.000 C 
ATOM     15  C   UNL     1      -7.917  11.851  22.349  0.00  0.00    +0.000 C 
ATOM     16  C   UNL     1      -6.825  12.506  23.192  0.00  0.00    +0.000 C 
ATOM     17  C   UNL     1      -6.168  13.703  22.484  0.00  0.00    +0.000 C 
ATOM     18  C   UNL     1      -5.069  14.300  23.368  0.00  0.00    +0.000 C 
ENDBRANCH  10  12
ENDBRANCH   7  10
ENDBRANCH   6   7
BRANCH   1  20
ATOM     19  C   UNL     1      -4.610  11.434  17.104  0.00  0.00    +0.000 C 
ATOM     20  O   UNL     1      -4.084  11.835  18.369  0.00  0.00    +0.000 OA
ENDBRANCH   1  20
BRANCH   4  21
ATOM     21  C   UNL     1       1.377  10.507  19.386  0.00  0.00    +0.000 C 
BRANCH  21  22
ATOM     22  N   UNL     1       1.618   9.085  19.375  0.00  0.00    +0.000 N 
ATOM     23  C   UNL     1       2.115   8.403  18.300  0.00  0.00    +0.000 C 
ATOM     24  O   UNL     1       2.395   8.811  17.190  0.00  0.00    +0.000 OA
ATOM     25  C   UNL     1       2.261   7.015  18.720  0.00  0.00    +0.000 A 
ATOM     26  C   UNL     1       2.732   5.898  18.065  0.00  0.00    +0.000 A 
ATOM     27  C   UNL     1       2.749   4.711  18.798  0.00  0.00    +0.000 A 
ATOM     28  C   UNL     1       2.300   4.712  20.126  0.00  0.00    +0.000 A 
ATOM     29  N   UNL     1       1.828   5.805  20.771  0.00  0.00    +0.000 NA
ATOM     30  C   UNL     1       1.834   6.926  20.025  0.00  0.00    +0.000 A 
ATOM     31  C   UNL     1       1.406   8.263  20.450  0.00  0.00    +0.000 C 
ATOM     32  O   UNL     1       0.947   8.562  21.539  0.00  0.00    +0.000 OA
ENDBRANCH  21  22
ENDBRANCH   4  21
TORSDOF 6
ENDMDL
