MODEL 1
REMARK VINA RESULT:      -7.3      0.000      0.000
REMARK  Name = 
REMARK  5 active torsions:
REMARK  status: ('A' for Active; 'I' for Inactive)
REMARK    1  A    between atoms: C_1  and  C_2
REMARK    2  A    between atoms: C_2  and  C_3
REMARK    3  A    between atoms: C_4  and  C_5
REMARK    4  A    between atoms: C_5  and  O_7
REMARK    5  A    between atoms: O_7  and  C_8
REMARK                            x       y       z     vdW  Elec       q    Type
REMARK                         _______ _______ _______ _____ _____    ______ ____
ROOT
ATOM      1  C   UNL     1       5.052   5.002  19.215  0.00  0.00    +0.000 C 
ATOM      2  O   UNL     1       5.700   4.017  19.548  0.00  0.00    +0.000 OA
ENDROOT
BRANCH   1   6
ATOM      3  C   UNL     1       5.095   4.259  16.199  0.00  0.00    +0.000 C 
ATOM      4  C   UNL     1       5.482   5.641  16.676  0.00  0.00    +0.000 C 
ATOM      5  C   UNL     1       5.037   6.722  15.717  0.00  0.00    +0.000 C 
ATOM      6  C   UNL     1       5.452   5.955  18.160  0.00  0.00    +0.000 C 
ATOM      7  C   UNL     1       6.781   5.850  17.460  0.00  0.00    +0.000 C 
ATOM      8 CL   UNL     1       7.883   4.498  17.666  0.00  0.00    +0.000 Cl
ATOM      9 CL   UNL     1       7.681   7.375  17.296  0.00  0.00    +0.000 Cl
ENDBRANCH   1   6
BRANCH   1  10
ATOM     10  O   UNL     1       3.835   5.390  19.750  0.00  0.00    +0.000 OA
BRANCH  10  11
ATOM     11  C   UNL     1       2.696   4.574  19.619  0.00  0.00    +0.000 A 
ATOM     12  C   UNL     1       2.210   4.073  20.832  0.00  0.00    +0.000 A 
ATOM     13  C   UNL     1       1.185   3.133  20.834  0.00  0.00    +0.000 A 
ATOM     14  C   UNL     1       0.639   2.703  19.628  0.00  0.00    +0.000 A 
ATOM     15  C   UNL     1       1.102   3.228  18.418  0.00  0.00    +0.000 A 
ATOM     16  C   UNL     1       2.131   4.168  18.411  0.00  0.00    +0.000 A 
ENDBRANCH  10  11
ENDBRANCH   1  10
TORSDOF 3
ENDMDL
MODEL 2
REMARK VINA RESULT:      -7.1      0.124      1.217
REMARK  Name = 
REMARK  5 active torsions:
REMARK  status: ('A' for Active; 'I' for Inactive)
REMARK    1  A    between atoms: C_1  and  C_2
REMARK    2  A    between atoms: C_2  and  C_3
REMARK    3  A    between atoms: C_4  and  C_5
REMARK    4  A    between atoms: C_5  and  O_7
REMARK    5  A    between atoms: O_7  and  C_8
REMARK                            x       y       z     vdW  Elec       q    Type
REMARK                         _______ _______ _______ _____ _____    ______ ____
ROOT
ATOM      1  C   UNL     1       5.101   4.999  19.206  0.00  0.00    +0.000 C 
ATOM      2  O   UNL     1       5.783   4.049  19.572  0.00  0.00    +0.000 OA
ENDROOT
BRANCH   1   6
ATOM      3  C   UNL     1       5.103   4.269  16.187  0.00  0.00    +0.000 C 
ATOM      4  C   UNL     1       5.500   5.649  16.665  0.00  0.00    +0.000 C 
ATOM      5  C   UNL     1       5.044   6.734  15.716  0.00  0.00    +0.000 C 
ATOM      6  C   UNL     1       5.489   5.956  18.151  0.00  0.00    +0.000 C 
ATOM      7  C   UNL     1       6.809   5.852  17.433  0.00  0.00    +0.000 C 
ATOM      8 CL   UNL     1       7.911   4.497  17.619  0.00  0.00    +0.000 Cl
ATOM      9 CL   UNL     1       7.710   7.376  17.264  0.00  0.00    +0.000 Cl
ENDBRANCH   1   6
BRANCH   1  10
ATOM     10  O   UNL     1       3.852   5.338  19.700  0.00  0.00    +0.000 OA
BRANCH  10  11
ATOM     11  C   UNL     1       2.823   4.381  19.781  0.00  0.00    +0.000 A 
ATOM     12  C   UNL     1       2.279   4.022  18.543  0.00  0.00    +0.000 A 
ATOM     13  C   UNL     1       1.156   3.203  18.491  0.00  0.00    +0.000 A 
ATOM     14  C   UNL     1       0.585   2.736  19.671  0.00  0.00    +0.000 A 
ATOM     15  C   UNL     1       1.148   3.068  20.906  0.00  0.00    +0.000 A 
ATOM     16  C   UNL     1       2.273   3.891  20.963  0.00  0.00    +0.000 A 
ENDBRANCH  10  11
ENDBRANCH   1  10
TORSDOF 3
ENDMDL
MODEL 3
REMARK VINA RESULT:      -7.0      2.654      5.502
REMARK  Name = 
REMARK  5 active torsions:
REMARK  status: ('A' for Active; 'I' for Inactive)
REMARK    1  A    between atoms: C_1  and  C_2
REMARK    2  A    between atoms: C_2  and  C_3
REMARK    3  A    between atoms: C_4  and  C_5
REMARK    4  A    between atoms: C_5  and  O_7
REMARK    5  A    between atoms: O_7  and  C_8
REMARK                            x       y       z     vdW  Elec       q    Type
REMARK                         _______ _______ _______ _____ _____    ______ ____
ROOT
ATOM      1  C   UNL     1       4.344   3.356  18.920  0.00  0.00    +0.000 C 
ATOM      2  O   UNL     1       4.160   2.627  17.953  0.00  0.00    +0.000 OA
ENDROOT
BRANCH   1   6
ATOM      3  C   UNL     1       1.507   2.093  18.941  0.00  0.00    +0.000 C 
ATOM      4  C   UNL     1       1.908   3.148  19.948  0.00  0.00    +0.000 C 
ATOM      5  C   UNL     1       1.300   2.898  21.310  0.00  0.00    +0.000 C 
ATOM      6  C   UNL     1       3.303   3.740  19.894  0.00  0.00    +0.000 C 
ATOM      7  C   UNL     1       2.128   4.596  19.502  0.00  0.00    +0.000 C 
ATOM      8 CL   UNL     1       1.764   5.044  17.843  0.00  0.00    +0.000 Cl
ATOM      9 CL   UNL     1       1.752   5.934  20.612  0.00  0.00    +0.000 Cl
ENDBRANCH   1   6
BRANCH   1  10
ATOM     10  O   UNL     1       5.550   3.936  19.280  0.00  0.00    +0.000 OA
BRANCH  10  11
ATOM     11  C   UNL     1       6.071   5.026  18.558  0.00  0.00    +0.000 A 
ATOM     12  C   UNL     1       7.321   5.463  19.009  0.00  0.00    +0.000 A 
ATOM     13  C   UNL     1       7.880   6.624  18.485  0.00  0.00    +0.000 A 
ATOM     14  C   UNL     1       7.196   7.341  17.507  0.00  0.00    +0.000 A 
ATOM     15  C   UNL     1       5.962   6.885  17.034  0.00  0.00    +0.000 A 
ATOM     16  C   UNL     1       5.397   5.723  17.557  0.00  0.00    +0.000 A 
ENDBRANCH  10  11
ENDBRANCH   1  10
TORSDOF 3
ENDMDL
MODEL 4
REMARK VINA RESULT:      -7.0      3.248      5.485
REMARK  Name = 
REMARK  5 active torsions:
REMARK  status: ('A' for Active; 'I' for Inactive)
REMARK    1  A    between atoms: C_1  and  C_2
REMARK    2  A    between atoms: C_2  and  C_3
REMARK    3  A    between atoms: C_4  and  C_5
REMARK    4  A    between atoms: C_5  and  O_7
REMARK    5  A    between atoms: O_7  and  C_8
REMARK                            x       y       z     vdW  Elec       q    Type
REMARK                         _______ _______ _______ _____ _____    ______ ____
ROOT
ATOM      1  C   UNL     1       2.334   4.606  17.922  0.00  0.00    +0.000 C 
ATOM      2  O   UNL     1       1.314   4.395  17.276  0.00  0.00    +0.000 OA
ENDROOT
BRANCH   1   6
ATOM      3  C   UNL     1       3.482   1.721  17.990  0.00  0.00    +0.000 C 
ATOM      4  C   UNL     1       3.262   2.512  19.260  0.00  0.00    +0.000 C 
ATOM      5  C   UNL     1       4.336   2.245  20.291  0.00  0.00    +0.000 C 
ATOM      6  C   UNL     1       2.693   3.916  19.177  0.00  0.00    +0.000 C 
ATOM      7  C   UNL     1       1.841   2.812  19.746  0.00  0.00    +0.000 C 
ATOM      8 CL   UNL     1       0.479   2.101  18.896  0.00  0.00    +0.000 Cl
ATOM      9 CL   UNL     1       1.504   2.927  21.489  0.00  0.00    +0.000 Cl
ENDBRANCH   1   6
BRANCH   1  10
ATOM     10  O   UNL     1       3.330   5.510  17.591  0.00  0.00    +0.000 OA
BRANCH  10  11
ATOM     11  C   UNL     1       4.641   5.074  17.327  0.00  0.00    +0.000 A 
ATOM     12  C   UNL     1       5.567   5.416  18.318  0.00  0.00    +0.000 A 
ATOM     13  C   UNL     1       6.923   5.181  18.113  0.00  0.00    +0.000 A 
ATOM     14  C   UNL     1       7.351   4.597  16.923  0.00  0.00    +0.000 A 
ATOM     15  C   UNL     1       6.422   4.227  15.947  0.00  0.00    +0.000 A 
ATOM     16  C   UNL     1       5.063   4.462  16.148  0.00  0.00    +0.000 A 
ENDBRANCH  10  11
ENDBRANCH   1  10
TORSDOF 3
ENDMDL
MODEL 5
REMARK VINA RESULT:      -6.9      3.165      5.513
REMARK  Name = 
REMARK  5 active torsions:
REMARK  status: ('A' for Active; 'I' for Inactive)
REMARK    1  A    between atoms: C_1  and  C_2
REMARK    2  A    between atoms: C_2  and  C_3
REMARK    3  A    between atoms: C_4  and  C_5
REMARK    4  A    between atoms: C_5  and  O_7
REMARK    5  A    between atoms: O_7  and  C_8
REMARK                            x       y       z     vdW  Elec       q    Type
REMARK                         _______ _______ _______ _____ _____    ______ ____
ROOT
ATOM      1  C   UNL     1       2.801   5.082  18.573  0.00  0.00    +0.000 C 
ATOM      2  O   UNL     1       1.779   5.126  17.899  0.00  0.00    +0.000 OA
ENDROOT
BRANCH   1   6
ATOM      3  C   UNL     1       3.636   2.161  17.928  0.00  0.00    +0.000 C 
ATOM      4  C   UNL     1       3.492   2.643  19.355  0.00  0.00    +0.000 C 
ATOM      5  C   UNL     1       4.524   2.027  20.273  0.00  0.00    +0.000 C 
ATOM      6  C   UNL     1       3.076   4.078  19.620  0.00  0.00    +0.000 C 
ATOM      7  C   UNL     1       2.108   2.966  19.924  0.00  0.00    +0.000 C 
ATOM      8 CL   UNL     1       0.684   2.626  18.954  0.00  0.00    +0.000 Cl
ATOM      9 CL   UNL     1       1.772   2.694  21.650  0.00  0.00    +0.000 Cl
ENDBRANCH   1   6
BRANCH   1  10
ATOM     10  O   UNL     1       3.878   5.947  18.469  0.00  0.00    +0.000 OA
BRANCH  10  11
ATOM     11  C   UNL     1       5.058   5.554  17.809  0.00  0.00    +0.000 A 
ATOM     12  C   UNL     1       4.908   5.371  16.431  0.00  0.00    +0.000 A 
ATOM     13  C   UNL     1       5.953   4.838  15.683  0.00  0.00    +0.000 A 
ATOM     14  C   UNL     1       7.149   4.498  16.311  0.00  0.00    +0.000 A 
ATOM     15  C   UNL     1       7.310   4.712  17.683  0.00  0.00    +0.000 A 
ATOM     16  C   UNL     1       6.264   5.245  18.436  0.00  0.00    +0.000 A 
ENDBRANCH  10  11
ENDBRANCH   1  10
TORSDOF 3
ENDMDL
MODEL 6
REMARK VINA RESULT:      -6.8      2.618      5.139
REMARK  Name = 
REMARK  5 active torsions:
REMARK  status: ('A' for Active; 'I' for Inactive)
REMARK    1  A    between atoms: C_1  and  C_2
REMARK    2  A    between atoms: C_2  and  C_3
REMARK    3  A    between atoms: C_4  and  C_5
REMARK    4  A    between atoms: C_5  and  O_7
REMARK    5  A    between atoms: O_7  and  C_8
REMARK                            x       y       z     vdW  Elec       q    Type
REMARK                         _______ _______ _______ _____ _____    ______ ____
ROOT
ATOM      1  C   UNL     1       4.749   3.321  19.605  0.00  0.00    +0.000 C 
ATOM      2  O   UNL     1       4.796   2.219  20.138  0.00  0.00    +0.000 OA
ENDROOT
BRANCH   1   6
ATOM      3  C   UNL     1       2.259   2.983  21.432  0.00  0.00    +0.000 C 
ATOM      4  C   UNL     1       2.283   4.000  20.313  0.00  0.00    +0.000 C 
ATOM      5  C   UNL     1       1.548   5.270  20.679  0.00  0.00    +0.000 C 
ATOM      6  C   UNL     1       3.520   4.125  19.443  0.00  0.00    +0.000 C 
ATOM      7  C   UNL     1       2.264   3.541  18.852  0.00  0.00    +0.000 C 
ATOM      8 CL   UNL     1       2.062   1.833  18.496  0.00  0.00    +0.000 Cl
ATOM      9 CL   UNL     1       1.463   4.539  17.618  0.00  0.00    +0.000 Cl
ENDBRANCH   1   6
BRANCH   1  10
ATOM     10  O   UNL     1       5.825   4.013  19.076  0.00  0.00    +0.000 OA
BRANCH  10  11
ATOM     11  C   UNL     1       5.746   4.609  17.803  0.00  0.00    +0.000 A 
ATOM     12  C   UNL     1       5.815   6.007  17.822  0.00  0.00    +0.000 A 
ATOM     13  C   UNL     1       5.596   6.728  16.653  0.00  0.00    +0.000 A 
ATOM     14  C   UNL     1       5.319   6.054  15.467  0.00  0.00    +0.000 A 
ATOM     15  C   UNL     1       5.283   4.658  15.442  0.00  0.00    +0.000 A 
ATOM     16  C   UNL     1       5.499   3.931  16.612  0.00  0.00    +0.000 A 
ENDBRANCH  10  11
ENDBRANCH   1  10
TORSDOF 3
ENDMDL
MODEL 7
REMARK VINA RESULT:      -6.8      2.651      5.545
REMARK  Name = 
REMARK  5 active torsions:
REMARK  status: ('A' for Active; 'I' for Inactive)
REMARK    1  A    between atoms: C_1  and  C_2
REMARK    2  A    between atoms: C_2  and  C_3
REMARK    3  A    between atoms: C_4  and  C_5
REMARK    4  A    between atoms: C_5  and  O_7
REMARK    5  A    between atoms: O_7  and  C_8
REMARK                            x       y       z     vdW  Elec       q    Type
REMARK                         _______ _______ _______ _____ _____    ______ ____
ROOT
ATOM      1  C   UNL     1       4.294   3.438  18.876  0.00  0.00    +0.000 C 
ATOM      2  O   UNL     1       4.072   2.813  17.846  0.00  0.00    +0.000 OA
ENDROOT
BRANCH   1   6
ATOM      3  C   UNL     1       1.449   2.192  18.924  0.00  0.00    +0.000 C 
ATOM      4  C   UNL     1       1.867   3.244  19.929  0.00  0.00    +0.000 C 
ATOM      5  C   UNL     1       1.271   2.995  21.296  0.00  0.00    +0.000 C 
ATOM      6  C   UNL     1       3.265   3.827  19.861  0.00  0.00    +0.000 C 
ATOM      7  C   UNL     1       2.091   4.691  19.482  0.00  0.00    +0.000 C 
ATOM      8 CL   UNL     1       1.713   5.143  17.828  0.00  0.00    +0.000 Cl
ATOM      9 CL   UNL     1       1.734   6.030  20.597  0.00  0.00    +0.000 Cl
ENDBRANCH   1   6
BRANCH   1  10
ATOM     10  O   UNL     1       5.534   3.879  19.306  0.00  0.00    +0.000 OA
BRANCH  10  11
ATOM     11  C   UNL     1       6.088   5.074  18.811  0.00  0.00    +0.000 A 
ATOM     12  C   UNL     1       5.318   5.693  17.821  0.00  0.00    +0.000 A 
ATOM     13  C   UNL     1       5.820   6.797  17.139  0.00  0.00    +0.000 A 
ATOM     14  C   UNL     1       7.085   7.286  17.453  0.00  0.00    +0.000 A 
ATOM     15  C   UNL     1       7.841   6.687  18.465  0.00  0.00    +0.000 A 
ATOM     16  C   UNL     1       7.342   5.579  19.149  0.00  0.00    +0.000 A 
ENDBRANCH  10  11
ENDBRANCH   1  10
TORSDOF 3
ENDMDL
MODEL 8
REMARK VINA RESULT:      -6.8      2.686      5.559
REMARK  Name = 
REMARK  5 active torsions:
REMARK  status: ('A' for Active; 'I' for Inactive)
REMARK    1  A    between atoms: C_1  and  C_2
REMARK    2  A    between atoms: C_2  and  C_3
REMARK    3  A    between atoms: C_4  and  C_5
REMARK    4  A    between atoms: C_5  and  O_7
REMARK    5  A    between atoms: O_7  and  C_8
REMARK                            x       y       z     vdW  Elec       q    Type
REMARK                         _______ _______ _______ _____ _____    ______ ____
ROOT
ATOM      1  C   UNL     1       4.394   3.502  18.441  0.00  0.00    +0.000 C 
ATOM      2  O   UNL     1       4.609   3.287  17.254  0.00  0.00    +0.000 OA
ENDROOT
BRANCH   1   6
ATOM      3  C   UNL     1       1.508   4.309  17.623  0.00  0.00    +0.000 C 
ATOM      4  C   UNL     1       1.768   3.408  18.810  0.00  0.00    +0.000 C 
ATOM      5  C   UNL     1       0.710   2.338  18.957  0.00  0.00    +0.000 C 
ATOM      6  C   UNL     1       3.196   3.047  19.174  0.00  0.00    +0.000 C 
ATOM      7  C   UNL     1       2.420   3.970  20.076  0.00  0.00    +0.000 C 
ATOM      8 CL   UNL     1       2.722   5.697  20.188  0.00  0.00    +0.000 Cl
ATOM      9 CL   UNL     1       1.990   3.302  21.668  0.00  0.00    +0.000 Cl
ENDBRANCH   1   6
BRANCH   1  10
ATOM     10  O   UNL     1       5.228   4.192  19.304  0.00  0.00    +0.000 OA
BRANCH  10  11
ATOM     11  C   UNL     1       5.999   5.279  18.849  0.00  0.00    +0.000 A 
ATOM     12  C   UNL     1       5.399   6.013  17.820  0.00  0.00    +0.000 A 
ATOM     13  C   UNL     1       6.115   7.017  17.176  0.00  0.00    +0.000 A 
ATOM     14  C   UNL     1       7.423   7.293  17.566  0.00  0.00    +0.000 A 
ATOM     15  C   UNL     1       8.010   6.581  18.616  0.00  0.00    +0.000 A 
ATOM     16  C   UNL     1       7.297   5.573  19.263  0.00  0.00    +0.000 A 
ENDBRANCH  10  11
ENDBRANCH   1  10
TORSDOF 3
ENDMDL
MODEL 9
REMARK VINA RESULT:      -6.8      2.626      5.305
REMARK  Name = 
REMARK  5 active torsions:
REMARK  status: ('A' for Active; 'I' for Inactive)
REMARK    1  A    between atoms: C_1  and  C_2
REMARK    2  A    between atoms: C_2  and  C_3
REMARK    3  A    between atoms: C_4  and  C_5
REMARK    4  A    between atoms: C_5  and  O_7
REMARK    5  A    between atoms: O_7  and  C_8
REMARK                            x       y       z     vdW  Elec       q    Type
REMARK                         _______ _______ _______ _____ _____    ______ ____
ROOT
ATOM      1  C   UNL     1       4.013   2.807  18.740  0.00  0.00    +0.000 C 
ATOM      2  O   UNL     1       3.787   1.779  18.113  0.00  0.00    +0.000 OA
ENDROOT
BRANCH   1   6
ATOM      3  C   UNL     1       1.012   2.039  18.975  0.00  0.00    +0.000 C 
ATOM      4  C   UNL     1       1.647   3.036  19.920  0.00  0.00    +0.000 C 
ATOM      5  C   UNL     1       1.096   2.923  21.323  0.00  0.00    +0.000 C 
ATOM      6  C   UNL     1       3.115   3.383  19.762  0.00  0.00    +0.000 C 
ATOM      7  C   UNL     1       2.076   4.415  19.412  0.00  0.00    +0.000 C 
ATOM      8 CL   UNL     1       1.685   4.879  17.763  0.00  0.00    +0.000 Cl
ATOM      9 CL   UNL     1       2.000   5.823  20.496  0.00  0.00    +0.000 Cl
ENDBRANCH   1   6
BRANCH   1  10
ATOM     10  O   UNL     1       5.142   3.600  18.618  0.00  0.00    +0.000 OA
BRANCH  10  11
ATOM     11  C   UNL     1       5.308   4.454  17.512  0.00  0.00    +0.000 A 
ATOM     12  C   UNL     1       5.134   5.810  17.807  0.00  0.00    +0.000 A 
ATOM     13  C   UNL     1       5.120   6.747  16.779  0.00  0.00    +0.000 A 
ATOM     14  C   UNL     1       5.288   6.331  15.461  0.00  0.00    +0.000 A 
ATOM     15  C   UNL     1       5.494   4.980  15.170  0.00  0.00    +0.000 A 
ATOM     16  C   UNL     1       5.507   4.037  16.197  0.00  0.00    +0.000 A 
ENDBRANCH  10  11
ENDBRANCH   1  10
TORSDOF 3
ENDMDL
