MODEL 1
REMARK VINA RESULT:      -8.0      0.000      0.000
REMARK  Name = 
REMARK  4 active torsions:
REMARK  status: ('A' for Active; 'I' for Inactive)
REMARK    1  A    between atoms: N_5  and  C_6
REMARK    2  A    between atoms: C_6  and  C_7
REMARK    3  A    between atoms: C_10  and  C_11
REMARK    4  A    between atoms: C_11  and  N_12
REMARK                            x       y       z     vdW  Elec       q    Type
REMARK                         _______ _______ _______ _____ _____    ______ ____
ROOT
ATOM      1  C   UNL     1       7.575   7.700  17.859  0.00  0.00    +0.000 A 
ATOM      2  C   UNL     1       8.079   6.727  18.732  0.00  0.00    +0.000 A 
ATOM      3  C   UNL     1       7.367   5.549  18.968  0.00  0.00    +0.000 A 
ATOM      4  C   UNL     1       6.146   5.308  18.319  0.00  0.00    +0.000 A 
ATOM      5  C   UNL     1       5.651   6.271  17.433  0.00  0.00    +0.000 A 
ATOM      6  C   UNL     1       6.362   7.450  17.197  0.00  0.00    +0.000 A 
ENDROOT
BRANCH   1   7
ATOM      7  C   UNL     1       8.291   9.013  17.662  0.00  0.00    +0.000 C 
BRANCH   7  12
ATOM      8  C   UNL     1      11.408  12.677  19.432  0.00  0.00    +0.000 A 
ATOM      9  C   UNL     1      11.142  12.254  18.140  0.00  0.00    +0.000 A 
ATOM     10  C   UNL     1      10.233  11.214  17.939  0.00  0.00    +0.000 A 
ATOM     11  C   UNL     1       9.608  10.616  19.030  0.00  0.00    +0.000 A 
ATOM     12  N   UNL     1       8.712   9.584  18.914  0.00  0.00    +0.000 N 
ATOM     13  N   UNL     1       9.864  11.026  20.286  0.00  0.00    +0.000 NA
ATOM     14  C   UNL     1      10.748  12.036  20.463  0.00  0.00    +0.000 A 
ATOM     15  H   UNL     1       8.321   9.258  19.786  0.00  0.00    +0.000 HD
ENDBRANCH   7  12
ENDBRANCH   1   7
BRANCH   4  16
ATOM     16  C   UNL     1       5.391   4.024  18.569  0.00  0.00    +0.000 C 
BRANCH  16  17
ATOM     17  N   UNL     1       4.095   4.061  17.925  0.00  0.00    +0.000 N 
ATOM     18  C   UNL     1       3.050   3.868  18.820  0.00  0.00    +0.000 A 
ATOM     19  N   UNL     1       3.172   4.299  20.086  0.00  0.00    +0.000 NA
ATOM     20  C   UNL     1       2.148   4.064  20.922  0.00  0.00    +0.000 A 
ATOM     21  C   UNL     1       1.000   3.415  20.545  0.00  0.00    +0.000 A 
ATOM     22  C   UNL     1       0.964   3.018  19.232  0.00  0.00    +0.000 A 
ATOM     23  N   UNL     1       1.971   3.223  18.358  0.00  0.00    +0.000 NA
ATOM     24  H   UNL     1       3.962   3.398  17.170  0.00  0.00    +0.000 HD
ENDBRANCH  16  17
ENDBRANCH   4  16
TORSDOF 4
ENDMDL
MODEL 2
REMARK VINA RESULT:      -7.9      0.702      1.564
REMARK  Name = 
REMARK  4 active torsions:
REMARK  status: ('A' for Active; 'I' for Inactive)
REMARK    1  A    between atoms: N_5  and  C_6
REMARK    2  A    between atoms: C_6  and  C_7
REMARK    3  A    between atoms: C_10  and  C_11
REMARK    4  A    between atoms: C_11  and  N_12
REMARK                            x       y       z     vdW  Elec       q    Type
REMARK                         _______ _______ _______ _____ _____    ______ ____
ROOT
ATOM      1  C   UNL     1       7.463   7.478  17.808  0.00  0.00    +0.000 A 
ATOM      2  C   UNL     1       6.300   7.294  17.052  0.00  0.00    +0.000 A 
ATOM      3  C   UNL     1       5.611   6.079  17.095  0.00  0.00    +0.000 A 
ATOM      4  C   UNL     1       6.060   5.031  17.914  0.00  0.00    +0.000 A 
ATOM      5  C   UNL     1       7.212   5.221  18.685  0.00  0.00    +0.000 A 
ATOM      6  C   UNL     1       7.901   6.436  18.641  0.00  0.00    +0.000 A 
ENDROOT
BRANCH   1   7
ATOM      7  C   UNL     1       8.263   8.754  17.704  0.00  0.00    +0.000 C 
BRANCH   7  12
ATOM      8  C   UNL     1      10.842  12.667  19.779  0.00  0.00    +0.000 A 
ATOM      9  C   UNL     1      10.594  12.340  18.456  0.00  0.00    +0.000 A 
ATOM     10  C   UNL     1       9.850  11.195  18.167  0.00  0.00    +0.000 A 
ATOM     11  C   UNL     1       9.369  10.398  19.203  0.00  0.00    +0.000 A 
ATOM     12  N   UNL     1       8.640   9.254  18.999  0.00  0.00    +0.000 N 
ATOM     13  N   UNL     1       9.607  10.715  20.490  0.00  0.00    +0.000 NA
ATOM     14  C   UNL     1      10.331  11.829  20.752  0.00  0.00    +0.000 A 
ATOM     15  H   UNL     1       8.339   8.785  19.841  0.00  0.00    +0.000 HD
ENDBRANCH   7  12
ENDBRANCH   1   7
BRANCH   4  16
ATOM     16  C   UNL     1       5.300   3.726  17.966  0.00  0.00    +0.000 C 
BRANCH  16  17
ATOM     17  N   UNL     1       4.937   3.402  19.330  0.00  0.00    +0.000 N 
ATOM     18  C   UNL     1       3.566   3.244  19.492  0.00  0.00    +0.000 A 
ATOM     19  N   UNL     1       2.828   2.762  18.479  0.00  0.00    +0.000 NA
ATOM     20  C   UNL     1       1.504   2.654  18.672  0.00  0.00    +0.000 A 
ATOM     21  C   UNL     1       0.882   3.008  19.842  0.00  0.00    +0.000 A 
ATOM     22  C   UNL     1       1.717   3.483  20.822  0.00  0.00    +0.000 A 
ATOM     23  N   UNL     1       3.050   3.618  20.670  0.00  0.00    +0.000 NA
ATOM     24  H   UNL     1       5.242   4.064  20.033  0.00  0.00    +0.000 HD
ENDBRANCH  16  17
ENDBRANCH   4  16
TORSDOF 4
ENDMDL
MODEL 3
REMARK VINA RESULT:      -7.9      1.365      2.062
REMARK  Name = 
REMARK  4 active torsions:
REMARK  status: ('A' for Active; 'I' for Inactive)
REMARK    1  A    between atoms: N_5  and  C_6
REMARK    2  A    between atoms: C_6  and  C_7
REMARK    3  A    between atoms: C_10  and  C_11
REMARK    4  A    between atoms: C_11  and  N_12
REMARK                            x       y       z     vdW  Elec       q    Type
REMARK                         _______ _______ _______ _____ _____    ______ ____
ROOT
ATOM      1  C   UNL     1       7.452   6.891  18.056  0.00  0.00    +0.000 A 
ATOM      2  C   UNL     1       6.441   7.279  17.167  0.00  0.00    +0.000 A 
ATOM      3  C   UNL     1       5.555   6.334  16.645  0.00  0.00    +0.000 A 
ATOM      4  C   UNL     1       5.647   4.984  17.018  0.00  0.00    +0.000 A 
ATOM      5  C   UNL     1       6.645   4.599  17.921  0.00  0.00    +0.000 A 
ATOM      6  C   UNL     1       7.532   5.544  18.442  0.00  0.00    +0.000 A 
ENDROOT
BRANCH   1   7
ATOM      7  C   UNL     1       8.469   7.887  18.559  0.00  0.00    +0.000 C 
BRANCH   7  12
ATOM      8  C   UNL     1       9.850  12.763  19.324  0.00  0.00    +0.000 A 
ATOM      9  C   UNL     1      10.134  11.613  20.042  0.00  0.00    +0.000 A 
ATOM     10  C   UNL     1       9.618  10.393  19.603  0.00  0.00    +0.000 A 
ATOM     11  C   UNL     1       8.830  10.343  18.456  0.00  0.00    +0.000 A 
ATOM     12  N   UNL     1       8.280   9.185  17.968  0.00  0.00    +0.000 N 
ATOM     13  N   UNL     1       8.555  11.459  17.755  0.00  0.00    +0.000 NA
ATOM     14  C   UNL     1       9.062  12.634  18.196  0.00  0.00    +0.000 A 
ATOM     15  H   UNL     1       7.746   9.292  17.117  0.00  0.00    +0.000 HD
ENDBRANCH   7  12
ENDBRANCH   1   7
BRANCH   4  16
ATOM     16  C   UNL     1       4.675   3.972  16.461  0.00  0.00    +0.000 C 
BRANCH  16  17
ATOM     17  N   UNL     1       4.527   2.853  17.368  0.00  0.00    +0.000 N 
ATOM     18  C   UNL     1       3.320   2.882  18.056  0.00  0.00    +0.000 A 
ATOM     19  N   UNL     1       2.232   3.405  17.469  0.00  0.00    +0.000 NA
ATOM     20  C   UNL     1       1.096   3.438  18.183  0.00  0.00    +0.000 A 
ATOM     21  C   UNL     1       1.000   2.967  19.468  0.00  0.00    +0.000 A 
ATOM     22  C   UNL     1       2.161   2.446  19.982  0.00  0.00    +0.000 A 
ATOM     23  N   UNL     1       3.326   2.400  19.306  0.00  0.00    +0.000 NA
ATOM     24  H   UNL     1       5.259   2.752  18.061  0.00  0.00    +0.000 HD
ENDBRANCH  16  17
ENDBRANCH   4  16
TORSDOF 4
ENDMDL
MODEL 4
REMARK VINA RESULT:      -7.9      0.611      1.119
REMARK  Name = 
REMARK  4 active torsions:
REMARK  status: ('A' for Active; 'I' for Inactive)
REMARK    1  A    between atoms: N_5  and  C_6
REMARK    2  A    between atoms: C_6  and  C_7
REMARK    3  A    between atoms: C_10  and  C_11
REMARK    4  A    between atoms: C_11  and  N_12
REMARK                            x       y       z     vdW  Elec       q    Type
REMARK                         _______ _______ _______ _____ _____    ______ ____
ROOT
ATOM      1  C   UNL     1       7.513   7.582  17.748  0.00  0.00    +0.000 A 
ATOM      2  C   UNL     1       7.940   6.583  18.632  0.00  0.00    +0.000 A 
ATOM      3  C   UNL     1       7.198   5.411  18.790  0.00  0.00    +0.000 A 
ATOM      4  C   UNL     1       6.023   5.203  18.050  0.00  0.00    +0.000 A 
ATOM      5  C   UNL     1       5.605   6.192  17.153  0.00  0.00    +0.000 A 
ATOM      6  C   UNL     1       6.347   7.365  16.996  0.00  0.00    +0.000 A 
ENDROOT
BRANCH   1   7
ATOM      7  C   UNL     1       8.259   8.889  17.634  0.00  0.00    +0.000 C 
BRANCH   7  12
ATOM      8  C   UNL     1      11.087  12.653  19.659  0.00  0.00    +0.000 A 
ATOM      9  C   UNL     1      10.841  12.308  18.340  0.00  0.00    +0.000 A 
ATOM     10  C   UNL     1      10.018  11.215  18.065  0.00  0.00    +0.000 A 
ATOM     11  C   UNL     1       9.457  10.487  19.112  0.00  0.00    +0.000 A 
ATOM     12  N   UNL     1       8.646   9.397  18.923  0.00  0.00    +0.000 N 
ATOM     13  N   UNL     1       9.693  10.822  20.394  0.00  0.00    +0.000 NA
ATOM     14  C   UNL     1      10.494  11.884  20.642  0.00  0.00    +0.000 A 
ATOM     15  H   UNL     1       8.294   8.975  19.770  0.00  0.00    +0.000 HD
ENDBRANCH   7  12
ENDBRANCH   1   7
BRANCH   4  16
ATOM     16  C   UNL     1       5.235   3.925  18.216  0.00  0.00    +0.000 C 
BRANCH  16  17
ATOM     17  N   UNL     1       4.726   3.812  19.567  0.00  0.00    +0.000 N 
ATOM     18  C   UNL     1       3.372   3.501  19.599  0.00  0.00    +0.000 A 
ATOM     19  N   UNL     1       2.839   2.745  18.626  0.00  0.00    +0.000 NA
ATOM     20  C   UNL     1       1.521   2.495  18.685  0.00  0.00    +0.000 A 
ATOM     21  C   UNL     1       0.708   2.971  19.681  0.00  0.00    +0.000 A 
ATOM     22  C   UNL     1       1.341   3.729  20.635  0.00  0.00    +0.000 A 
ATOM     23  N   UNL     1       2.659   4.013  20.612  0.00  0.00    +0.000 NA
ATOM     24  H   UNL     1       4.855   4.628  20.153  0.00  0.00    +0.000 HD
ENDBRANCH  16  17
ENDBRANCH   4  16
TORSDOF 4
ENDMDL
MODEL 5
REMARK VINA RESULT:      -7.9      0.351      1.087
REMARK  Name = 
REMARK  4 active torsions:
REMARK  status: ('A' for Active; 'I' for Inactive)
REMARK    1  A    between atoms: N_5  and  C_6
REMARK    2  A    between atoms: C_6  and  C_7
REMARK    3  A    between atoms: C_10  and  C_11
REMARK    4  A    between atoms: C_11  and  N_12
REMARK                            x       y       z     vdW  Elec       q    Type
REMARK                         _______ _______ _______ _____ _____    ______ ____
ROOT
ATOM      1  C   UNL     1       7.488   7.693  17.820  0.00  0.00    +0.000 A 
ATOM      2  C   UNL     1       6.287   7.490  17.127  0.00  0.00    +0.000 A 
ATOM      3  C   UNL     1       5.601   6.278  17.237  0.00  0.00    +0.000 A 
ATOM      4  C   UNL     1       6.091   5.251  18.058  0.00  0.00    +0.000 A 
ATOM      5  C   UNL     1       7.280   5.459  18.765  0.00  0.00    +0.000 A 
ATOM      6  C   UNL     1       7.967   6.671  18.655  0.00  0.00    +0.000 A 
ENDROOT
BRANCH   1   7
ATOM      7  C   UNL     1       8.281   8.964  17.642  0.00  0.00    +0.000 C 
BRANCH   7  12
ATOM      8  C   UNL     1      11.307  12.661  19.500  0.00  0.00    +0.000 A 
ATOM      9  C   UNL     1      11.072  12.244  18.200  0.00  0.00    +0.000 A 
ATOM     10  C   UNL     1      10.183  11.193  17.973  0.00  0.00    +0.000 A 
ATOM     11  C   UNL     1       9.547  10.575  19.048  0.00  0.00    +0.000 A 
ATOM     12  N   UNL     1       8.670   9.531  18.906  0.00  0.00    +0.000 N 
ATOM     13  N   UNL     1       9.773  10.979  20.312  0.00  0.00    +0.000 NA
ATOM     14  C   UNL     1      10.638  12.001  20.513  0.00  0.00    +0.000 A 
ATOM     15  H   UNL     1       8.267   9.192  19.769  0.00  0.00    +0.000 HD
ENDBRANCH   7  12
ENDBRANCH   1   7
BRANCH   4  16
ATOM     16  C   UNL     1       5.334   3.949  18.182  0.00  0.00    +0.000 C 
BRANCH  16  17
ATOM     17  N   UNL     1       4.055   4.038  17.510  0.00  0.00    +0.000 N 
ATOM     18  C   UNL     1       2.991   3.737  18.352  0.00  0.00    +0.000 A 
ATOM     19  N   UNL     1       3.073   4.032  19.659  0.00  0.00    +0.000 NA
ATOM     20  C   UNL     1       2.032   3.697  20.438  0.00  0.00    +0.000 A 
ATOM     21  C   UNL     1       0.905   3.077  19.963  0.00  0.00    +0.000 A 
ATOM     22  C   UNL     1       0.908   2.821  18.615  0.00  0.00    +0.000 A 
ATOM     23  N   UNL     1       1.933   3.131  17.795  0.00  0.00    +0.000 NA
ATOM     24  H   UNL     1       3.952   3.457  16.686  0.00  0.00    +0.000 HD
ENDBRANCH  16  17
ENDBRANCH   4  16
TORSDOF 4
ENDMDL
MODEL 6
REMARK VINA RESULT:      -7.8      1.189      1.654
REMARK  Name = 
REMARK  4 active torsions:
REMARK  status: ('A' for Active; 'I' for Inactive)
REMARK    1  A    between atoms: N_5  and  C_6
REMARK    2  A    between atoms: C_6  and  C_7
REMARK    3  A    between atoms: C_10  and  C_11
REMARK    4  A    between atoms: C_11  and  N_12
REMARK                            x       y       z     vdW  Elec       q    Type
REMARK                         _______ _______ _______ _____ _____    ______ ____
ROOT
ATOM      1  C   UNL     1       7.517   7.060  18.167  0.00  0.00    +0.000 A 
ATOM      2  C   UNL     1       7.476   5.837  18.850  0.00  0.00    +0.000 A 
ATOM      3  C   UNL     1       6.470   4.907  18.578  0.00  0.00    +0.000 A 
ATOM      4  C   UNL     1       5.497   5.170  17.602  0.00  0.00    +0.000 A 
ATOM      5  C   UNL     1       5.548   6.383  16.906  0.00  0.00    +0.000 A 
ATOM      6  C   UNL     1       6.553   7.314  17.178  0.00  0.00    +0.000 A 
ENDROOT
BRANCH   1   7
ATOM      7  C   UNL     1       8.546   8.108  18.512  0.00  0.00    +0.000 C 
BRANCH   7  12
ATOM      8  C   UNL     1       9.968  13.019  18.873  0.00  0.00    +0.000 A 
ATOM      9  C   UNL     1      10.424  11.888  19.530  0.00  0.00    +0.000 A 
ATOM     10  C   UNL     1       9.849  10.652  19.236  0.00  0.00    +0.000 A 
ATOM     11  C   UNL     1       8.828  10.567  18.292  0.00  0.00    +0.000 A 
ATOM     12  N   UNL     1       8.207   9.391  17.956  0.00  0.00    +0.000 N 
ATOM     13  N   UNL     1       8.384  11.664  17.651  0.00  0.00    +0.000 NA
ATOM     14  C   UNL     1       8.953  12.855  17.949  0.00  0.00    +0.000 A 
ATOM     15  H   UNL     1       7.497   9.472  17.243  0.00  0.00    +0.000 HD
ENDBRANCH   7  12
ENDBRANCH   1   7
BRANCH   4  16
ATOM     16  C   UNL     1       4.422   4.151  17.304  0.00  0.00    +0.000 C 
BRANCH  16  17
ATOM     17  N   UNL     1       4.458   3.075  18.273  0.00  0.00    +0.000 N 
ATOM     18  C   UNL     1       3.370   3.102  19.137  0.00  0.00    +0.000 A 
ATOM     19  N   UNL     1       2.186   3.560  18.701  0.00  0.00    +0.000 NA
ATOM     20  C   UNL     1       1.171   3.594  19.580  0.00  0.00    +0.000 A 
ATOM     21  C   UNL     1       1.290   3.186  20.884  0.00  0.00    +0.000 A 
ATOM     22  C   UNL     1       2.535   2.727  21.237  0.00  0.00    +0.000 A 
ATOM     23  N   UNL     1       3.585   2.683  20.392  0.00  0.00    +0.000 NA
ATOM     24  H   UNL     1       5.290   3.032  18.849  0.00  0.00    +0.000 HD
ENDBRANCH  16  17
ENDBRANCH   4  16
TORSDOF 4
ENDMDL
MODEL 7
REMARK VINA RESULT:      -7.8      5.647      7.757
REMARK  Name = 
REMARK  4 active torsions:
REMARK  status: ('A' for Active; 'I' for Inactive)
REMARK    1  A    between atoms: N_5  and  C_6
REMARK    2  A    between atoms: C_6  and  C_7
REMARK    3  A    between atoms: C_10  and  C_11
REMARK    4  A    between atoms: C_11  and  N_12
REMARK                            x       y       z     vdW  Elec       q    Type
REMARK                         _______ _______ _______ _____ _____    ______ ____
ROOT
ATOM      1  C   UNL     1       2.451   6.820  19.352  0.00  0.00    +0.000 A 
ATOM      2  C   UNL     1       2.539   7.444  18.101  0.00  0.00    +0.000 A 
ATOM      3  C   UNL     1       1.955   8.696  17.891  0.00  0.00    +0.000 A 
ATOM      4  C   UNL     1       1.290   9.360  18.933  0.00  0.00    +0.000 A 
ATOM      5  C   UNL     1       1.219   8.745  20.189  0.00  0.00    +0.000 A 
ATOM      6  C   UNL     1       1.802   7.493  20.399  0.00  0.00    +0.000 A 
ENDROOT
BRANCH   1   7
ATOM      7  C   UNL     1       3.002   5.432  19.568  0.00  0.00    +0.000 C 
BRANCH   7  12
ATOM      8  C   UNL     1       7.239   4.494  16.840  0.00  0.00    +0.000 A 
ATOM      9  C   UNL     1       5.899   4.406  16.500  0.00  0.00    +0.000 A 
ATOM     10  C   UNL     1       4.933   4.725  17.455  0.00  0.00    +0.000 A 
ATOM     11  C   UNL     1       5.321   5.124  18.732  0.00  0.00    +0.000 A 
ATOM     12  N   UNL     1       4.432   5.444  19.725  0.00  0.00    +0.000 N 
ATOM     13  N   UNL     1       6.623   5.212  19.064  0.00  0.00    +0.000 NA
ATOM     14  C   UNL     1       7.547   4.899  18.126  0.00  0.00    +0.000 A 
ATOM     15  H   UNL     1       4.852   5.736  20.596  0.00  0.00    +0.000 HD
ENDBRANCH   7  12
ENDBRANCH   1   7
BRANCH   4  16
ATOM     16  C   UNL     1       0.675  10.720  18.700  0.00  0.00    +0.000 C 
BRANCH  16  17
ATOM     17  N   UNL     1      -0.631  10.801  19.319  0.00  0.00    +0.000 N 
ATOM     18  C   UNL     1      -1.663  10.743  18.390  0.00  0.00    +0.000 A 
ATOM     19  N   UNL     1      -1.507  10.025  17.266  0.00  0.00    +0.000 NA
ATOM     20  C   UNL     1      -2.520  10.022  16.386  0.00  0.00    +0.000 A 
ATOM     21  C   UNL     1      -3.691  10.709  16.581  0.00  0.00    +0.000 A 
ATOM     22  C   UNL     1      -3.762  11.408  17.760  0.00  0.00    +0.000 A 
ATOM     23  N   UNL     1      -2.767  11.448  18.670  0.00  0.00    +0.000 NA
ATOM     24  H   UNL     1      -0.795  11.621  19.890  0.00  0.00    +0.000 HD
ENDBRANCH  16  17
ENDBRANCH   4  16
TORSDOF 4
ENDMDL
MODEL 8
REMARK VINA RESULT:      -7.7      6.345      9.463
REMARK  Name = 
REMARK  4 active torsions:
REMARK  status: ('A' for Active; 'I' for Inactive)
REMARK    1  A    between atoms: N_5  and  C_6
REMARK    2  A    between atoms: C_6  and  C_7
REMARK    3  A    between atoms: C_10  and  C_11
REMARK    4  A    between atoms: C_11  and  N_12
REMARK                            x       y       z     vdW  Elec       q    Type
REMARK                         _______ _______ _______ _____ _____    ______ ____
ROOT
ATOM      1  C   UNL     1       2.259   7.822  18.877  0.00  0.00    +0.000 A 
ATOM      2  C   UNL     1       1.655   8.142  20.100  0.00  0.00    +0.000 A 
ATOM      3  C   UNL     1       0.804   9.245  20.203  0.00  0.00    +0.000 A 
ATOM      4  C   UNL     1       0.522  10.039  19.081  0.00  0.00    +0.000 A 
ATOM      5  C   UNL     1       1.110   9.708  17.855  0.00  0.00    +0.000 A 
ATOM      6  C   UNL     1       1.961   8.606  17.751  0.00  0.00    +0.000 A 
ENDROOT
BRANCH   1   7
ATOM      7  C   UNL     1       3.246   6.685  18.773  0.00  0.00    +0.000 C 
BRANCH   7  12
ATOM      8  C   UNL     1       1.437   2.509  21.130  0.00  0.00    +0.000 A 
ATOM      9  C   UNL     1       2.068   3.636  21.631  0.00  0.00    +0.000 A 
ATOM     10  C   UNL     1       2.466   4.642  20.749  0.00  0.00    +0.000 A 
ATOM     11  C   UNL     1       2.227   4.503  19.383  0.00  0.00    +0.000 A 
ATOM     12  N   UNL     1       2.596   5.442  18.454  0.00  0.00    +0.000 N 
ATOM     13  N   UNL     1       1.613   3.410  18.895  0.00  0.00    +0.000 NA
ATOM     14  C   UNL     1       1.234   2.444  19.765  0.00  0.00    +0.000 A 
ATOM     15  H   UNL     1       2.344   5.221  17.502  0.00  0.00    +0.000 HD
ENDBRANCH   7  12
ENDBRANCH   1   7
BRANCH   4  16
ATOM     16  C   UNL     1      -0.411  11.221  19.199  0.00  0.00    +0.000 C 
BRANCH  16  17
ATOM     17  N   UNL     1      -0.827  11.675  17.888  0.00  0.00    +0.000 N 
ATOM     18  C   UNL     1      -2.200  11.577  17.703  0.00  0.00    +0.000 A 
ATOM     19  N   UNL     1      -3.026  11.736  18.750  0.00  0.00    +0.000 NA
ATOM     20  C   UNL     1      -4.343  11.604  18.528  0.00  0.00    +0.000 A 
ATOM     21  C   UNL     1      -4.875  11.319  17.296  0.00  0.00    +0.000 A 
ATOM     22  C   UNL     1      -3.956  11.182  16.286  0.00  0.00    +0.000 A 
ATOM     23  N   UNL     1      -2.624  11.296  16.464  0.00  0.00    +0.000 NA
ATOM     24  H   UNL     1      -0.390  11.206  17.104  0.00  0.00    +0.000 HD
ENDBRANCH  16  17
ENDBRANCH   4  16
TORSDOF 4
ENDMDL
MODEL 9
REMARK VINA RESULT:      -7.7      0.930      9.252
REMARK  Name = 
REMARK  4 active torsions:
REMARK  status: ('A' for Active; 'I' for Inactive)
REMARK    1  A    between atoms: N_5  and  C_6
REMARK    2  A    between atoms: C_6  and  C_7
REMARK    3  A    between atoms: C_10  and  C_11
REMARK    4  A    between atoms: C_11  and  N_12
REMARK                            x       y       z     vdW  Elec       q    Type
REMARK                         _______ _______ _______ _____ _____    ______ ____
ROOT
ATOM      1  C   UNL     1       6.070   5.254  18.200  0.00  0.00    +0.000 A 
ATOM      2  C   UNL     1       7.271   5.441  18.896  0.00  0.00    +0.000 A 
ATOM      3  C   UNL     1       8.014   6.612  18.727  0.00  0.00    +0.000 A 
ATOM      4  C   UNL     1       7.560   7.631  17.875  0.00  0.00    +0.000 A 
ATOM      5  C   UNL     1       6.351   7.453  17.193  0.00  0.00    +0.000 A 
ATOM      6  C   UNL     1       5.608   6.281  17.361  0.00  0.00    +0.000 A 
ENDROOT
BRANCH   1   7
ATOM      7  C   UNL     1       5.303   3.959  18.307  0.00  0.00    +0.000 C 
BRANCH   7  12
ATOM      8  C   UNL     1       1.230   2.935  21.246  0.00  0.00    +0.000 A 
ATOM      9  C   UNL     1       2.568   2.609  21.398  0.00  0.00    +0.000 A 
ATOM     10  C   UNL     1       3.483   3.021  20.429  0.00  0.00    +0.000 A 
ATOM     11  C   UNL     1       3.046   3.750  19.324  0.00  0.00    +0.000 A 
ATOM     12  N   UNL     1       3.882   4.181  18.326  0.00  0.00    +0.000 N 
ATOM     13  N   UNL     1       1.747   4.069  19.175  0.00  0.00    +0.000 NA
ATOM     14  C   UNL     1       0.873   3.661  20.125  0.00  0.00    +0.000 A 
ATOM     15  H   UNL     1       3.434   4.715  17.595  0.00  0.00    +0.000 HD
ENDBRANCH   7  12
ENDBRANCH   1   7
BRANCH   4  16
ATOM     16  C   UNL     1       8.362   8.900  17.710  0.00  0.00    +0.000 C 
BRANCH  16  17
ATOM     17  N   UNL     1       8.856   9.360  18.991  0.00  0.00    +0.000 N 
ATOM     18  C   UNL     1       9.387  10.643  18.927  0.00  0.00    +0.000 A 
ATOM     19  N   UNL     1       8.878  11.530  18.057  0.00  0.00    +0.000 NA
ATOM     20  C   UNL     1       9.442  12.747  18.010  0.00  0.00    +0.000 A 
ATOM     21  C   UNL     1      10.499  13.119  18.801  0.00  0.00    +0.000 A 
ATOM     22  C   UNL     1      10.947  12.149  19.663  0.00  0.00    +0.000 A 
ATOM     23  N   UNL     1      10.418  10.911  19.739  0.00  0.00    +0.000 NA
ATOM     24  H   UNL     1       9.558   8.773  19.426  0.00  0.00    +0.000 HD
ENDBRANCH  16  17
ENDBRANCH   4  16
TORSDOF 4
ENDMDL
