MODEL 1
REMARK VINA RESULT:      -9.6      0.000      0.000
REMARK  Name = 
REMARK  5 active torsions:
REMARK  status: ('A' for Active; 'I' for Inactive)
REMARK    1  A    between atoms: C_4  and  C_5
REMARK    2  A    between atoms: C_6  and  C_7
REMARK    3  A    between atoms: C_16  and  C_17
REMARK    4  A    between atoms: C_17  and  C_18
REMARK    5  A    between atoms: C_17  and  C_24
REMARK                            x       y       z     vdW  Elec       q    Type
REMARK                         _______ _______ _______ _____ _____    ______ ____
ROOT
ATOM      1  O   UNL     1       1.183   2.410  22.081  0.00  0.00    +0.000 OA
ATOM      2  C   UNL     1       1.745   3.127  21.259  0.00  0.00    +0.000 A 
ATOM      3  C   UNL     1       1.442   4.574  21.180  0.00  0.00    +0.000 A 
ATOM      4  C   UNL     1       2.032   5.398  20.290  0.00  0.00    +0.000 A 
ATOM      5  C   UNL     1       3.047   4.812  19.372  0.00  0.00    +0.000 A 
ATOM      6  C   UNL     1       3.731   5.581  18.413  0.00  0.00    +0.000 A 
ATOM      7  C   UNL     1       4.715   5.013  17.580  0.00  0.00    +0.000 A 
ATOM      8  C   UNL     1       4.992   3.641  17.709  0.00  0.00    +0.000 A 
ATOM      9  C   UNL     1       4.302   2.856  18.631  0.00  0.00    +0.000 A 
ATOM     10  C   UNL     1       3.343   3.443  19.456  0.00  0.00    +0.000 A 
ATOM     11  N   UNL     1       2.676   2.645  20.388  0.00  0.00    +0.000 N 
ATOM     12  H   UNL     1       2.881   1.657  20.460  0.00  0.00    +0.000 HD
ENDROOT
BRANCH   4  13
ATOM     13  C   UNL     1       1.716   6.824  20.324  0.00  0.00    +0.000 C 
ATOM     14  C   UNL     1       0.960   7.422  21.263  0.00  0.00    +0.000 C 
BRANCH  14  15
ATOM     15  C   UNL     1       0.649   8.853  21.188  0.00  0.00    +0.000 A 
ATOM     16  C   UNL     1      -0.013   9.493  22.244  0.00  0.00    +0.000 A 
ATOM     17  C   UNL     1      -0.297  10.861  22.173  0.00  0.00    +0.000 A 
ATOM     18  C   UNL     1       0.076  11.593  21.047  0.00  0.00    +0.000 A 
ATOM     19  C   UNL     1       0.732  10.952  20.002  0.00  0.00    +0.000 A 
ATOM     20  F   UNL     1       1.093  11.655  18.922  0.00  0.00    +0.000 F 
ATOM     21  C   UNL     1       1.021   9.592  20.062  0.00  0.00    +0.000 A 
ENDBRANCH  14  15
ENDBRANCH   4  13
BRANCH   7  22
ATOM     22  C   UNL     1       5.477   5.894  16.577  0.00  0.00    +0.000 C 
BRANCH  22  23
ATOM     23  C   UNL     1       5.886   5.217  15.256  0.00  0.00    +0.000 A 
ATOM     24  C   UNL     1       7.184   5.287  14.724  0.00  0.00    +0.000 A 
ATOM     25  C   UNL     1       7.523   4.599  13.554  0.00  0.00    +0.000 A 
ATOM     26  C   UNL     1       6.571   3.822  12.903  0.00  0.00    +0.000 A 
ATOM     27 CL   UNL     1       7.006   2.942  11.490  0.00  0.00    +0.000 Cl
ATOM     28  C   UNL     1       5.275   3.744  13.398  0.00  0.00    +0.000 A 
ATOM     29  C   UNL     1       4.936   4.434  14.566  0.00  0.00    +0.000 A 
ENDBRANCH  22  23
BRANCH  22  30
ATOM     30  C   UNL     1       6.604   6.661  17.279  0.00  0.00    +0.000 A 
ATOM     31  C   UNL     1       7.392   6.068  18.281  0.00  0.00    +0.000 A 
ATOM     32  C   UNL     1       8.351   6.813  18.968  0.00  0.00    +0.000 A 
ATOM     33  C   UNL     1       8.537   8.160  18.666  0.00  0.00    +0.000 A 
ATOM     34  C   UNL     1       7.775   8.761  17.667  0.00  0.00    +0.000 A 
ATOM     35  C   UNL     1       6.815   8.018  16.977  0.00  0.00    +0.000 A 
ENDBRANCH  22  30
ENDBRANCH   7  22
TORSDOF 5
ENDMDL
MODEL 2
REMARK VINA RESULT:      -9.5      0.831      1.434
REMARK  Name = 
REMARK  5 active torsions:
REMARK  status: ('A' for Active; 'I' for Inactive)
REMARK    1  A    between atoms: C_4  and  C_5
REMARK    2  A    between atoms: C_6  and  C_7
REMARK    3  A    between atoms: C_16  and  C_17
REMARK    4  A    between atoms: C_17  and  C_18
REMARK    5  A    between atoms: C_17  and  C_24
REMARK                            x       y       z     vdW  Elec       q    Type
REMARK                         _______ _______ _______ _____ _____    ______ ____
ROOT
ATOM      1  O   UNL     1       1.207   2.292  22.206  0.00  0.00    +0.000 OA
ATOM      2  C   UNL     1       1.762   3.001  21.373  0.00  0.00    +0.000 A 
ATOM      3  C   UNL     1       1.501   4.458  21.319  0.00  0.00    +0.000 A 
ATOM      4  C   UNL     1       2.084   5.274  20.419  0.00  0.00    +0.000 A 
ATOM      5  C   UNL     1       3.049   4.668  19.460  0.00  0.00    +0.000 A 
ATOM      6  C   UNL     1       3.723   5.427  18.486  0.00  0.00    +0.000 A 
ATOM      7  C   UNL     1       4.660   4.840  17.613  0.00  0.00    +0.000 A 
ATOM      8  C   UNL     1       4.899   3.459  17.718  0.00  0.00    +0.000 A 
ATOM      9  C   UNL     1       4.218   2.684  18.654  0.00  0.00    +0.000 A 
ATOM     10  C   UNL     1       3.306   3.290  19.519  0.00  0.00    +0.000 A 
ATOM     11  N   UNL     1       2.647   2.502  20.465  0.00  0.00    +0.000 N 
ATOM     12  H   UNL     1       2.825   1.507  20.519  0.00  0.00    +0.000 HD
ENDROOT
BRANCH   4  13
ATOM     13  C   UNL     1       1.814   6.708  20.479  0.00  0.00    +0.000 C 
ATOM     14  C   UNL     1       0.854   7.278  21.230  0.00  0.00    +0.000 C 
BRANCH  14  15
ATOM     15  C   UNL     1       0.617   8.725  21.187  0.00  0.00    +0.000 A 
ATOM     16  C   UNL     1       1.015   9.477  20.073  0.00  0.00    +0.000 A 
ATOM     17  C   UNL     1       0.778  10.855  20.032  0.00  0.00    +0.000 A 
ATOM     18  C   UNL     1       0.146  11.486  21.102  0.00  0.00    +0.000 A 
ATOM     19  C   UNL     1      -0.245  10.735  22.204  0.00  0.00    +0.000 A 
ATOM     20  F   UNL     1      -0.855  11.340  23.230  0.00  0.00    +0.000 F 
ATOM     21  C   UNL     1      -0.016   9.363  22.257  0.00  0.00    +0.000 A 
ENDBRANCH  14  15
ENDBRANCH   4  13
BRANCH   7  22
ATOM     22  C   UNL     1       5.413   5.709  16.593  0.00  0.00    +0.000 C 
BRANCH  22  23
ATOM     23  C   UNL     1       5.819   5.015  15.281  0.00  0.00    +0.000 A 
ATOM     24  C   UNL     1       4.915   4.311  14.469  0.00  0.00    +0.000 A 
ATOM     25  C   UNL     1       5.319   3.754  13.251  0.00  0.00    +0.000 A 
ATOM     26  C   UNL     1       6.633   3.901  12.821  0.00  0.00    +0.000 A 
ATOM     27 CL   UNL     1       7.114   3.254  11.302  0.00  0.00    +0.000 Cl
ATOM     28  C   UNL     1       7.555   4.582  13.609  0.00  0.00    +0.000 A 
ATOM     29  C   UNL     1       7.151   5.135  14.828  0.00  0.00    +0.000 A 
ENDBRANCH  22  23
BRANCH  22  30
ATOM     30  C   UNL     1       6.540   6.491  17.280  0.00  0.00    +0.000 A 
ATOM     31  C   UNL     1       7.309   5.931  18.314  0.00  0.00    +0.000 A 
ATOM     32  C   UNL     1       8.267   6.692  18.984  0.00  0.00    +0.000 A 
ATOM     33  C   UNL     1       8.472   8.024  18.631  0.00  0.00    +0.000 A 
ATOM     34  C   UNL     1       7.730   8.593  17.598  0.00  0.00    +0.000 A 
ATOM     35  C   UNL     1       6.770   7.833  16.927  0.00  0.00    +0.000 A 
ENDBRANCH  22  30
ENDBRANCH   7  22
TORSDOF 5
ENDMDL
MODEL 3
REMARK VINA RESULT:      -9.3      0.219      1.189
REMARK  Name = 
REMARK  5 active torsions:
REMARK  status: ('A' for Active; 'I' for Inactive)
REMARK    1  A    between atoms: C_4  and  C_5
REMARK    2  A    between atoms: C_6  and  C_7
REMARK    3  A    between atoms: C_16  and  C_17
REMARK    4  A    between atoms: C_17  and  C_18
REMARK    5  A    between atoms: C_17  and  C_24
REMARK                            x       y       z     vdW  Elec       q    Type
REMARK                         _______ _______ _______ _____ _____    ______ ____
ROOT
ATOM      1  O   UNL     1       1.157   2.276  22.247  0.00  0.00    +0.000 OA
ATOM      2  C   UNL     1       1.707   3.000  21.422  0.00  0.00    +0.000 A 
ATOM      3  C   UNL     1       1.462   4.460  21.409  0.00  0.00    +0.000 A 
ATOM      4  C   UNL     1       2.041   5.292  20.520  0.00  0.00    +0.000 A 
ATOM      5  C   UNL     1       2.984   4.699  19.531  0.00  0.00    +0.000 A 
ATOM      6  C   UNL     1       3.651   5.475  18.566  0.00  0.00    +0.000 A 
ATOM      7  C   UNL     1       4.568   4.898  17.664  0.00  0.00    +0.000 A 
ATOM      8  C   UNL     1       4.793   3.513  17.731  0.00  0.00    +0.000 A 
ATOM      9  C   UNL     1       4.117   2.723  18.659  0.00  0.00    +0.000 A 
ATOM     10  C   UNL     1       3.226   3.318  19.552  0.00  0.00    +0.000 A 
ATOM     11  N   UNL     1       2.572   2.513  20.488  0.00  0.00    +0.000 N 
ATOM     12  H   UNL     1       2.739   1.515  20.516  0.00  0.00    +0.000 HD
ENDROOT
BRANCH   4  13
ATOM     13  C   UNL     1       1.788   6.727  20.619  0.00  0.00    +0.000 C 
ATOM     14  C   UNL     1       0.732   7.280  21.245  0.00  0.00    +0.000 C 
BRANCH  14  15
ATOM     15  C   UNL     1       0.529   8.732  21.250  0.00  0.00    +0.000 A 
ATOM     16  C   UNL     1      -0.059   9.364  22.353  0.00  0.00    +0.000 A 
ATOM     17  C   UNL     1      -0.241  10.751  22.357  0.00  0.00    +0.000 A 
ATOM     18  C   UNL     1       0.162  11.510  21.260  0.00  0.00    +0.000 A 
ATOM     19  C   UNL     1       0.744  10.877  20.168  0.00  0.00    +0.000 A 
ATOM     20  F   UNL     1       1.133  11.606  19.116  0.00  0.00    +0.000 F 
ATOM     21  C   UNL     1       0.931   9.499  20.152  0.00  0.00    +0.000 A 
ENDBRANCH  14  15
ENDBRANCH   4  13
BRANCH   7  22
ATOM     22  C   UNL     1       5.315   5.785  16.654  0.00  0.00    +0.000 C 
BRANCH  22  23
ATOM     23  C   UNL     1       5.769   5.096  15.355  0.00  0.00    +0.000 A 
ATOM     24  C   UNL     1       4.900   4.368  14.525  0.00  0.00    +0.000 A 
ATOM     25  C   UNL     1       5.347   3.817  13.319  0.00  0.00    +0.000 A 
ATOM     26  C   UNL     1       6.667   3.993  12.919  0.00  0.00    +0.000 A 
ATOM     27 CL   UNL     1       7.199   3.352  11.414  0.00  0.00    +0.000 Cl
ATOM     28  C   UNL     1       7.553   4.697  13.726  0.00  0.00    +0.000 A 
ATOM     29  C   UNL     1       7.107   5.245  14.933  0.00  0.00    +0.000 A 
ENDBRANCH  22  23
BRANCH  22  30
ATOM     30  C   UNL     1       6.404   6.604  17.359  0.00  0.00    +0.000 A 
ATOM     31  C   UNL     1       6.670   7.939  17.009  0.00  0.00    +0.000 A 
ATOM     32  C   UNL     1       7.725   8.635  17.601  0.00  0.00    +0.000 A 
ATOM     33  C   UNL     1       8.529   8.008  18.549  0.00  0.00    +0.000 A 
ATOM     34  C   UNL     1       8.272   6.690  18.919  0.00  0.00    +0.000 A 
ATOM     35  C   UNL     1       7.218   5.991  18.328  0.00  0.00    +0.000 A 
ENDBRANCH  22  30
ENDBRANCH   7  22
TORSDOF 5
ENDMDL
MODEL 4
REMARK VINA RESULT:      -8.7      0.816      1.722
REMARK  Name = 
REMARK  5 active torsions:
REMARK  status: ('A' for Active; 'I' for Inactive)
REMARK    1  A    between atoms: C_4  and  C_5
REMARK    2  A    between atoms: C_6  and  C_7
REMARK    3  A    between atoms: C_16  and  C_17
REMARK    4  A    between atoms: C_17  and  C_18
REMARK    5  A    between atoms: C_17  and  C_24
REMARK                            x       y       z     vdW  Elec       q    Type
REMARK                         _______ _______ _______ _____ _____    ______ ____
ROOT
ATOM      1  O   UNL     1       1.270   2.157  22.297  0.00  0.00    +0.000 OA
ATOM      2  C   UNL     1       1.792   2.890  21.463  0.00  0.00    +0.000 A 
ATOM      3  C   UNL     1       1.430   4.324  21.379  0.00  0.00    +0.000 A 
ATOM      4  C   UNL     1       1.974   5.165  20.477  0.00  0.00    +0.000 A 
ATOM      5  C   UNL     1       3.000   4.614  19.549  0.00  0.00    +0.000 A 
ATOM      6  C   UNL     1       3.639   5.403  18.576  0.00  0.00    +0.000 A 
ATOM      7  C   UNL     1       4.634   4.870  17.733  0.00  0.00    +0.000 A 
ATOM      8  C   UNL     1       4.967   3.511  17.866  0.00  0.00    +0.000 A 
ATOM      9  C   UNL     1       4.322   2.706  18.801  0.00  0.00    +0.000 A 
ATOM     10  C   UNL     1       3.352   3.259  19.637  0.00  0.00    +0.000 A 
ATOM     11  N   UNL     1       2.729   2.441  20.582  0.00  0.00    +0.000 N 
ATOM     12  H   UNL     1       2.975   1.462  20.657  0.00  0.00    +0.000 HD
ENDROOT
BRANCH   4  13
ATOM     13  C   UNL     1       1.601   6.577  20.507  0.00  0.00    +0.000 C 
ATOM     14  C   UNL     1       1.829   7.454  19.511  0.00  0.00    +0.000 C 
BRANCH  14  15
ATOM     15  C   UNL     1       1.468   8.868  19.650  0.00  0.00    +0.000 A 
ATOM     16  C   UNL     1       1.657   9.757  18.583  0.00  0.00    +0.000 A 
ATOM     17  C   UNL     1       1.302  11.103  18.716  0.00  0.00    +0.000 A 
ATOM     18  C   UNL     1       0.759  11.566  19.914  0.00  0.00    +0.000 A 
ATOM     19  C   UNL     1       0.576  10.680  20.968  0.00  0.00    +0.000 A 
ATOM     20  F   UNL     1       0.052  11.123  22.117  0.00  0.00    +0.000 F 
ATOM     21  C   UNL     1       0.924   9.338  20.848  0.00  0.00    +0.000 A 
ENDBRANCH  14  15
ENDBRANCH   4  13
BRANCH   7  22
ATOM     22  C   UNL     1       5.346   5.774  16.714  0.00  0.00    +0.000 C 
BRANCH  22  23
ATOM     23  C   UNL     1       5.800   5.097  15.408  0.00  0.00    +0.000 A 
ATOM     24  C   UNL     1       4.949   4.315  14.610  0.00  0.00    +0.000 A 
ATOM     25  C   UNL     1       5.391   3.776  13.397  0.00  0.00    +0.000 A 
ATOM     26  C   UNL     1       6.688   4.019  12.959  0.00  0.00    +0.000 A 
ATOM     27 CL   UNL     1       7.212   3.391  11.445  0.00  0.00    +0.000 Cl
ATOM     28  C   UNL     1       7.558   4.778  13.734  0.00  0.00    +0.000 A 
ATOM     29  C   UNL     1       7.116   5.314  14.947  0.00  0.00    +0.000 A 
ENDBRANCH  22  23
BRANCH  22  30
ATOM     30  C   UNL     1       6.423   6.621  17.404  0.00  0.00    +0.000 A 
ATOM     31  C   UNL     1       6.670   7.954  17.032  0.00  0.00    +0.000 A 
ATOM     32  C   UNL     1       7.715   8.674  17.612  0.00  0.00    +0.000 A 
ATOM     33  C   UNL     1       8.528   8.075  18.572  0.00  0.00    +0.000 A 
ATOM     34  C   UNL     1       8.288   6.760  18.964  0.00  0.00    +0.000 A 
ATOM     35  C   UNL     1       7.244   6.036  18.385  0.00  0.00    +0.000 A 
ENDBRANCH  22  30
ENDBRANCH   7  22
TORSDOF 5
ENDMDL
MODEL 5
REMARK VINA RESULT:      -8.7      0.758      1.025
REMARK  Name = 
REMARK  5 active torsions:
REMARK  status: ('A' for Active; 'I' for Inactive)
REMARK    1  A    between atoms: C_4  and  C_5
REMARK    2  A    between atoms: C_6  and  C_7
REMARK    3  A    between atoms: C_16  and  C_17
REMARK    4  A    between atoms: C_17  and  C_18
REMARK    5  A    between atoms: C_17  and  C_24
REMARK                            x       y       z     vdW  Elec       q    Type
REMARK                         _______ _______ _______ _____ _____    ______ ____
ROOT
ATOM      1  O   UNL     1       0.865   2.332  21.646  0.00  0.00    +0.000 OA
ATOM      2  C   UNL     1       1.474   3.051  20.859  0.00  0.00    +0.000 A 
ATOM      3  C   UNL     1       1.253   4.515  20.842  0.00  0.00    +0.000 A 
ATOM      4  C   UNL     1       1.896   5.343  19.993  0.00  0.00    +0.000 A 
ATOM      5  C   UNL     1       2.884   4.740  19.057  0.00  0.00    +0.000 A 
ATOM      6  C   UNL     1       3.618   5.510  18.137  0.00  0.00    +0.000 A 
ATOM      7  C   UNL     1       4.576   4.924  17.284  0.00  0.00    +0.000 A 
ATOM      8  C   UNL     1       4.774   3.535  17.354  0.00  0.00    +0.000 A 
ATOM      9  C   UNL     1       4.033   2.751  18.236  0.00  0.00    +0.000 A 
ATOM     10  C   UNL     1       3.102   3.355  19.082  0.00  0.00    +0.000 A 
ATOM     11  N   UNL     1       2.383   2.556  19.973  0.00  0.00    +0.000 N 
ATOM     12  H   UNL     1       2.531   1.555  20.003  0.00  0.00    +0.000 HD
ENDROOT
BRANCH   4  13
ATOM     13  C   UNL     1       1.661   6.781  20.088  0.00  0.00    +0.000 C 
ATOM     14  C   UNL     1       1.825   7.655  19.078  0.00  0.00    +0.000 C 
BRANCH  14  15
ATOM     15  C   UNL     1       1.617   9.093  19.279  0.00  0.00    +0.000 A 
ATOM     16  C   UNL     1       1.018   9.567  20.455  0.00  0.00    +0.000 A 
ATOM     17  C   UNL     1       0.831  10.939  20.646  0.00  0.00    +0.000 A 
ATOM     18  C   UNL     1       1.239  11.843  19.667  0.00  0.00    +0.000 A 
ATOM     19  C   UNL     1       1.832  11.366  18.503  0.00  0.00    +0.000 A 
ATOM     20  F   UNL     1       2.226  12.233  17.563  0.00  0.00    +0.000 F 
ATOM     21  C   UNL     1       2.023  10.003  18.300  0.00  0.00    +0.000 A 
ENDBRANCH  14  15
ENDBRANCH   4  13
BRANCH   7  22
ATOM     22  C   UNL     1       5.394   5.804  16.326  0.00  0.00    +0.000 C 
BRANCH  22  23
ATOM     23  C   UNL     1       5.855   5.133  15.019  0.00  0.00    +0.000 A 
ATOM     24  C   UNL     1       7.154   5.267  14.500  0.00  0.00    +0.000 A 
ATOM     25  C   UNL     1       7.544   4.583  13.344  0.00  0.00    +0.000 A 
ATOM     26  C   UNL     1       6.644   3.747  12.693  0.00  0.00    +0.000 A 
ATOM     27 CL   UNL     1       7.143   2.873  11.298  0.00  0.00    +0.000 Cl
ATOM     28  C   UNL     1       5.348   3.605  13.175  0.00  0.00    +0.000 A 
ATOM     29  C   UNL     1       4.958   4.291  14.329  0.00  0.00    +0.000 A 
ENDBRANCH  22  23
BRANCH  22  30
ATOM     30  C   UNL     1       6.498   6.550  17.087  0.00  0.00    +0.000 A 
ATOM     31  C   UNL     1       7.283   5.915  18.065  0.00  0.00    +0.000 A 
ATOM     32  C   UNL     1       8.218   6.637  18.807  0.00  0.00    +0.000 A 
ATOM     33  C   UNL     1       8.383   8.002  18.584  0.00  0.00    +0.000 A 
ATOM     34  C   UNL     1       7.624   8.645  17.609  0.00  0.00    +0.000 A 
ATOM     35  C   UNL     1       6.687   7.926  16.865  0.00  0.00    +0.000 A 
ENDBRANCH  22  30
ENDBRANCH   7  22
TORSDOF 5
ENDMDL
MODEL 6
REMARK VINA RESULT:      -8.1      5.453      8.648
REMARK  Name = 
REMARK  5 active torsions:
REMARK  status: ('A' for Active; 'I' for Inactive)
REMARK    1  A    between atoms: C_4  and  C_5
REMARK    2  A    between atoms: C_6  and  C_7
REMARK    3  A    between atoms: C_16  and  C_17
REMARK    4  A    between atoms: C_17  and  C_18
REMARK    5  A    between atoms: C_17  and  C_24
REMARK                            x       y       z     vdW  Elec       q    Type
REMARK                         _______ _______ _______ _____ _____    ______ ____
ROOT
ATOM      1  O   UNL     1      -7.110  11.483  18.401  0.00  0.00    +0.000 OA
ATOM      2  C   UNL     1      -5.890  11.518  18.527  0.00  0.00    +0.000 A 
ATOM      3  C   UNL     1      -5.255  12.394  19.538  0.00  0.00    +0.000 A 
ATOM      4  C   UNL     1      -3.920  12.467  19.709  0.00  0.00    +0.000 A 
ATOM      5  C   UNL     1      -3.065  11.602  18.850  0.00  0.00    +0.000 A 
ATOM      6  C   UNL     1      -1.662  11.591  18.950  0.00  0.00    +0.000 A 
ATOM      7  C   UNL     1      -0.873  10.737  18.152  0.00  0.00    +0.000 A 
ATOM      8  C   UNL     1      -1.519   9.901  17.226  0.00  0.00    +0.000 A 
ATOM      9  C   UNL     1      -2.906   9.922  17.089  0.00  0.00    +0.000 A 
ATOM     10  C   UNL     1      -3.667  10.763  17.901  0.00  0.00    +0.000 A 
ATOM     11  N   UNL     1      -5.056  10.756  17.763  0.00  0.00    +0.000 N 
ATOM     12  H   UNL     1      -5.504  10.154  17.084  0.00  0.00    +0.000 HD
ENDROOT
BRANCH   4  13
ATOM     13  C   UNL     1      -3.384  13.314  20.772  0.00  0.00    +0.000 C 
ATOM     14  C   UNL     1      -3.740  13.238  22.068  0.00  0.00    +0.000 C 
BRANCH  14  15
ATOM     15  C   UNL     1      -3.189  14.166  23.061  0.00  0.00    +0.000 A 
ATOM     16  C   UNL     1      -3.438  13.976  24.427  0.00  0.00    +0.000 A 
ATOM     17  C   UNL     1      -2.902  14.858  25.370  0.00  0.00    +0.000 A 
ATOM     18  C   UNL     1      -2.118  15.933  24.954  0.00  0.00    +0.000 A 
ATOM     19  C   UNL     1      -1.875  16.116  23.598  0.00  0.00    +0.000 A 
ATOM     20  F   UNL     1      -1.120  17.146  23.198  0.00  0.00    +0.000 F 
ATOM     21  C   UNL     1      -2.403  15.246  22.649  0.00  0.00    +0.000 A 
ENDBRANCH  14  15
ENDBRANCH   4  13
BRANCH   7  22
ATOM     22  C   UNL     1       0.654  10.716  18.323  0.00  0.00    +0.000 C 
BRANCH  22  23
ATOM     23  C   UNL     1       1.256   9.409  18.870  0.00  0.00    +0.000 A 
ATOM     24  C   UNL     1       1.046   8.954  20.182  0.00  0.00    +0.000 A 
ATOM     25  C   UNL     1       1.560   7.725  20.611  0.00  0.00    +0.000 A 
ATOM     26  C   UNL     1       2.285   6.929  19.732  0.00  0.00    +0.000 A 
ATOM     27 CL   UNL     1       2.876   5.399  20.251  0.00  0.00    +0.000 Cl
ATOM     28  C   UNL     1       2.521   7.359  18.431  0.00  0.00    +0.000 A 
ATOM     29  C   UNL     1       2.009   8.588  18.003  0.00  0.00    +0.000 A 
ENDBRANCH  22  23
BRANCH  22  30
ATOM     30  C   UNL     1       1.135  11.989  19.032  0.00  0.00    +0.000 A 
ATOM     31  C   UNL     1       1.953  12.932  18.387  0.00  0.00    +0.000 A 
ATOM     32  C   UNL     1       2.451  14.036  19.081  0.00  0.00    +0.000 A 
ATOM     33  C   UNL     1       2.140  14.214  20.427  0.00  0.00    +0.000 A 
ATOM     34  C   UNL     1       1.319  13.297  21.078  0.00  0.00    +0.000 A 
ATOM     35  C   UNL     1       0.819  12.191  20.388  0.00  0.00    +0.000 A 
ENDBRANCH  22  30
ENDBRANCH   7  22
TORSDOF 5
ENDMDL
MODEL 7
REMARK VINA RESULT:      -7.8      3.957      8.688
REMARK  Name = 
REMARK  5 active torsions:
REMARK  status: ('A' for Active; 'I' for Inactive)
REMARK    1  A    between atoms: C_4  and  C_5
REMARK    2  A    between atoms: C_6  and  C_7
REMARK    3  A    between atoms: C_16  and  C_17
REMARK    4  A    between atoms: C_17  and  C_18
REMARK    5  A    between atoms: C_17  and  C_24
REMARK                            x       y       z     vdW  Elec       q    Type
REMARK                         _______ _______ _______ _____ _____    ______ ____
ROOT
ATOM      1  O   UNL     1       2.474   3.624  21.990  0.00  0.00    +0.000 OA
ATOM      2  C   UNL     1       2.405   4.623  21.280  0.00  0.00    +0.000 A 
ATOM      3  C   UNL     1       3.181   4.716  20.022  0.00  0.00    +0.000 A 
ATOM      4  C   UNL     1       3.140   5.794  19.214  0.00  0.00    +0.000 A 
ATOM      5  C   UNL     1       2.250   6.921  19.610  0.00  0.00    +0.000 A 
ATOM      6  C   UNL     1       2.122   8.089  18.837  0.00  0.00    +0.000 A 
ATOM      7  C   UNL     1       1.246   9.127  19.212  0.00  0.00    +0.000 A 
ATOM      8  C   UNL     1       0.507   8.985  20.398  0.00  0.00    +0.000 A 
ATOM      9  C   UNL     1       0.645   7.849  21.194  0.00  0.00    +0.000 A 
ATOM     10  C   UNL     1       1.506   6.827  20.795  0.00  0.00    +0.000 A 
ATOM     11  N   UNL     1       1.616   5.688  21.595  0.00  0.00    +0.000 N 
ATOM     12  H   UNL     1       1.083   5.607  22.452  0.00  0.00    +0.000 HD
ENDROOT
BRANCH   4  13
ATOM     13  C   UNL     1       3.891   5.774  17.962  0.00  0.00    +0.000 C 
ATOM     14  C   UNL     1       4.567   4.710  17.487  0.00  0.00    +0.000 C 
BRANCH  14  15
ATOM     15  C   UNL     1       5.340   4.797  16.244  0.00  0.00    +0.000 A 
ATOM     16  C   UNL     1       6.550   5.504  16.208  0.00  0.00    +0.000 A 
ATOM     17  C   UNL     1       7.289   5.574  15.023  0.00  0.00    +0.000 A 
ATOM     18  C   UNL     1       6.823   4.942  13.872  0.00  0.00    +0.000 A 
ATOM     19  C   UNL     1       5.623   4.243  13.914  0.00  0.00    +0.000 A 
ATOM     20  F   UNL     1       5.177   3.634  12.810  0.00  0.00    +0.000 F 
ATOM     21  C   UNL     1       4.878   4.165  15.087  0.00  0.00    +0.000 A 
ENDBRANCH  14  15
ENDBRANCH   4  13
BRANCH   7  22
ATOM     22  C   UNL     1       1.095  10.368  18.317  0.00  0.00    +0.000 C 
BRANCH  22  23
ATOM     23  C   UNL     1       1.826  11.637  18.791  0.00  0.00    +0.000 A 
ATOM     24  C   UNL     1       2.637  12.418  17.951  0.00  0.00    +0.000 A 
ATOM     25  C   UNL     1       3.227  13.601  18.412  0.00  0.00    +0.000 A 
ATOM     26  C   UNL     1       3.006  14.025  19.718  0.00  0.00    +0.000 A 
ATOM     27 CL   UNL     1       3.696  15.502  20.266  0.00  0.00    +0.000 Cl
ATOM     28  C   UNL     1       2.219  13.266  20.577  0.00  0.00    +0.000 A 
ATOM     29  C   UNL     1       1.633  12.083  20.116  0.00  0.00    +0.000 A 
ENDBRANCH  22  23
BRANCH  22  30
ATOM     30  C   UNL     1      -0.375  10.581  17.933  0.00  0.00    +0.000 A 
ATOM     31  C   UNL     1      -1.119  11.667  18.424  0.00  0.00    +0.000 A 
ATOM     32  C   UNL     1      -2.479  11.790  18.133  0.00  0.00    +0.000 A 
ATOM     33  C   UNL     1      -3.114  10.830  17.349  0.00  0.00    +0.000 A 
ATOM     34  C   UNL     1      -2.389   9.755  16.841  0.00  0.00    +0.000 A 
ATOM     35  C   UNL     1      -1.029   9.629  17.130  0.00  0.00    +0.000 A 
ENDBRANCH  22  30
ENDBRANCH   7  22
TORSDOF 5
ENDMDL
MODEL 8
REMARK VINA RESULT:      -7.7      6.034      9.519
REMARK  Name = 
REMARK  5 active torsions:
REMARK  status: ('A' for Active; 'I' for Inactive)
REMARK    1  A    between atoms: C_4  and  C_5
REMARK    2  A    between atoms: C_6  and  C_7
REMARK    3  A    between atoms: C_16  and  C_17
REMARK    4  A    between atoms: C_17  and  C_18
REMARK    5  A    between atoms: C_17  and  C_24
REMARK                            x       y       z     vdW  Elec       q    Type
REMARK                         _______ _______ _______ _____ _____    ______ ____
ROOT
ATOM      1  O   UNL     1      -7.108  11.743  17.764  0.00  0.00    +0.000 OA
ATOM      2  C   UNL     1      -5.954  11.782  18.180  0.00  0.00    +0.000 A 
ATOM      3  C   UNL     1      -5.575  12.693  19.285  0.00  0.00    +0.000 A 
ATOM      4  C   UNL     1      -4.320  12.773  19.770  0.00  0.00    +0.000 A 
ATOM      5  C   UNL     1      -3.290  11.881  19.171  0.00  0.00    +0.000 A 
ATOM      6  C   UNL     1      -1.952  11.873  19.607  0.00  0.00    +0.000 A 
ATOM      7  C   UNL     1      -1.001  10.993  19.051  0.00  0.00    +0.000 A 
ATOM      8  C   UNL     1      -1.411  10.125  18.025  0.00  0.00    +0.000 A 
ATOM      9  C   UNL     1      -2.724  10.141  17.557  0.00  0.00    +0.000 A 
ATOM     10  C   UNL     1      -3.652  11.009  18.133  0.00  0.00    +0.000 A 
ATOM     11  N   UNL     1      -4.967  10.996  17.665  0.00  0.00    +0.000 N 
ATOM     12  H   UNL     1      -5.243  10.371  16.919  0.00  0.00    +0.000 HD
ENDROOT
BRANCH   4  13
ATOM     13  C   UNL     1      -4.050  13.656  20.902  0.00  0.00    +0.000 C 
ATOM     14  C   UNL     1      -4.476  13.444  22.161  0.00  0.00    +0.000 C 
BRANCH  14  15
ATOM     15  C   UNL     1      -4.203  14.414  23.226  0.00  0.00    +0.000 A 
ATOM     16  C   UNL     1      -3.012  14.345  23.962  0.00  0.00    +0.000 A 
ATOM     17  C   UNL     1      -2.751  15.278  24.970  0.00  0.00    +0.000 A 
ATOM     18  C   UNL     1      -3.677  16.282  25.248  0.00  0.00    +0.000 A 
ATOM     19  C   UNL     1      -4.857  16.344  24.516  0.00  0.00    +0.000 A 
ATOM     20  F   UNL     1      -5.746  17.309  24.781  0.00  0.00    +0.000 F 
ATOM     21  C   UNL     1      -5.128  15.422  23.510  0.00  0.00    +0.000 A 
ENDBRANCH  14  15
ENDBRANCH   4  13
BRANCH   7  22
ATOM     22  C   UNL     1       0.440  10.980  19.586  0.00  0.00    +0.000 C 
BRANCH  22  23
ATOM     23  C   UNL     1       1.278  12.240  19.306  0.00  0.00    +0.000 A 
ATOM     24  C   UNL     1       2.224  12.322  18.271  0.00  0.00    +0.000 A 
ATOM     25  C   UNL     1       2.912  13.513  18.014  0.00  0.00    +0.000 A 
ATOM     26  C   UNL     1       2.658  14.643  18.784  0.00  0.00    +0.000 A 
ATOM     27 CL   UNL     1       3.475  16.116  18.435  0.00  0.00    +0.000 Cl
ATOM     28  C   UNL     1       1.738  14.588  19.824  0.00  0.00    +0.000 A 
ATOM     29  C   UNL     1       1.052  13.397  20.081  0.00  0.00    +0.000 A 
ENDBRANCH  22  23
BRANCH  22  30
ATOM     30  C   UNL     1       1.133   9.658  19.233  0.00  0.00    +0.000 A 
ATOM     31  C   UNL     1       1.348   8.654  20.192  0.00  0.00    +0.000 A 
ATOM     32  C   UNL     1       2.061   7.499  19.868  0.00  0.00    +0.000 A 
ATOM     33  C   UNL     1       2.570   7.330  18.583  0.00  0.00    +0.000 A 
ATOM     34  C   UNL     1       2.354   8.307  17.614  0.00  0.00    +0.000 A 
ATOM     35  C   UNL     1       1.641   9.464  17.935  0.00  0.00    +0.000 A 
ENDBRANCH  22  30
ENDBRANCH   7  22
TORSDOF 5
ENDMDL
MODEL 9
REMARK VINA RESULT:      -7.7      5.954      9.541
REMARK  Name = 
REMARK  5 active torsions:
REMARK  status: ('A' for Active; 'I' for Inactive)
REMARK    1  A    between atoms: C_4  and  C_5
REMARK    2  A    between atoms: C_6  and  C_7
REMARK    3  A    between atoms: C_16  and  C_17
REMARK    4  A    between atoms: C_17  and  C_18
REMARK    5  A    between atoms: C_17  and  C_24
REMARK                            x       y       z     vdW  Elec       q    Type
REMARK                         _______ _______ _______ _____ _____    ______ ____
ROOT
ATOM      1  O   UNL     1      -7.019  11.922  17.649  0.00  0.00    +0.000 OA
ATOM      2  C   UNL     1      -5.889  11.913  18.126  0.00  0.00    +0.000 A 
ATOM      3  C   UNL     1      -5.588  12.634  19.384  0.00  0.00    +0.000 A 
ATOM      4  C   UNL     1      -4.361  12.655  19.941  0.00  0.00    +0.000 A 
ATOM      5  C   UNL     1      -3.279  11.892  19.259  0.00  0.00    +0.000 A 
ATOM      6  C   UNL     1      -1.965  11.836  19.758  0.00  0.00    +0.000 A 
ATOM      7  C   UNL     1      -0.966  11.078  19.116  0.00  0.00    +0.000 A 
ATOM      8  C   UNL     1      -1.301  10.385  17.940  0.00  0.00    +0.000 A 
ATOM      9  C   UNL     1      -2.590  10.455  17.413  0.00  0.00    +0.000 A 
ATOM     10  C   UNL     1      -3.567  11.199  18.074  0.00  0.00    +0.000 A 
ATOM     11  N   UNL     1      -4.857  11.241  17.541  0.00  0.00    +0.000 N 
ATOM     12  H   UNL     1      -5.079  10.743  16.688  0.00  0.00    +0.000 HD
ENDROOT
BRANCH   4  13
ATOM     13  C   UNL     1      -4.170  13.342  21.216  0.00  0.00    +0.000 C 
ATOM     14  C   UNL     1      -4.186  14.678  21.379  0.00  0.00    +0.000 C 
BRANCH  14  15
ATOM     15  C   UNL     1      -3.932  15.284  22.690  0.00  0.00    +0.000 A 
ATOM     16  C   UNL     1      -4.792  16.268  23.197  0.00  0.00    +0.000 A 
ATOM     17  C   UNL     1      -4.552  16.836  24.452  0.00  0.00    +0.000 A 
ATOM     18  C   UNL     1      -3.452  16.426  25.203  0.00  0.00    +0.000 A 
ATOM     19  C   UNL     1      -2.602  15.451  24.695  0.00  0.00    +0.000 A 
ATOM     20  F   UNL     1      -1.547  15.055  25.417  0.00  0.00    +0.000 F 
ATOM     21  C   UNL     1      -2.831  14.878  23.448  0.00  0.00    +0.000 A 
ENDBRANCH  14  15
ENDBRANCH   4  13
BRANCH   7  22
ATOM     22  C   UNL     1       0.447  11.001  19.716  0.00  0.00    +0.000 C 
BRANCH  22  23
ATOM     23  C   UNL     1       1.327  12.251  19.540  0.00  0.00    +0.000 A 
ATOM     24  C   UNL     1       1.824  12.675  18.296  0.00  0.00    +0.000 A 
ATOM     25  C   UNL     1       2.564  13.857  18.178  0.00  0.00    +0.000 A 
ATOM     26  C   UNL     1       2.810  14.638  19.301  0.00  0.00    +0.000 A 
ATOM     27 CL   UNL     1       3.682  16.113  19.144  0.00  0.00    +0.000 Cl
ATOM     28  C   UNL     1       2.343  14.238  20.548  0.00  0.00    +0.000 A 
ATOM     29  C   UNL     1       1.606  13.055  20.666  0.00  0.00    +0.000 A 
ENDBRANCH  22  23
BRANCH  22  30
ATOM     30  C   UNL     1       1.126   9.680  19.330  0.00  0.00    +0.000 A 
ATOM     31  C   UNL     1       1.273   8.626  20.248  0.00  0.00    +0.000 A 
ATOM     32  C   UNL     1       1.974   7.471  19.900  0.00  0.00    +0.000 A 
ATOM     33  C   UNL     1       2.538   7.351  18.632  0.00  0.00    +0.000 A 
ATOM     34  C   UNL     1       2.390   8.379  17.704  0.00  0.00    +0.000 A 
ATOM     35  C   UNL     1       1.690   9.537  18.049  0.00  0.00    +0.000 A 
ENDBRANCH  22  30
ENDBRANCH   7  22
TORSDOF 5
ENDMDL
