MODEL 1
REMARK VINA RESULT:      -7.8      0.000      0.000
REMARK  Name = 
REMARK  5 active torsions:
REMARK  status: ('A' for Active; 'I' for Inactive)
REMARK    1  A    between atoms: N_1  and  C_2
REMARK    2  A    between atoms: C_3  and  C_4
REMARK    3  A    between atoms: C_4  and  C_6
REMARK    4  A    between atoms: C_11  and  C_12
REMARK    5  A    between atoms: C_20  and  C_21
REMARK                            x       y       z     vdW  Elec       q    Type
REMARK                         _______ _______ _______ _____ _____    ______ ____
ROOT
ATOM      1  C   UNL     1       1.675   8.957  18.757  0.00  0.00    +0.000 A 
ATOM      2  C   UNL     1       2.227   7.677  19.026  0.00  0.00    +0.000 A 
ATOM      3  C   UNL     1       1.999   7.095  20.279  0.00  0.00    +0.000 A 
ATOM      4  C   UNL     1       1.222   7.745  21.224  0.00  0.00    +0.000 A 
ATOM      5  N   UNL     1       0.648   8.989  20.991  0.00  0.00    +0.000 N 
ATOM      6  O   UNL     1      -0.142   9.450  21.878  0.00  0.00    +0.000 OA
ATOM      7  C   UNL     1       0.918   9.650  19.780  0.00  0.00    +0.000 A 
ENDROOT
BRANCH   7   8
ATOM      8  C   UNL     1       0.388  11.040  19.586  0.00  0.00    +0.000 A 
ATOM      9  C   UNL     1       1.084  12.132  20.159  0.00  0.00    +0.000 A 
ATOM     10  C   UNL     1       0.554  13.426  20.199  0.00  0.00    +0.000 A 
ATOM     11  C   UNL     1      -0.643  13.700  19.556  0.00  0.00    +0.000 A 
ATOM     12  C   UNL     1      -1.317  12.674  18.902  0.00  0.00    +0.000 A 
ATOM     13  C   UNL     1      -0.836  11.352  18.951  0.00  0.00    +0.000 A 
ATOM     14 CL   UNL     1      -1.910  10.149  18.312  0.00  0.00    +0.000 Cl
ENDBRANCH   7   8
BRANCH   1  15
ATOM     15  N   UNL     1       1.756   9.552  17.479  0.00  0.00    +0.000 N 
ATOM     16  H   UNL     1       1.657   9.006  16.638  0.00  0.00    +0.000 HD
ATOM     17  H   UNL     1       2.417  10.319  17.392  0.00  0.00    +0.000 HD
ENDBRANCH   1  15
BRANCH   2  18
ATOM     18  C   UNL     1       3.099   6.865  18.096  0.00  0.00    +0.000 C 
ATOM     19  O   UNL     1       3.826   7.436  17.286  0.00  0.00    +0.000 OA
BRANCH  18  20
ATOM     20  C   UNL     1       3.042   5.389  18.022  0.00  0.00    +0.000 A 
ATOM     21  C   UNL     1       1.775   4.809  17.775  0.00  0.00    +0.000 A 
ATOM     22  C   UNL     1       1.591   3.435  17.830  0.00  0.00    +0.000 A 
ATOM     23  C   UNL     1       2.683   2.608  18.059  0.00  0.00    +0.000 A 
ATOM     24  C   UNL     1       3.954   3.163  18.217  0.00  0.00    +0.000 A 
ATOM     25  C   UNL     1       4.163   4.560  18.206  0.00  0.00    +0.000 A 
BRANCH  25  26
ATOM     26  C   UNL     1       5.594   5.019  18.405  0.00  0.00    +0.000 C 
ATOM     27  F   UNL     1       5.856   5.799  19.477  0.00  0.00    +0.000 F 
ATOM     28  F   UNL     1       6.427   3.942  18.549  0.00  0.00    +0.000 F 
ATOM     29  F   UNL     1       6.069   5.682  17.309  0.00  0.00    +0.000 F 
ENDBRANCH  25  26
ENDBRANCH  18  20
ENDBRANCH   2  18
TORSDOF 5
ENDMDL
MODEL 2
REMARK VINA RESULT:      -7.6      3.759      7.621
REMARK  Name = 
REMARK  5 active torsions:
REMARK  status: ('A' for Active; 'I' for Inactive)
REMARK    1  A    between atoms: N_1  and  C_2
REMARK    2  A    between atoms: C_3  and  C_4
REMARK    3  A    between atoms: C_4  and  C_6
REMARK    4  A    between atoms: C_11  and  C_12
REMARK    5  A    between atoms: C_20  and  C_21
REMARK                            x       y       z     vdW  Elec       q    Type
REMARK                         _______ _______ _______ _____ _____    ______ ____
ROOT
ATOM      1  C   UNL     1       2.224   7.793  18.581  0.00  0.00    +0.000 A 
ATOM      2  C   UNL     1       1.619   8.866  19.286  0.00  0.00    +0.000 A 
ATOM      3  C   UNL     1       1.123   8.630  20.575  0.00  0.00    +0.000 A 
ATOM      4  C   UNL     1       1.251   7.379  21.157  0.00  0.00    +0.000 A 
ATOM      5  N   UNL     1       1.856   6.310  20.506  0.00  0.00    +0.000 N 
ATOM      6  O   UNL     1       2.028   5.236  21.170  0.00  0.00    +0.000 OA
ATOM      7  C   UNL     1       2.294   6.477  19.181  0.00  0.00    +0.000 A 
ENDROOT
BRANCH   7   8
ATOM      8  C   UNL     1       2.839   5.286  18.449  0.00  0.00    +0.000 A 
ATOM      9  C   UNL     1       1.947   4.426  17.765  0.00  0.00    +0.000 A 
ATOM     10  C   UNL     1       2.346   3.195  17.234  0.00  0.00    +0.000 A 
ATOM     11  C   UNL     1       3.684   2.833  17.263  0.00  0.00    +0.000 A 
ATOM     12  C   UNL     1       4.610   3.691  17.846  0.00  0.00    +0.000 A 
ATOM     13  C   UNL     1       4.194   4.881  18.472  0.00  0.00    +0.000 A 
ATOM     14 CL   UNL     1       5.422   5.713  19.371  0.00  0.00    +0.000 Cl
ENDBRANCH   7   8
BRANCH   1  15
ATOM     15  N   UNL     1       2.857   7.985  17.332  0.00  0.00    +0.000 N 
ATOM     16  H   UNL     1       2.900   7.249  16.647  0.00  0.00    +0.000 HD
ATOM     17  H   UNL     1       3.679   8.582  17.343  0.00  0.00    +0.000 HD
ENDBRANCH   1  15
BRANCH   2  18
ATOM     18  C   UNL     1       1.403  10.270  18.769  0.00  0.00    +0.000 C 
ATOM     19  O   UNL     1       2.197  10.754  17.966  0.00  0.00    +0.000 OA
BRANCH  18  20
ATOM     20  C   UNL     1       0.331  11.157  19.272  0.00  0.00    +0.000 A 
ATOM     21  C   UNL     1       0.684  12.073  20.291  0.00  0.00    +0.000 A 
ATOM     22  C   UNL     1      -0.276  12.846  20.927  0.00  0.00    +0.000 A 
ATOM     23  C   UNL     1      -1.598  12.774  20.506  0.00  0.00    +0.000 A 
ATOM     24  C   UNL     1      -1.945  11.939  19.443  0.00  0.00    +0.000 A 
ATOM     25  C   UNL     1      -0.995  11.112  18.805  0.00  0.00    +0.000 A 
BRANCH  25  26
ATOM     26  C   UNL     1      -1.518  10.247  17.675  0.00  0.00    +0.000 C 
ATOM     27  F   UNL     1      -0.668   9.350  17.130  0.00  0.00    +0.000 F 
ATOM     28  F   UNL     1      -2.585   9.500  18.099  0.00  0.00    +0.000 F 
ATOM     29  F   UNL     1      -2.009  11.002  16.648  0.00  0.00    +0.000 F 
ENDBRANCH  25  26
ENDBRANCH  18  20
ENDBRANCH   2  18
TORSDOF 5
ENDMDL
MODEL 3
REMARK VINA RESULT:      -7.5      1.544      2.163
REMARK  Name = 
REMARK  5 active torsions:
REMARK  status: ('A' for Active; 'I' for Inactive)
REMARK    1  A    between atoms: N_1  and  C_2
REMARK    2  A    between atoms: C_3  and  C_4
REMARK    3  A    between atoms: C_4  and  C_6
REMARK    4  A    between atoms: C_11  and  C_12
REMARK    5  A    between atoms: C_20  and  C_21
REMARK                            x       y       z     vdW  Elec       q    Type
REMARK                         _______ _______ _______ _____ _____    ______ ____
ROOT
ATOM      1  C   UNL     1       1.406   8.139  20.008  0.00  0.00    +0.000 A 
ATOM      2  C   UNL     1       2.168   7.090  19.431  0.00  0.00    +0.000 A 
ATOM      3  C   UNL     1       2.789   7.308  18.195  0.00  0.00    +0.000 A 
ATOM      4  C   UNL     1       2.684   8.538  17.566  0.00  0.00    +0.000 A 
ATOM      5  N   UNL     1       1.965   9.597  18.108  0.00  0.00    +0.000 N 
ATOM      6  O   UNL     1       2.025  10.719  17.509  0.00  0.00    +0.000 OA
ATOM      7  C   UNL     1       1.256   9.397  19.305  0.00  0.00    +0.000 A 
ENDROOT
BRANCH   7   8
ATOM      8  C   UNL     1       0.390  10.509  19.821  0.00  0.00    +0.000 A 
ATOM      9  C   UNL     1       0.797  11.224  20.973  0.00  0.00    +0.000 A 
ATOM     10  C   UNL     1      -0.041  12.130  21.632  0.00  0.00    +0.000 A 
ATOM     11  C   UNL     1      -1.277  12.445  21.090  0.00  0.00    +0.000 A 
ATOM     12  C   UNL     1      -1.680  11.832  19.908  0.00  0.00    +0.000 A 
ATOM     13  C   UNL     1      -0.881  10.844  19.301  0.00  0.00    +0.000 A 
ATOM     14 CL   UNL     1      -1.626   9.995  17.986  0.00  0.00    +0.000 Cl
ENDBRANCH   7   8
BRANCH   1  15
ATOM     15  N   UNL     1       0.856   8.037  21.305  0.00  0.00    +0.000 N 
ATOM     16  H   UNL     1       0.197   7.313  21.540  0.00  0.00    +0.000 HD
ATOM     17  H   UNL     1       0.683   8.918  21.780  0.00  0.00    +0.000 HD
ENDBRANCH   1  15
BRANCH   2  18
ATOM     18  C   UNL     1       2.354   5.702  20.000  0.00  0.00    +0.000 C 
ATOM     19  O   UNL     1       2.504   5.553  21.210  0.00  0.00    +0.000 OA
BRANCH  18  20
ATOM     20  C   UNL     1       2.486   4.495  19.153  0.00  0.00    +0.000 A 
ATOM     21  C   UNL     1       1.315   3.731  18.941  0.00  0.00    +0.000 A 
ATOM     22  C   UNL     1       1.362   2.511  18.283  0.00  0.00    +0.000 A 
ATOM     23  C   UNL     1       2.569   2.064  17.760  0.00  0.00    +0.000 A 
ATOM     24  C   UNL     1       3.716   2.850  17.887  0.00  0.00    +0.000 A 
ATOM     25  C   UNL     1       3.703   4.077  18.586  0.00  0.00    +0.000 A 
BRANCH  25  26
ATOM     26  C   UNL     1       5.026   4.815  18.656  0.00  0.00    +0.000 C 
ATOM     27  F   UNL     1       5.270   5.557  19.758  0.00  0.00    +0.000 F 
ATOM     28  F   UNL     1       6.071   3.932  18.595  0.00  0.00    +0.000 F 
ATOM     29  F   UNL     1       5.202   5.637  17.579  0.00  0.00    +0.000 F 
ENDBRANCH  25  26
ENDBRANCH  18  20
ENDBRANCH   2  18
TORSDOF 5
ENDMDL
MODEL 4
REMARK VINA RESULT:      -7.5      2.389      3.161
REMARK  Name = 
REMARK  5 active torsions:
REMARK  status: ('A' for Active; 'I' for Inactive)
REMARK    1  A    between atoms: N_1  and  C_2
REMARK    2  A    between atoms: C_3  and  C_4
REMARK    3  A    between atoms: C_4  and  C_6
REMARK    4  A    between atoms: C_11  and  C_12
REMARK    5  A    between atoms: C_20  and  C_21
REMARK                            x       y       z     vdW  Elec       q    Type
REMARK                         _______ _______ _______ _____ _____    ______ ____
ROOT
ATOM      1  C   UNL     1       1.276   8.500  20.080  0.00  0.00    +0.000 A 
ATOM      2  C   UNL     1       2.105   7.574  19.396  0.00  0.00    +0.000 A 
ATOM      3  C   UNL     1       2.685   7.958  18.181  0.00  0.00    +0.000 A 
ATOM      4  C   UNL     1       2.476   9.231  17.675  0.00  0.00    +0.000 A 
ATOM      5  N   UNL     1       1.688  10.173  18.326  0.00  0.00    +0.000 N 
ATOM      6  O   UNL     1       1.652  11.350  17.840  0.00  0.00    +0.000 OA
ATOM      7  C   UNL     1       1.018   9.805  19.506  0.00  0.00    +0.000 A 
ENDROOT
BRANCH   7   8
ATOM      8  C   UNL     1       0.081  10.792  20.137  0.00  0.00    +0.000 A 
ATOM      9  C   UNL     1       0.445  11.409  21.358  0.00  0.00    +0.000 A 
ATOM     10  C   UNL     1      -0.449  12.178  22.110  0.00  0.00    +0.000 A 
ATOM     11  C   UNL     1      -1.709  12.459  21.606  0.00  0.00    +0.000 A 
ATOM     12  C   UNL     1      -2.077  11.947  20.366  0.00  0.00    +0.000 A 
ATOM     13  C   UNL     1      -1.216  11.088  19.658  0.00  0.00    +0.000 A 
ATOM     14 CL   UNL     1      -1.911  10.330  18.261  0.00  0.00    +0.000 Cl
ENDBRANCH   7   8
BRANCH   1  15
ATOM     15  N   UNL     1       0.760   8.231  21.367  0.00  0.00    +0.000 N 
ATOM     16  H   UNL     1       0.409   7.319  21.612  0.00  0.00    +0.000 HD
ATOM     17  H   UNL     1       0.255   8.995  21.807  0.00  0.00    +0.000 HD
ENDBRANCH   1  15
BRANCH   2  18
ATOM     18  C   UNL     1       2.406   6.155  19.824  0.00  0.00    +0.000 C 
ATOM     19  O   UNL     1       1.835   5.679  20.802  0.00  0.00    +0.000 OA
BRANCH  18  20
ATOM     20  C   UNL     1       3.457   5.329  19.190  0.00  0.00    +0.000 A 
ATOM     21  C   UNL     1       4.800   5.671  19.476  0.00  0.00    +0.000 A 
ATOM     22  C   UNL     1       5.854   5.050  18.822  0.00  0.00    +0.000 A 
ATOM     23  C   UNL     1       5.591   4.024  17.923  0.00  0.00    +0.000 A 
ATOM     24  C   UNL     1       4.275   3.618  17.698  0.00  0.00    +0.000 A 
ATOM     25  C   UNL     1       3.180   4.259  18.320  0.00  0.00    +0.000 A 
BRANCH  25  26
ATOM     26  C   UNL     1       1.808   3.720  17.969  0.00  0.00    +0.000 C 
ATOM     27  F   UNL     1       0.989   3.383  18.990  0.00  0.00    +0.000 F 
ATOM     28  F   UNL     1       1.100   4.645  17.248  0.00  0.00    +0.000 F 
ATOM     29  F   UNL     1       1.888   2.629  17.150  0.00  0.00    +0.000 F 
ENDBRANCH  25  26
ENDBRANCH  18  20
ENDBRANCH   2  18
TORSDOF 5
ENDMDL
MODEL 5
REMARK VINA RESULT:      -7.4      3.761      7.455
REMARK  Name = 
REMARK  5 active torsions:
REMARK  status: ('A' for Active; 'I' for Inactive)
REMARK    1  A    between atoms: N_1  and  C_2
REMARK    2  A    between atoms: C_3  and  C_4
REMARK    3  A    between atoms: C_4  and  C_6
REMARK    4  A    between atoms: C_11  and  C_12
REMARK    5  A    between atoms: C_20  and  C_21
REMARK                            x       y       z     vdW  Elec       q    Type
REMARK                         _______ _______ _______ _____ _____    ______ ____
ROOT
ATOM      1  C   UNL     1       2.307   7.976  18.614  0.00  0.00    +0.000 A 
ATOM      2  C   UNL     1       1.445   8.885  19.281  0.00  0.00    +0.000 A 
ATOM      3  C   UNL     1       0.894   8.510  20.513  0.00  0.00    +0.000 A 
ATOM      4  C   UNL     1       1.213   7.287  21.081  0.00  0.00    +0.000 A 
ATOM      5  N   UNL     1       2.070   6.379  20.468  0.00  0.00    +0.000 N 
ATOM      6  O   UNL     1       2.389   5.335  21.123  0.00  0.00    +0.000 OA
ATOM      7  C   UNL     1       2.580   6.676  19.192  0.00  0.00    +0.000 A 
ENDROOT
BRANCH   7   8
ATOM      8  C   UNL     1       3.410   5.641  18.492  0.00  0.00    +0.000 A 
ATOM      9  C   UNL     1       4.819   5.776  18.480  0.00  0.00    +0.000 A 
ATOM     10  C   UNL     1       5.646   4.975  17.686  0.00  0.00    +0.000 A 
ATOM     11  C   UNL     1       5.100   3.926  16.963  0.00  0.00    +0.000 A 
ATOM     12  C   UNL     1       3.729   3.700  17.018  0.00  0.00    +0.000 A 
ATOM     13  C   UNL     1       2.885   4.569  17.734  0.00  0.00    +0.000 A 
ATOM     14 CL   UNL     1       1.185   4.311  17.500  0.00  0.00    +0.000 Cl
ENDBRANCH   7   8
BRANCH   1  15
ATOM     15  N   UNL     1       2.997   8.332  17.434  0.00  0.00    +0.000 N 
ATOM     16  H   UNL     1       2.510   8.474  16.564  0.00  0.00    +0.000 HD
ATOM     17  H   UNL     1       3.921   7.923  17.324  0.00  0.00    +0.000 HD
ENDBRANCH   1  15
BRANCH   2  18
ATOM     18  C   UNL     1       1.005  10.239  18.773  0.00  0.00    +0.000 C 
ATOM     19  O   UNL     1       1.847  11.072  18.448  0.00  0.00    +0.000 OA
BRANCH  18  20
ATOM     20  C   UNL     1      -0.410  10.671  18.754  0.00  0.00    +0.000 A 
ATOM     21  C   UNL     1      -1.242  10.095  17.765  0.00  0.00    +0.000 A 
ATOM     22  C   UNL     1      -2.543  10.538  17.574  0.00  0.00    +0.000 A 
ATOM     23  C   UNL     1      -3.063  11.513  18.414  0.00  0.00    +0.000 A 
ATOM     24  C   UNL     1      -2.281  12.027  19.450  0.00  0.00    +0.000 A 
ATOM     25  C   UNL     1      -0.941  11.624  19.642  0.00  0.00    +0.000 A 
BRANCH  25  26
ATOM     26  C   UNL     1      -0.209  12.278  20.798  0.00  0.00    +0.000 C 
ATOM     27  F   UNL     1       0.890  13.008  20.508  0.00  0.00    +0.000 F 
ATOM     28  F   UNL     1      -1.037  13.145  21.459  0.00  0.00    +0.000 F 
ATOM     29  F   UNL     1       0.162  11.363  21.743  0.00  0.00    +0.000 F 
ENDBRANCH  25  26
ENDBRANCH  18  20
ENDBRANCH   2  18
TORSDOF 5
ENDMDL
MODEL 6
REMARK VINA RESULT:      -7.4      3.674      7.477
REMARK  Name = 
REMARK  5 active torsions:
REMARK  status: ('A' for Active; 'I' for Inactive)
REMARK    1  A    between atoms: N_1  and  C_2
REMARK    2  A    between atoms: C_3  and  C_4
REMARK    3  A    between atoms: C_4  and  C_6
REMARK    4  A    between atoms: C_11  and  C_12
REMARK    5  A    between atoms: C_20  and  C_21
REMARK                            x       y       z     vdW  Elec       q    Type
REMARK                         _______ _______ _______ _____ _____    ______ ____
ROOT
ATOM      1  C   UNL     1       2.388   7.930  18.675  0.00  0.00    +0.000 A 
ATOM      2  C   UNL     1       1.565   8.882  19.331  0.00  0.00    +0.000 A 
ATOM      3  C   UNL     1       0.949   8.523  20.536  0.00  0.00    +0.000 A 
ATOM      4  C   UNL     1       1.166   7.271  21.089  0.00  0.00    +0.000 A 
ATOM      5  N   UNL     1       1.981   6.319  20.487  0.00  0.00    +0.000 N 
ATOM      6  O   UNL     1       2.209   5.245  21.132  0.00  0.00    +0.000 OA
ATOM      7  C   UNL     1       2.554   6.605  19.236  0.00  0.00    +0.000 A 
ENDROOT
BRANCH   7   8
ATOM      8  C   UNL     1       3.337   5.529  18.542  0.00  0.00    +0.000 A 
ATOM      9  C   UNL     1       4.752   5.572  18.576  0.00  0.00    +0.000 A 
ATOM     10  C   UNL     1       5.550   4.732  17.793  0.00  0.00    +0.000 A 
ATOM     11  C   UNL     1       4.961   3.732  17.035  0.00  0.00    +0.000 A 
ATOM     12  C   UNL     1       3.577   3.595  17.043  0.00  0.00    +0.000 A 
ATOM     13  C   UNL     1       2.768   4.506  17.749  0.00  0.00    +0.000 A 
ATOM     14 CL   UNL     1       1.064   4.363  17.458  0.00  0.00    +0.000 Cl
ENDBRANCH   7   8
BRANCH   1  15
ATOM     15  N   UNL     1       3.140   8.260  17.525  0.00  0.00    +0.000 N 
ATOM     16  H   UNL     1       3.828   7.629  17.148  0.00  0.00    +0.000 HD
ATOM     17  H   UNL     1       3.389   9.241  17.429  0.00  0.00    +0.000 HD
ENDBRANCH   1  15
BRANCH   2  18
ATOM     18  C   UNL     1       1.233  10.271  18.836  0.00  0.00    +0.000 C 
ATOM     19  O   UNL     1       1.968  10.820  18.018  0.00  0.00    +0.000 OA
BRANCH  18  20
ATOM     20  C   UNL     1       0.114  11.074  19.378  0.00  0.00    +0.000 A 
ATOM     21  C   UNL     1       0.402  11.910  20.483  0.00  0.00    +0.000 A 
ATOM     22  C   UNL     1      -0.605  12.590  21.151  0.00  0.00    +0.000 A 
ATOM     23  C   UNL     1      -1.910  12.508  20.684  0.00  0.00    +0.000 A 
ATOM     24  C   UNL     1      -2.195  11.756  19.542  0.00  0.00    +0.000 A 
ATOM     25  C   UNL     1      -1.195  11.021  18.867  0.00  0.00    +0.000 A 
BRANCH  25  26
ATOM     26  C   UNL     1      -1.652  10.238  17.652  0.00  0.00    +0.000 C 
ATOM     27  F   UNL     1      -0.775   9.370  17.102  0.00  0.00    +0.000 F 
ATOM     28  F   UNL     1      -2.749   9.477  17.958  0.00  0.00    +0.000 F 
ATOM     29  F   UNL     1      -2.072  11.065  16.649  0.00  0.00    +0.000 F 
ENDBRANCH  25  26
ENDBRANCH  18  20
ENDBRANCH   2  18
TORSDOF 5
ENDMDL
MODEL 7
REMARK VINA RESULT:      -7.4      1.836      2.382
REMARK  Name = 
REMARK  5 active torsions:
REMARK  status: ('A' for Active; 'I' for Inactive)
REMARK    1  A    between atoms: N_1  and  C_2
REMARK    2  A    between atoms: C_3  and  C_4
REMARK    3  A    between atoms: C_4  and  C_6
REMARK    4  A    between atoms: C_11  and  C_12
REMARK    5  A    between atoms: C_20  and  C_21
REMARK                            x       y       z     vdW  Elec       q    Type
REMARK                         _______ _______ _______ _____ _____    ______ ____
ROOT
ATOM      1  C   UNL     1       1.684   8.958  18.758  0.00  0.00    +0.000 A 
ATOM      2  C   UNL     1       2.233   7.690  19.082  0.00  0.00    +0.000 A 
ATOM      3  C   UNL     1       1.979   7.149  20.349  0.00  0.00    +0.000 A 
ATOM      4  C   UNL     1       1.181   7.830  21.254  0.00  0.00    +0.000 A 
ATOM      5  N   UNL     1       0.609   9.064  20.967  0.00  0.00    +0.000 N 
ATOM      6  O   UNL     1      -0.201   9.552  21.820  0.00  0.00    +0.000 OA
ATOM      7  C   UNL     1       0.904   9.683  19.740  0.00  0.00    +0.000 A 
ENDROOT
BRANCH   7   8
ATOM      8  C   UNL     1       0.376  11.065  19.487  0.00  0.00    +0.000 A 
ATOM      9  C   UNL     1       1.079  12.180  20.003  0.00  0.00    +0.000 A 
ATOM     10  C   UNL     1       0.553  13.476  19.988  0.00  0.00    +0.000 A 
ATOM     11  C   UNL     1      -0.649  13.723  19.345  0.00  0.00    +0.000 A 
ATOM     12  C   UNL     1      -1.331  12.670  18.744  0.00  0.00    +0.000 A 
ATOM     13  C   UNL     1      -0.853  11.350  18.849  0.00  0.00    +0.000 A 
ATOM     14 CL   UNL     1      -1.936  10.123  18.275  0.00  0.00    +0.000 Cl
ENDBRANCH   7   8
BRANCH   1  15
ATOM     15  N   UNL     1       1.792   9.509  17.462  0.00  0.00    +0.000 N 
ATOM     16  H   UNL     1       1.063   9.388  16.778  0.00  0.00    +0.000 HD
ATOM     17  H   UNL     1       2.728   9.519  17.065  0.00  0.00    +0.000 HD
ENDBRANCH   1  15
BRANCH   2  18
ATOM     18  C   UNL     1       3.126   6.849  18.199  0.00  0.00    +0.000 C 
ATOM     19  O   UNL     1       3.308   7.173  17.028  0.00  0.00    +0.000 OA
BRANCH  18  20
ATOM     20  C   UNL     1       3.716   5.565  18.640  0.00  0.00    +0.000 A 
ATOM     21  C   UNL     1       5.068   5.591  19.056  0.00  0.00    +0.000 A 
ATOM     22  C   UNL     1       5.752   4.421  19.350  0.00  0.00    +0.000 A 
ATOM     23  C   UNL     1       5.079   3.207  19.306  0.00  0.00    +0.000 A 
ATOM     24  C   UNL     1       3.721   3.176  18.981  0.00  0.00    +0.000 A 
ATOM     25  C   UNL     1       3.011   4.348  18.638  0.00  0.00    +0.000 A 
BRANCH  25  26
ATOM     26  C   UNL     1       1.547   4.161  18.293  0.00  0.00    +0.000 C 
ATOM     27  F   UNL     1       1.041   4.910  17.289  0.00  0.00    +0.000 F 
ATOM     28  F   UNL     1       1.306   2.867  17.915  0.00  0.00    +0.000 F 
ATOM     29  F   UNL     1       0.743   4.361  19.380  0.00  0.00    +0.000 F 
ENDBRANCH  25  26
ENDBRANCH  18  20
ENDBRANCH   2  18
TORSDOF 5
ENDMDL
MODEL 8
REMARK VINA RESULT:      -7.3      1.378      1.386
REMARK  Name = 
REMARK  5 active torsions:
REMARK  status: ('A' for Active; 'I' for Inactive)
REMARK    1  A    between atoms: N_1  and  C_2
REMARK    2  A    between atoms: C_3  and  C_4
REMARK    3  A    between atoms: C_4  and  C_6
REMARK    4  A    between atoms: C_11  and  C_12
REMARK    5  A    between atoms: C_20  and  C_21
REMARK                            x       y       z     vdW  Elec       q    Type
REMARK                         _______ _______ _______ _____ _____    ______ ____
ROOT
ATOM      1  C   UNL     1       1.522   8.987  19.077  0.00  0.00    +0.000 A 
ATOM      2  C   UNL     1       1.891   7.752  19.672  0.00  0.00    +0.000 A 
ATOM      3  C   UNL     1       1.782   7.613  21.061  0.00  0.00    +0.000 A 
ATOM      4  C   UNL     1       1.291   8.654  21.833  0.00  0.00    +0.000 A 
ATOM      5  N   UNL     1       0.899   9.870  21.286  0.00  0.00    +0.000 N 
ATOM      6  O   UNL     1       0.355  10.719  22.064  0.00  0.00    +0.000 OA
ATOM      7  C   UNL     1       1.070  10.085  19.907  0.00  0.00    +0.000 A 
ENDROOT
BRANCH   7   8
ATOM      8  C   UNL     1       0.752  11.440  19.346  0.00  0.00    +0.000 A 
ATOM      9  C   UNL     1       1.693  12.488  19.493  0.00  0.00    +0.000 A 
ATOM     10  C   UNL     1       1.393  13.818  19.183  0.00  0.00    +0.000 A 
ATOM     11  C   UNL     1       0.176  14.132  18.598  0.00  0.00    +0.000 A 
ATOM     12  C   UNL     1      -0.744  13.118  18.352  0.00  0.00    +0.000 A 
ATOM     13  C   UNL     1      -0.484  11.796  18.759  0.00  0.00    +0.000 A 
ATOM     14 CL   UNL     1      -1.822  10.701  18.617  0.00  0.00    +0.000 Cl
ENDBRANCH   7   8
BRANCH   1  15
ATOM     15  N   UNL     1       1.486   9.159  17.676  0.00  0.00    +0.000 N 
ATOM     16  H   UNL     1       0.624   9.348  17.191  0.00  0.00    +0.000 HD
ATOM     17  H   UNL     1       2.136   8.585  17.146  0.00  0.00    +0.000 HD
ENDBRANCH   1  15
BRANCH   2  18
ATOM     18  C   UNL     1       2.451   6.545  18.954  0.00  0.00    +0.000 C 
ATOM     19  O   UNL     1       2.909   6.666  17.820  0.00  0.00    +0.000 OA
BRANCH  18  20
ATOM     20  C   UNL     1       2.372   5.173  19.503  0.00  0.00    +0.000 A 
ATOM     21  C   UNL     1       1.104   4.735  19.951  0.00  0.00    +0.000 A 
ATOM     22  C   UNL     1       0.954   3.524  20.611  0.00  0.00    +0.000 A 
ATOM     23  C   UNL     1       2.055   2.693  20.771  0.00  0.00    +0.000 A 
ATOM     24  C   UNL     1       3.295   3.074  20.256  0.00  0.00    +0.000 A 
ATOM     25  C   UNL     1       3.484   4.319  19.616  0.00  0.00    +0.000 A 
BRANCH  25  26
ATOM     26  C   UNL     1       4.888   4.605  19.121  0.00  0.00    +0.000 C 
ATOM     27  F   UNL     1       5.493   5.727  19.570  0.00  0.00    +0.000 F 
ATOM     28  F   UNL     1       5.736   3.589  19.473  0.00  0.00    +0.000 F 
ATOM     29  F   UNL     1       4.943   4.646  17.756  0.00  0.00    +0.000 F 
ENDBRANCH  25  26
ENDBRANCH  18  20
ENDBRANCH   2  18
TORSDOF 5
ENDMDL
MODEL 9
REMARK VINA RESULT:      -7.3      2.618      3.340
REMARK  Name = 
REMARK  5 active torsions:
REMARK  status: ('A' for Active; 'I' for Inactive)
REMARK    1  A    between atoms: N_1  and  C_2
REMARK    2  A    between atoms: C_3  and  C_4
REMARK    3  A    between atoms: C_4  and  C_6
REMARK    4  A    between atoms: C_11  and  C_12
REMARK    5  A    between atoms: C_20  and  C_21
REMARK                            x       y       z     vdW  Elec       q    Type
REMARK                         _______ _______ _______ _____ _____    ______ ____
ROOT
ATOM      1  C   UNL     1       1.480   8.122  20.026  0.00  0.00    +0.000 A 
ATOM      2  C   UNL     1       2.274   7.096  19.450  0.00  0.00    +0.000 A 
ATOM      3  C   UNL     1       2.887   7.333  18.214  0.00  0.00    +0.000 A 
ATOM      4  C   UNL     1       2.744   8.559  17.583  0.00  0.00    +0.000 A 
ATOM      5  N   UNL     1       1.993   9.595  18.126  0.00  0.00    +0.000 N 
ATOM      6  O   UNL     1       2.018  10.719  17.527  0.00  0.00    +0.000 OA
ATOM      7  C   UNL     1       1.291   9.375  19.323  0.00  0.00    +0.000 A 
ENDROOT
BRANCH   7   8
ATOM      8  C   UNL     1       0.392  10.460  19.839  0.00  0.00    +0.000 A 
ATOM      9  C   UNL     1       0.750  11.152  21.021  0.00  0.00    +0.000 A 
ATOM     10  C   UNL     1      -0.122  12.028  21.676  0.00  0.00    +0.000 A 
ATOM     11  C   UNL     1      -1.346  12.337  21.103  0.00  0.00    +0.000 A 
ATOM     12  C   UNL     1      -1.701  11.749  19.893  0.00  0.00    +0.000 A 
ATOM     13  C   UNL     1      -0.868  10.789  19.288  0.00  0.00    +0.000 A 
ATOM     14 CL   UNL     1      -1.558   9.961  17.929  0.00  0.00    +0.000 Cl
ENDBRANCH   7   8
BRANCH   1  15
ATOM     15  N   UNL     1       0.934   8.003  21.324  0.00  0.00    +0.000 N 
ATOM     16  H   UNL     1       1.499   7.716  22.107  0.00  0.00    +0.000 HD
ATOM     17  H   UNL     1      -0.026   7.673  21.368  0.00  0.00    +0.000 HD
ENDBRANCH   1  15
BRANCH   2  18
ATOM     18  C   UNL     1       2.503   5.715  20.019  0.00  0.00    +0.000 C 
ATOM     19  O   UNL     1       2.392   5.527  21.228  0.00  0.00    +0.000 OA
BRANCH  18  20
ATOM     20  C   UNL     1       2.976   4.575  19.202  0.00  0.00    +0.000 A 
ATOM     21  C   UNL     1       4.224   4.727  18.554  0.00  0.00    +0.000 A 
ATOM     22  C   UNL     1       4.687   3.779  17.655  0.00  0.00    +0.000 A 
ATOM     23  C   UNL     1       3.947   2.623  17.441  0.00  0.00    +0.000 A 
ATOM     24  C   UNL     1       2.756   2.420  18.141  0.00  0.00    +0.000 A 
ATOM     25  C   UNL     1       2.242   3.388  19.031  0.00  0.00    +0.000 A 
BRANCH  25  26
ATOM     26  C   UNL     1       0.932   3.038  19.709  0.00  0.00    +0.000 C 
ATOM     27  F   UNL     1       0.113   4.057  20.049  0.00  0.00    +0.000 F 
ATOM     28  F   UNL     1       0.172   2.238  18.898  0.00  0.00    +0.000 F 
ATOM     29  F   UNL     1       1.131   2.297  20.840  0.00  0.00    +0.000 F 
ENDBRANCH  25  26
ENDBRANCH  18  20
ENDBRANCH   2  18
TORSDOF 5
ENDMDL
