MODEL 1
REMARK VINA RESULT:      -7.4      0.000      0.000
REMARK  Name = 
REMARK  4 active torsions:
REMARK  status: ('A' for Active; 'I' for Inactive)
REMARK    1  A    between atoms: C_1  and  N_2
REMARK    2  A    between atoms: C_11  and  N_12
REMARK    3  A    between atoms: C_21  and  C_22
REMARK    4  A    between atoms: N_26  and  C_27
REMARK                            x       y       z     vdW  Elec       q    Type
REMARK                         _______ _______ _______ _____ _____    ______ ____
ROOT
ATOM      1  N   UNL     1       1.054   8.825  20.643  0.00  0.00    +0.000 N 
ATOM      2  C   UNL     1       1.601   7.586  20.355  0.00  0.00    +0.000 A 
ATOM      3  N   UNL     1       1.229   6.601  21.186  0.00  0.00    +0.000 NA
ATOM      4  C   UNL     1       1.783   5.388  20.997  0.00  0.00    +0.000 A 
ATOM      5  C   UNL     1       2.693   5.133  20.007  0.00  0.00    +0.000 A 
ATOM      6  C   UNL     1       2.962   6.214  19.177  0.00  0.00    +0.000 A 
ATOM      7  N   UNL     1       2.435   7.434  19.321  0.00  0.00    +0.000 NA
ATOM      8  C   UNL     1       3.965   6.024  18.143  0.00  0.00    +0.000 A 
ATOM      9  C   UNL     1       4.813   4.933  18.121  0.00  0.00    +0.000 A 
ATOM     10  C   UNL     1       5.660   5.136  17.008  0.00  0.00    +0.000 A 
ATOM     11  N   UNL     1       5.320   6.266  16.349  0.00  0.00    +0.000 NA
ATOM     12  N   UNL     1       4.294   6.784  17.067  0.00  0.00    +0.000 N 
ATOM     13  C   UNL     1       3.665   7.998  16.608  0.00  0.00    +0.000 C 
ATOM     14  C   UNL     1       4.749   3.874  19.169  0.00  0.00    +0.000 C 
ATOM     15  C   UNL     1       3.320   3.782  19.764  0.00  0.00    +0.000 C 
ATOM     16  H   UNL     1       0.268   8.625  21.251  0.00  0.00    +0.000 HD
ENDROOT
BRANCH   1  27
ATOM     17  C   UNL     1      -6.219  14.409  20.932  0.00  0.00    +0.000 C 
ATOM     18  N   UNL     1      -4.916  14.209  21.555  0.00  0.00    +0.000 NA
ATOM     19  C   UNL     1      -3.933  15.216  21.094  0.00  0.00    +0.000 C 
ATOM     20  C   UNL     1      -2.502  14.985  21.641  0.00  0.00    +0.000 C 
ATOM     21  N   UNL     1      -2.073  13.586  21.491  0.00  0.00    +0.000 N 
ATOM     22  C   UNL     1      -0.740  13.351  21.230  0.00  0.00    +0.000 C 
ATOM     23  O   UNL     1       0.067  14.284  21.301  0.00  0.00    +0.000 OA
ATOM     24  N   UNL     1      -0.313  12.095  20.820  0.00  0.00    +0.000 N 
ATOM     25  C   UNL     1       1.132  11.844  20.831  0.00  0.00    +0.000 C 
ATOM     26  C   UNL     1       1.584  11.021  19.631  0.00  0.00    +0.000 C 
ATOM     27  C   UNL     1       0.809   9.709  19.510  0.00  0.00    +0.000 C 
ATOM     28  C   UNL     1      -0.677  10.033  19.434  0.00  0.00    +0.000 C 
ATOM     29  C   UNL     1      -1.144  10.923  20.574  0.00  0.00    +0.000 C 
ATOM     30  C   UNL     1      -3.073  12.672  22.051  0.00  0.00    +0.000 C 
ATOM     31  C   UNL     1      -4.399  12.852  21.293  0.00  0.00    +0.000 C 
ENDBRANCH   1  27
BRANCH  10  32
ATOM     32  C   UNL     1       6.779   4.292  16.564  0.00  0.00    +0.000 C 
ATOM     33  N   UNL     1       6.432   3.353  15.632  0.00  0.00    +0.000 N 
ATOM     34  O   UNL     1       7.928   4.408  16.971  0.00  0.00    +0.000 OA
ATOM     35  H   UNL     1       5.474   3.339  15.298  0.00  0.00    +0.000 HD
ATOM     36  H   UNL     1       7.141   2.763  15.227  0.00  0.00    +0.000 HD
ENDBRANCH  10  32
TORSDOF 2
ENDMDL
MODEL 2
REMARK VINA RESULT:      -7.1      5.907     10.469
REMARK  Name = 
REMARK  4 active torsions:
REMARK  status: ('A' for Active; 'I' for Inactive)
REMARK    1  A    between atoms: C_1  and  N_2
REMARK    2  A    between atoms: C_11  and  N_12
REMARK    3  A    between atoms: C_21  and  C_22
REMARK    4  A    between atoms: N_26  and  C_27
REMARK                            x       y       z     vdW  Elec       q    Type
REMARK                         _______ _______ _______ _____ _____    ______ ____
ROOT
ATOM      1  N   UNL     1      -0.295  12.224  18.066  0.00  0.00    +0.000 N 
ATOM      2  C   UNL     1      -1.656  11.998  18.188  0.00  0.00    +0.000 A 
ATOM      3  N   UNL     1      -2.262  11.596  17.060  0.00  0.00    +0.000 NA
ATOM      4  C   UNL     1      -3.598  11.427  17.101  0.00  0.00    +0.000 A 
ATOM      5  C   UNL     1      -4.340  11.648  18.229  0.00  0.00    +0.000 A 
ATOM      6  C   UNL     1      -3.600  12.008  19.347  0.00  0.00    +0.000 A 
ATOM      7  N   UNL     1      -2.275  12.184  19.358  0.00  0.00    +0.000 NA
ATOM      8  C   UNL     1      -4.336  12.313  20.562  0.00  0.00    +0.000 A 
ATOM      9  C   UNL     1      -5.705  12.501  20.574  0.00  0.00    +0.000 A 
ATOM     10  C   UNL     1      -6.031  12.824  21.911  0.00  0.00    +0.000 A 
ATOM     11  N   UNL     1      -4.928  12.787  22.692  0.00  0.00    +0.000 NA
ATOM     12  N   UNL     1      -3.918  12.482  21.842  0.00  0.00    +0.000 N 
ATOM     13  C   UNL     1      -2.584  12.332  22.371  0.00  0.00    +0.000 C 
ATOM     14  C   UNL     1      -6.517  12.401  19.327  0.00  0.00    +0.000 C 
ATOM     15  C   UNL     1      -5.834  11.454  18.306  0.00  0.00    +0.000 C 
ATOM     16  H   UNL     1      -0.030  11.749  17.210  0.00  0.00    +0.000 HD
ENDROOT
BRANCH   1  27
ATOM     17  C   UNL     1       8.435  15.042  18.091  0.00  0.00    +0.000 C 
ATOM     18  N   UNL     1       7.074  15.563  18.124  0.00  0.00    +0.000 NA
ATOM     19  C   UNL     1       6.718  16.066  19.472  0.00  0.00    +0.000 C 
ATOM     20  C   UNL     1       5.246  16.532  19.592  0.00  0.00    +0.000 C 
ATOM     21  N   UNL     1       4.308  15.549  19.030  0.00  0.00    +0.000 N 
ATOM     22  C   UNL     1       3.079  15.414  19.642  0.00  0.00    +0.000 C 
ATOM     23  O   UNL     1       2.742  16.222  20.514  0.00  0.00    +0.000 OA
ATOM     24  N   UNL     1       2.255  14.339  19.338  0.00  0.00    +0.000 N 
ATOM     25  C   UNL     1       0.867  14.407  19.809  0.00  0.00    +0.000 C 
ATOM     26  C   UNL     1       0.358  13.058  20.303  0.00  0.00    +0.000 C 
ATOM     27  C   UNL     1       0.518  11.964  19.248  0.00  0.00    +0.000 C 
ATOM     28  C   UNL     1       1.985  11.891  18.847  0.00  0.00    +0.000 C 
ATOM     29  C   UNL     1       2.547  13.240  18.427  0.00  0.00    +0.000 C 
ATOM     30  C   UNL     1       4.698  15.178  17.666  0.00  0.00    +0.000 C 
ATOM     31  C   UNL     1       6.097  14.542  17.700  0.00  0.00    +0.000 C 
ENDBRANCH   1  27
BRANCH  10  32
ATOM     32  C   UNL     1      -7.351  13.169  22.457  0.00  0.00    +0.000 C 
ATOM     33  N   UNL     1      -7.910  12.185  23.226  0.00  0.00    +0.000 N 
ATOM     34  O   UNL     1      -7.915  14.238  22.262  0.00  0.00    +0.000 OA
ATOM     35  H   UNL     1      -7.372  11.341  23.391  0.00  0.00    +0.000 HD
ATOM     36  H   UNL     1      -8.789  12.349  23.688  0.00  0.00    +0.000 HD
ENDBRANCH  10  32
TORSDOF 2
ENDMDL
MODEL 3
REMARK VINA RESULT:      -7.1      2.613      4.116
REMARK  Name = 
REMARK  4 active torsions:
REMARK  status: ('A' for Active; 'I' for Inactive)
REMARK    1  A    between atoms: C_1  and  N_2
REMARK    2  A    between atoms: C_11  and  N_12
REMARK    3  A    between atoms: C_21  and  C_22
REMARK    4  A    between atoms: N_26  and  C_27
REMARK                            x       y       z     vdW  Elec       q    Type
REMARK                         _______ _______ _______ _____ _____    ______ ____
ROOT
ATOM      1  N   UNL     1       1.074   9.302  18.163  0.00  0.00    +0.000 N 
ATOM      2  C   UNL     1       2.136   8.424  18.028  0.00  0.00    +0.000 A 
ATOM      3  N   UNL     1       3.065   8.800  17.136  0.00  0.00    +0.000 NA
ATOM      4  C   UNL     1       4.087   7.951  16.911  0.00  0.00    +0.000 A 
ATOM      5  C   UNL     1       4.205   6.746  17.549  0.00  0.00    +0.000 A 
ATOM      6  C   UNL     1       3.215   6.489  18.488  0.00  0.00    +0.000 A 
ATOM      7  N   UNL     1       2.185   7.300  18.749  0.00  0.00    +0.000 NA
ATOM      8  C   UNL     1       3.252   5.200  19.156  0.00  0.00    +0.000 A 
ATOM      9  C   UNL     1       4.053   4.160  18.723  0.00  0.00    +0.000 A 
ATOM     10  C   UNL     1       3.772   3.080  19.590  0.00  0.00    +0.000 A 
ATOM     11  N   UNL     1       2.883   3.449  20.539  0.00  0.00    +0.000 NA
ATOM     12  N   UNL     1       2.583   4.736  20.243  0.00  0.00    +0.000 N 
ATOM     13  C   UNL     1       1.668   5.453  21.097  0.00  0.00    +0.000 C 
ATOM     14  C   UNL     1       4.936   4.302  17.530  0.00  0.00    +0.000 C 
ATOM     15  C   UNL     1       5.345   5.783  17.327  0.00  0.00    +0.000 C 
ATOM     16  H   UNL     1       1.403  10.171  17.755  0.00  0.00    +0.000 HD
ENDROOT
BRANCH   1  27
ATOM     17  C   UNL     1       2.666  16.717  23.324  0.00  0.00    +0.000 C 
ATOM     18  N   UNL     1       1.972  16.308  22.110  0.00  0.00    +0.000 NA
ATOM     19  C   UNL     1       0.505  16.258  22.314  0.00  0.00    +0.000 C 
ATOM     20  C   UNL     1      -0.275  15.723  21.087  0.00  0.00    +0.000 C 
ATOM     21  N   UNL     1       0.319  14.490  20.550  0.00  0.00    +0.000 N 
ATOM     22  C   UNL     1      -0.536  13.545  20.022  0.00  0.00    +0.000 C 
ATOM     23  O   UNL     1      -1.728  13.827  19.860  0.00  0.00    +0.000 OA
ATOM     24  N   UNL     1      -0.083  12.264  19.741  0.00  0.00    +0.000 N 
ATOM     25  C   UNL     1      -0.959  11.407  18.933  0.00  0.00    +0.000 C 
ATOM     26  C   UNL     1      -0.957   9.961  19.415  0.00  0.00    +0.000 C 
ATOM     27  C   UNL     1       0.455   9.381  19.481  0.00  0.00    +0.000 C 
ATOM     28  C   UNL     1       1.300  10.268  20.385  0.00  0.00    +0.000 C 
ATOM     29  C   UNL     1       1.253  11.733  19.980  0.00  0.00    +0.000 C 
ATOM     30  C   UNL     1       1.754  14.667  20.304  0.00  0.00    +0.000 C 
ATOM     31  C   UNL     1       2.453  14.997  21.632  0.00  0.00    +0.000 C 
ENDBRANCH   1  27
BRANCH  10  32
ATOM     32  C   UNL     1       4.319   1.716  19.534  0.00  0.00    +0.000 C 
ATOM     33  N   UNL     1       3.827   0.962  18.506  0.00  0.00    +0.000 N 
ATOM     34  O   UNL     1       5.148   1.278  20.321  0.00  0.00    +0.000 OA
ATOM     35  H   UNL     1       3.179   1.397  17.857  0.00  0.00    +0.000 HD
ATOM     36  H   UNL     1       4.182   0.032  18.352  0.00  0.00    +0.000 HD
ENDBRANCH  10  32
TORSDOF 2
ENDMDL
MODEL 4
REMARK VINA RESULT:      -7.0      3.368      6.113
REMARK  Name = 
REMARK  4 active torsions:
REMARK  status: ('A' for Active; 'I' for Inactive)
REMARK    1  A    between atoms: C_1  and  N_2
REMARK    2  A    between atoms: C_11  and  N_12
REMARK    3  A    between atoms: C_21  and  C_22
REMARK    4  A    between atoms: N_26  and  C_27
REMARK                            x       y       z     vdW  Elec       q    Type
REMARK                         _______ _______ _______ _____ _____    ______ ____
ROOT
ATOM      1  N   UNL     1      -2.339  12.692  20.997  0.00  0.00    +0.000 N 
ATOM      2  C   UNL     1      -1.247  12.213  20.293  0.00  0.00    +0.000 A 
ATOM      3  N   UNL     1      -0.843  12.996  19.281  0.00  0.00    +0.000 NA
ATOM      4  C   UNL     1       0.172  12.547  18.518  0.00  0.00    +0.000 A 
ATOM      5  C   UNL     1       0.791  11.346  18.736  0.00  0.00    +0.000 A 
ATOM      6  C   UNL     1       0.325  10.648  19.842  0.00  0.00    +0.000 A 
ATOM      7  N   UNL     1      -0.675  11.053  20.631  0.00  0.00    +0.000 NA
ATOM      8  C   UNL     1       0.901   9.339  20.093  0.00  0.00    +0.000 A 
ATOM      9  C   UNL     1       1.680   8.678  19.161  0.00  0.00    +0.000 A 
ATOM     10  C   UNL     1       2.002   7.435  19.751  0.00  0.00    +0.000 A 
ATOM     11  N   UNL     1       1.492   7.353  21.000  0.00  0.00    +0.000 NA
ATOM     12  N   UNL     1       0.825   8.519  21.173  0.00  0.00    +0.000 N 
ATOM     13  C   UNL     1       0.178   8.772  22.437  0.00  0.00    +0.000 C 
ATOM     14  C   UNL     1       1.977   9.277  17.828  0.00  0.00    +0.000 C 
ATOM     15  C   UNL     1       1.938  10.825  17.905  0.00  0.00    +0.000 C 
ATOM     16  H   UNL     1      -2.394  13.675  20.751  0.00  0.00    +0.000 HD
ENDROOT
BRANCH   1  27
ATOM     17  C   UNL     1       1.637  18.361  27.014  0.00  0.00    +0.000 C 
ATOM     18  N   UNL     1       0.504  18.290  26.100  0.00  0.00    +0.000 NA
ATOM     19  C   UNL     1      -0.773  18.118  26.831  0.00  0.00    +0.000 C 
ATOM     20  C   UNL     1      -2.000  17.926  25.904  0.00  0.00    +0.000 C 
ATOM     21  N   UNL     1      -1.747  16.928  24.854  0.00  0.00    +0.000 N 
ATOM     22  C   UNL     1      -2.805  16.140  24.452  0.00  0.00    +0.000 C 
ATOM     23  O   UNL     1      -3.944  16.403  24.851  0.00  0.00    +0.000 OA
ATOM     24  N   UNL     1      -2.588  15.016  23.668  0.00  0.00    +0.000 N 
ATOM     25  C   UNL     1      -3.765  14.391  23.054  0.00  0.00    +0.000 C 
ATOM     26  C   UNL     1      -3.684  12.870  23.067  0.00  0.00    +0.000 C 
ATOM     27  C   UNL     1      -2.400  12.358  22.414  0.00  0.00    +0.000 C 
ATOM     28  C   UNL     1      -1.212  12.983  23.133  0.00  0.00    +0.000 C 
ATOM     29  C   UNL     1      -1.304  14.499  23.211  0.00  0.00    +0.000 C 
ATOM     30  C   UNL     1      -0.506  17.233  24.134  0.00  0.00    +0.000 C 
ATOM     31  C   UNL     1       0.670  17.197  25.123  0.00  0.00    +0.000 C 
ENDBRANCH   1  27
BRANCH  10  32
ATOM     32  C   UNL     1       2.771   6.330  19.158  0.00  0.00    +0.000 C 
ATOM     33  N   UNL     1       3.642   5.731  20.025  0.00  0.00    +0.000 N 
ATOM     34  O   UNL     1       2.651   5.958  17.998  0.00  0.00    +0.000 OA
ATOM     35  H   UNL     1       3.659   6.052  20.988  0.00  0.00    +0.000 HD
ATOM     36  H   UNL     1       4.174   4.930  19.728  0.00  0.00    +0.000 HD
ENDBRANCH  10  32
TORSDOF 2
ENDMDL
MODEL 5
REMARK VINA RESULT:      -7.0      2.339      3.752
REMARK  Name = 
REMARK  4 active torsions:
REMARK  status: ('A' for Active; 'I' for Inactive)
REMARK    1  A    between atoms: C_1  and  N_2
REMARK    2  A    between atoms: C_11  and  N_12
REMARK    3  A    between atoms: C_21  and  C_22
REMARK    4  A    between atoms: N_26  and  C_27
REMARK                            x       y       z     vdW  Elec       q    Type
REMARK                         _______ _______ _______ _____ _____    ______ ____
ROOT
ATOM      1  N   UNL     1       1.105   9.539  18.474  0.00  0.00    +0.000 N 
ATOM      2  C   UNL     1       2.111   8.624  18.212  0.00  0.00    +0.000 A 
ATOM      3  N   UNL     1       2.978   9.001  17.261  0.00  0.00    +0.000 NA
ATOM      4  C   UNL     1       3.938   8.121  16.914  0.00  0.00    +0.000 A 
ATOM      5  C   UNL     1       4.054   6.884  17.487  0.00  0.00    +0.000 A 
ATOM      6  C   UNL     1       3.134   6.625  18.495  0.00  0.00    +0.000 A 
ATOM      7  N   UNL     1       2.168   7.466  18.877  0.00  0.00    +0.000 NA
ATOM      8  C   UNL     1       3.167   5.306  19.102  0.00  0.00    +0.000 A 
ATOM      9  C   UNL     1       3.880   4.255  18.558  0.00  0.00    +0.000 A 
ATOM     10  C   UNL     1       3.622   3.148  19.399  0.00  0.00    +0.000 A 
ATOM     11  N   UNL     1       2.833   3.509  20.435  0.00  0.00    +0.000 NA
ATOM     12  N   UNL     1       2.570   4.821  20.221  0.00  0.00    +0.000 N 
ATOM     13  C   UNL     1       1.762   5.536  21.180  0.00  0.00    +0.000 C 
ATOM     14  C   UNL     1       4.667   4.414  17.302  0.00  0.00    +0.000 C 
ATOM     15  C   UNL     1       5.126   5.885  17.128  0.00  0.00    +0.000 C 
ATOM     16  H   UNL     1       1.439  10.410  18.077  0.00  0.00    +0.000 HD
ENDROOT
BRANCH   1  27
ATOM     17  C   UNL     1       0.387  17.685  22.631  0.00  0.00    +0.000 C 
ATOM     18  N   UNL     1      -0.212  16.903  21.556  0.00  0.00    +0.000 NA
ATOM     19  C   UNL     1      -1.547  16.387  21.938  0.00  0.00    +0.000 C 
ATOM     20  C   UNL     1      -2.182  15.457  20.874  0.00  0.00    +0.000 C 
ATOM     21  N   UNL     1      -1.236  14.437  20.398  0.00  0.00    +0.000 N 
ATOM     22  C   UNL     1      -1.743  13.196  20.074  0.00  0.00    +0.000 C 
ATOM     23  O   UNL     1      -2.967  13.033  20.029  0.00  0.00    +0.000 OA
ATOM     24  N   UNL     1      -0.892  12.118  19.872  0.00  0.00    +0.000 N 
ATOM     25  C   UNL     1      -1.471  10.914  19.266  0.00  0.00    +0.000 C 
ATOM     26  C   UNL     1      -0.925   9.635  19.888  0.00  0.00    +0.000 C 
ATOM     27  C   UNL     1       0.602   9.582  19.842  0.00  0.00    +0.000 C 
ATOM     28  C   UNL     1       1.148  10.818  20.543  0.00  0.00    +0.000 C 
ATOM     29  C   UNL     1       0.559  12.110  20.001  0.00  0.00    +0.000 C 
ATOM     30  C   UNL     1       0.021  15.055  19.965  0.00  0.00    +0.000 C 
ATOM     31  C   UNL     1       0.661  15.781  21.159  0.00  0.00    +0.000 C 
ENDBRANCH   1  27
BRANCH  10  32
ATOM     32  C   UNL     1       4.100   1.767  19.239  0.00  0.00    +0.000 C 
ATOM     33  N   UNL     1       5.104   1.422  20.100  0.00  0.00    +0.000 N 
ATOM     34  O   UNL     1       3.646   0.976  18.421  0.00  0.00    +0.000 OA
ATOM     35  H   UNL     1       5.403   2.105  20.789  0.00  0.00    +0.000 HD
ATOM     36  H   UNL     1       5.460   0.479  20.104  0.00  0.00    +0.000 HD
ENDBRANCH  10  32
TORSDOF 2
ENDMDL
MODEL 6
REMARK VINA RESULT:      -7.0      6.699     10.747
REMARK  Name = 
REMARK  4 active torsions:
REMARK  status: ('A' for Active; 'I' for Inactive)
REMARK    1  A    between atoms: C_1  and  N_2
REMARK    2  A    between atoms: C_11  and  N_12
REMARK    3  A    between atoms: C_21  and  C_22
REMARK    4  A    between atoms: N_26  and  C_27
REMARK                            x       y       z     vdW  Elec       q    Type
REMARK                         _______ _______ _______ _____ _____    ______ ____
ROOT
ATOM      1  N   UNL     1       0.385  13.720  18.838  0.00  0.00    +0.000 N 
ATOM      2  C   UNL     1      -0.839  13.075  18.900  0.00  0.00    +0.000 A 
ATOM      3  N   UNL     1      -1.155  12.364  17.807  0.00  0.00    +0.000 NA
ATOM      4  C   UNL     1      -2.364  11.771  17.781  0.00  0.00    +0.000 A 
ATOM      5  C   UNL     1      -3.261  11.869  18.809  0.00  0.00    +0.000 A 
ATOM      6  C   UNL     1      -2.805  12.585  19.909  0.00  0.00    +0.000 A 
ATOM      7  N   UNL     1      -1.614  13.187  19.983  0.00  0.00    +0.000 NA
ATOM      8  C   UNL     1      -3.733  12.775  21.010  0.00  0.00    +0.000 A 
ATOM      9  C   UNL     1      -5.083  12.502  20.900  0.00  0.00    +0.000 A 
ATOM     10  C   UNL     1      -5.644  12.858  22.148  0.00  0.00    +0.000 A 
ATOM     11  N   UNL     1      -4.683  13.281  22.999  0.00  0.00    +0.000 NA
ATOM     12  N   UNL     1      -3.538  13.225  22.276  0.00  0.00    +0.000 N 
ATOM     13  C   UNL     1      -2.294  13.587  22.911  0.00  0.00    +0.000 C 
ATOM     14  C   UNL     1      -5.674  11.991  19.630  0.00  0.00    +0.000 C 
ATOM     15  C   UNL     1      -4.616  11.205  18.813  0.00  0.00    +0.000 C 
ATOM     16  H   UNL     1       0.882  13.259  18.083  0.00  0.00    +0.000 HD
ENDROOT
BRANCH   1  27
ATOM     17  C   UNL     1       9.518  14.556  18.630  0.00  0.00    +0.000 C 
ATOM     18  N   UNL     1       8.304  15.277  18.268  0.00  0.00    +0.000 NA
ATOM     19  C   UNL     1       8.041  16.400  19.198  0.00  0.00    +0.000 C 
ATOM     20  C   UNL     1       6.704  17.133  18.926  0.00  0.00    +0.000 C 
ATOM     21  N   UNL     1       5.585  16.195  18.754  0.00  0.00    +0.000 N 
ATOM     22  C   UNL     1       4.345  16.588  19.213  0.00  0.00    +0.000 C 
ATOM     23  O   UNL     1       4.176  17.753  19.588  0.00  0.00    +0.000 OA
ATOM     24  N   UNL     1       3.312  15.668  19.325  0.00  0.00    +0.000 N 
ATOM     25  C   UNL     1       1.963  16.201  19.550  0.00  0.00    +0.000 C 
ATOM     26  C   UNL     1       1.162  15.352  20.529  0.00  0.00    +0.000 C 
ATOM     27  C   UNL     1       1.098  13.887  20.098  0.00  0.00    +0.000 C 
ATOM     28  C   UNL     1       2.521  13.366  19.947  0.00  0.00    +0.000 C 
ATOM     29  C   UNL     1       3.373  14.240  19.040  0.00  0.00    +0.000 C 
ATOM     30  C   UNL     1       5.910  15.173  17.754  0.00  0.00    +0.000 C 
ATOM     31  C   UNL     1       7.135  14.376  18.232  0.00  0.00    +0.000 C 
ENDBRANCH   1  27
BRANCH  10  32
ATOM     32  C   UNL     1      -7.059  12.812  22.544  0.00  0.00    +0.000 C 
ATOM     33  N   UNL     1      -7.348  11.843  23.464  0.00  0.00    +0.000 N 
ATOM     34  O   UNL     1      -7.916  13.571  22.109  0.00  0.00    +0.000 OA
ATOM     35  H   UNL     1      -6.585  11.278  23.823  0.00  0.00    +0.000 HD
ATOM     36  H   UNL     1      -8.280  11.768  23.837  0.00  0.00    +0.000 HD
ENDBRANCH  10  32
TORSDOF 2
ENDMDL
MODEL 7
REMARK VINA RESULT:      -7.0      6.960     11.062
REMARK  Name = 
REMARK  4 active torsions:
REMARK  status: ('A' for Active; 'I' for Inactive)
REMARK    1  A    between atoms: C_1  and  N_2
REMARK    2  A    between atoms: C_11  and  N_12
REMARK    3  A    between atoms: C_21  and  C_22
REMARK    4  A    between atoms: N_26  and  C_27
REMARK                            x       y       z     vdW  Elec       q    Type
REMARK                         _______ _______ _______ _____ _____    ______ ____
ROOT
ATOM      1  N   UNL     1       1.135  14.708  19.328  0.00  0.00    +0.000 N 
ATOM      2  C   UNL     1      -0.036  13.984  19.483  0.00  0.00    +0.000 A 
ATOM      3  N   UNL     1      -0.415  13.292  18.398  0.00  0.00    +0.000 NA
ATOM      4  C   UNL     1      -1.583  12.624  18.466  0.00  0.00    +0.000 A 
ATOM      5  C   UNL     1      -2.376  12.627  19.581  0.00  0.00    +0.000 A 
ATOM      6  C   UNL     1      -1.856  13.333  20.659  0.00  0.00    +0.000 A 
ATOM      7  N   UNL     1      -0.702  14.007  20.641  0.00  0.00    +0.000 NA
ATOM      8  C   UNL     1      -2.678  13.423  21.853  0.00  0.00    +0.000 A 
ATOM      9  C   UNL     1      -4.013  13.067  21.865  0.00  0.00    +0.000 A 
ATOM     10  C   UNL     1      -4.466  13.342  23.176  0.00  0.00    +0.000 A 
ATOM     11  N   UNL     1      -3.451  13.796  23.945  0.00  0.00    +0.000 NA
ATOM     12  N   UNL     1      -2.384  13.840  23.111  0.00  0.00    +0.000 N 
ATOM     13  C   UNL     1      -1.107  14.259  23.635  0.00  0.00    +0.000 C 
ATOM     14  C   UNL     1      -4.697  12.564  20.639  0.00  0.00    +0.000 C 
ATOM     15  C   UNL     1      -3.681  11.878  19.691  0.00  0.00    +0.000 C 
ATOM     16  H   UNL     1       1.580  14.307  18.509  0.00  0.00    +0.000 HD
ENDROOT
BRANCH   1  27
ATOM     17  C   UNL     1      10.223  13.750  18.532  0.00  0.00    +0.000 C 
ATOM     18  N   UNL     1       9.139  14.644  18.147  0.00  0.00    +0.000 NA
ATOM     19  C   UNL     1       9.158  15.894  18.942  0.00  0.00    +0.000 C 
ATOM     20  C   UNL     1       7.962  16.835  18.651  0.00  0.00    +0.000 C 
ATOM     21  N   UNL     1       6.679  16.115  18.658  0.00  0.00    +0.000 N 
ATOM     22  C   UNL     1       5.571  16.787  19.129  0.00  0.00    +0.000 C 
ATOM     23  O   UNL     1       5.649  17.998  19.364  0.00  0.00    +0.000 OA
ATOM     24  N   UNL     1       4.398  16.101  19.410  0.00  0.00    +0.000 N 
ATOM     25  C   UNL     1       3.192  16.905  19.638  0.00  0.00    +0.000 C 
ATOM     26  C   UNL     1       2.325  16.341  20.757  0.00  0.00    +0.000 C 
ATOM     27  C   UNL     1       1.960  14.876  20.517  0.00  0.00    +0.000 C 
ATOM     28  C   UNL     1       3.247  14.079  20.357  0.00  0.00    +0.000 C 
ATOM     29  C   UNL     1       4.174  14.665  19.303  0.00  0.00    +0.000 C 
ATOM     30  C   UNL     1       6.735  14.943  17.778  0.00  0.00    +0.000 C 
ATOM     31  C   UNL     1       7.825  13.986  18.286  0.00  0.00    +0.000 C 
ENDBRANCH   1  27
BRANCH  10  32
ATOM     32  C   UNL     1      -5.828  13.191  23.707  0.00  0.00    +0.000 C 
ATOM     33  N   UNL     1      -6.393  14.362  24.132  0.00  0.00    +0.000 N 
ATOM     34  O   UNL     1      -6.427  12.125  23.764  0.00  0.00    +0.000 OA
ATOM     35  H   UNL     1      -5.865  15.221  24.013  0.00  0.00    +0.000 HD
ATOM     36  H   UNL     1      -7.344  14.370  24.462  0.00  0.00    +0.000 HD
ENDBRANCH  10  32
TORSDOF 2
ENDMDL
MODEL 8
REMARK VINA RESULT:      -6.9      6.400      7.939
REMARK  Name = 
REMARK  4 active torsions:
REMARK  status: ('A' for Active; 'I' for Inactive)
REMARK    1  A    between atoms: C_1  and  N_2
REMARK    2  A    between atoms: C_11  and  N_12
REMARK    3  A    between atoms: C_21  and  C_22
REMARK    4  A    between atoms: N_26  and  C_27
REMARK                            x       y       z     vdW  Elec       q    Type
REMARK                         _______ _______ _______ _____ _____    ______ ____
ROOT
ATOM      1  N   UNL     1       4.833  16.777  19.273  0.00  0.00    +0.000 N 
ATOM      2  C   UNL     1       5.942  16.193  19.861  0.00  0.00    +0.000 A 
ATOM      3  N   UNL     1       6.239  16.657  21.084  0.00  0.00    +0.000 NA
ATOM      4  C   UNL     1       7.349  16.175  21.677  0.00  0.00    +0.000 A 
ATOM      5  C   UNL     1       8.164  15.250  21.085  0.00  0.00    +0.000 A 
ATOM      6  C   UNL     1       7.729  14.804  19.844  0.00  0.00    +0.000 A 
ATOM      7  N   UNL     1       6.635  15.248  19.218  0.00  0.00    +0.000 NA
ATOM      8  C   UNL     1       8.582  13.865  19.138  0.00  0.00    +0.000 A 
ATOM      9  C   UNL     1       9.884  13.607  19.525  0.00  0.00    +0.000 A 
ATOM     10  C   UNL     1      10.387  12.692  18.572  0.00  0.00    +0.000 A 
ATOM     11  N   UNL     1       9.431  12.364  17.675  0.00  0.00    +0.000 NA
ATOM     12  N   UNL     1       8.353  13.097  18.042  0.00  0.00    +0.000 N 
ATOM     13  C   UNL     1       7.127  12.956  17.295  0.00  0.00    +0.000 C 
ATOM     14  C   UNL     1      10.496  14.285  20.704  0.00  0.00    +0.000 C 
ATOM     15  C   UNL     1       9.405  14.683  21.731  0.00  0.00    +0.000 C 
ATOM     16  H   UNL     1       4.337  17.220  20.040  0.00  0.00    +0.000 HD
ENDROOT
BRANCH   1  27
ATOM     17  C   UNL     1      -2.298  12.136  22.704  0.00  0.00    +0.000 C 
ATOM     18  N   UNL     1      -1.870  13.495  22.398  0.00  0.00    +0.000 NA
ATOM     19  C   UNL     1      -2.559  14.024  21.198  0.00  0.00    +0.000 C 
ATOM     20  C   UNL     1      -2.063  15.426  20.763  0.00  0.00    +0.000 C 
ATOM     21  N   UNL     1      -0.595  15.501  20.718  0.00  0.00    +0.000 N 
ATOM     22  C   UNL     1      -0.024  16.296  19.746  0.00  0.00    +0.000 C 
ATOM     23  O   UNL     1      -0.743  17.038  19.068  0.00  0.00    +0.000 OA
ATOM     24  N   UNL     1       1.334  16.213  19.476  0.00  0.00    +0.000 N 
ATOM     25  C   UNL     1       1.916  17.269  18.639  0.00  0.00    +0.000 C 
ATOM     26  C   UNL     1       2.953  16.727  17.664  0.00  0.00    +0.000 C 
ATOM     27  C   UNL     1       4.051  15.937  18.375  0.00  0.00    +0.000 C 
ATOM     28  C   UNL     1       3.398  14.815  19.172  0.00  0.00    +0.000 C 
ATOM     29  C   UNL     1       2.299  15.313  20.096  0.00  0.00    +0.000 C 
ATOM     30  C   UNL     1      -0.011  15.035  21.980  0.00  0.00    +0.000 C 
ATOM     31  C   UNL     1      -0.409  13.568  22.205  0.00  0.00    +0.000 C 
ENDBRANCH   1  27
BRANCH  10  32
ATOM     32  C   UNL     1      11.744  12.132  18.493  0.00  0.00    +0.000 C 
ATOM     33  N   UNL     1      12.333  12.273  17.266  0.00  0.00    +0.000 N 
ATOM     34  O   UNL     1      12.319  11.593  19.430  0.00  0.00    +0.000 OA
ATOM     35  H   UNL     1      11.825  12.773  16.544  0.00  0.00    +0.000 HD
ATOM     36  H   UNL     1      13.283  11.969  17.128  0.00  0.00    +0.000 HD
ENDBRANCH  10  32
TORSDOF 2
ENDMDL
MODEL 9
REMARK VINA RESULT:      -6.8      2.895     10.671
REMARK  Name = 
REMARK  4 active torsions:
REMARK  status: ('A' for Active; 'I' for Inactive)
REMARK    1  A    between atoms: C_1  and  N_2
REMARK    2  A    between atoms: C_11  and  N_12
REMARK    3  A    between atoms: C_21  and  C_22
REMARK    4  A    between atoms: N_26  and  C_27
REMARK                            x       y       z     vdW  Elec       q    Type
REMARK                         _______ _______ _______ _____ _____    ______ ____
ROOT
ATOM      1  N   UNL     1       2.137  11.086  18.354  0.00  0.00    +0.000 N 
ATOM      2  C   UNL     1       1.861  12.435  18.500  0.00  0.00    +0.000 A 
ATOM      3  N   UNL     1       2.819  13.257  18.043  0.00  0.00    +0.000 NA
ATOM      4  C   UNL     1       2.637  14.580  18.220  0.00  0.00    +0.000 A 
ATOM      5  C   UNL     1       1.532  15.101  18.837  0.00  0.00    +0.000 A 
ATOM      6  C   UNL     1       0.585  14.160  19.220  0.00  0.00    +0.000 A 
ATOM      7  N   UNL     1       0.718  12.839  19.062  0.00  0.00    +0.000 NA
ATOM      8  C   UNL     1      -0.583  14.645  19.933  0.00  0.00    +0.000 A 
ATOM      9  C   UNL     1      -0.661  15.924  20.452  0.00  0.00    +0.000 A 
ATOM     10  C   UNL     1      -1.913  15.992  21.105  0.00  0.00    +0.000 A 
ATOM     11  N   UNL     1      -2.593  14.834  20.954  0.00  0.00    +0.000 NA
ATOM     12  N   UNL     1      -1.757  14.037  20.246  0.00  0.00    +0.000 N 
ATOM     13  C   UNL     1      -2.199  12.713  19.880  0.00  0.00    +0.000 C 
ATOM     14  C   UNL     1       0.464  16.893  20.308  0.00  0.00    +0.000 C 
ATOM     15  C   UNL     1       1.296  16.578  19.038  0.00  0.00    +0.000 C 
ATOM     16  H   UNL     1       2.883  11.048  17.668  0.00  0.00    +0.000 HD
ENDROOT
BRANCH   1  27
ATOM     17  C   UNL     1       3.604   2.045  17.843  0.00  0.00    +0.000 C 
ATOM     18  N   UNL     1       3.632   3.147  18.797  0.00  0.00    +0.000 NA
ATOM     19  C   UNL     1       2.478   3.090  19.725  0.00  0.00    +0.000 C 
ATOM     20  C   UNL     1       2.397   4.299  20.691  0.00  0.00    +0.000 C 
ATOM     21  N   UNL     1       2.565   5.579  19.987  0.00  0.00    +0.000 N 
ATOM     22  C   UNL     1       1.853   6.664  20.455  0.00  0.00    +0.000 C 
ATOM     23  O   UNL     1       1.245   6.576  21.527  0.00  0.00    +0.000 OA
ATOM     24  N   UNL     1       1.756   7.823  19.697  0.00  0.00    +0.000 N 
ATOM     25  C   UNL     1       1.228   9.017  20.366  0.00  0.00    +0.000 C 
ATOM     26  C   UNL     1       0.313   9.830  19.458  0.00  0.00    +0.000 C 
ATOM     27  C   UNL     1       0.996  10.205  18.143  0.00  0.00    +0.000 C 
ATOM     28  C   UNL     1       1.461   8.927  17.460  0.00  0.00    +0.000 C 
ATOM     29  C   UNL     1       2.310   8.052  18.368  0.00  0.00    +0.000 C 
ATOM     30  C   UNL     1       3.777   5.565  19.162  0.00  0.00    +0.000 C 
ATOM     31  C   UNL     1       3.654   4.452  18.109  0.00  0.00    +0.000 C 
ENDBRANCH   1  27
BRANCH  10  32
ATOM     32  C   UNL     1      -2.469  17.120  21.866  0.00  0.00    +0.000 C 
ATOM     33  N   UNL     1      -2.787  16.814  23.160  0.00  0.00    +0.000 N 
ATOM     34  O   UNL     1      -2.631  18.243  21.407  0.00  0.00    +0.000 OA
ATOM     35  H   UNL     1      -2.583  15.879  23.497  0.00  0.00    +0.000 HD
ATOM     36  H   UNL     1      -3.124  17.534  23.778  0.00  0.00    +0.000 HD
ENDBRANCH  10  32
TORSDOF 2
ENDMDL
