MODEL 1
REMARK VINA RESULT:      -9.2      0.000      0.000
REMARK  Name = 
REMARK  3 active torsions:
REMARK  status: ('A' for Active; 'I' for Inactive)
REMARK    1  A    between atoms: C_1  and  C_2
REMARK    2  A    between atoms: N_4  and  C_5
REMARK    3  A    between atoms: C_16  and  C_17
REMARK                            x       y       z     vdW  Elec       q    Type
REMARK                         _______ _______ _______ _____ _____    ______ ____
ROOT
ATOM      1  C   UNL     1       3.219   2.753  17.421  0.00  0.00    +0.000 C 
ATOM      2  C   UNL     1       2.503   3.996  17.912  0.00  0.00    +0.000 C 
ATOM      3  O   UNL     1       1.293   3.908  18.147  0.00  0.00    +0.000 OA
ATOM      4  N   UNL     1       3.271   5.155  18.091  0.00  0.00    +0.000 N 
ATOM      5  C   UNL     1       4.632   5.195  17.673  0.00  0.00    +0.000 A 
ATOM      6  C   UNL     1       5.598   5.547  18.600  0.00  0.00    +0.000 A 
ATOM      7  C   UNL     1       6.891   5.572  18.146  0.00  0.00    +0.000 A 
ATOM      8  N   UNL     1       7.229   5.303  16.876  0.00  0.00    +0.000 NA
ATOM      9  C   UNL     1       6.227   4.976  16.028  0.00  0.00    +0.000 A 
ATOM     10  N   UNL     1       4.934   4.883  16.403  0.00  0.00    +0.000 NA
ENDROOT
BRANCH   4  11
ATOM     11  C   UNL     1       2.715   6.397  18.578  0.00  0.00    +0.000 A 
ATOM     12  C   UNL     1       2.279   6.549  19.904  0.00  0.00    +0.000 A 
ATOM     13  C   UNL     1       1.719   7.753  20.356  0.00  0.00    +0.000 A 
ATOM     14  C   UNL     1       1.585   8.831  19.489  0.00  0.00    +0.000 A 
ATOM     15 CL   UNL     1       0.894  10.304  20.041  0.00  0.00    +0.000 Cl
ATOM     16  C   UNL     1       2.003   8.714  18.170  0.00  0.00    +0.000 A 
ATOM     17  C   UNL     1       2.556   7.509  17.721  0.00  0.00    +0.000 A 
ENDBRANCH   4  11
BRANCH   9  18
ATOM     18  C   UNL     1       6.583   4.756  14.601  0.00  0.00    +0.000 A 
ATOM     19  C   UNL     1       5.898   3.825  13.812  0.00  0.00    +0.000 A 
ATOM     20  C   UNL     1       6.285   3.617  12.490  0.00  0.00    +0.000 A 
ATOM     21  C   UNL     1       7.351   4.339  11.973  0.00  0.00    +0.000 A 
ATOM     22  C   UNL     1       7.983   5.246  12.804  0.00  0.00    +0.000 A 
ATOM     23  N   UNL     1       7.626   5.470  14.089  0.00  0.00    +0.000 NA
ENDBRANCH   9  18
TORSDOF 2
ENDMDL
MODEL 2
REMARK VINA RESULT:      -9.1      0.172      1.016
REMARK  Name = 
REMARK  3 active torsions:
REMARK  status: ('A' for Active; 'I' for Inactive)
REMARK    1  A    between atoms: C_1  and  C_2
REMARK    2  A    between atoms: N_4  and  C_5
REMARK    3  A    between atoms: C_16  and  C_17
REMARK                            x       y       z     vdW  Elec       q    Type
REMARK                         _______ _______ _______ _____ _____    ______ ____
ROOT
ATOM      1  C   UNL     1       3.140   2.643  17.259  0.00  0.00    +0.000 C 
ATOM      2  C   UNL     1       2.427   3.873  17.787  0.00  0.00    +0.000 C 
ATOM      3  O   UNL     1       1.211   3.789  17.991  0.00  0.00    +0.000 OA
ATOM      4  N   UNL     1       3.204   5.014  18.032  0.00  0.00    +0.000 N 
ATOM      5  C   UNL     1       4.574   5.055  17.646  0.00  0.00    +0.000 A 
ATOM      6  C   UNL     1       5.524   5.355  18.607  0.00  0.00    +0.000 A 
ATOM      7  C   UNL     1       6.826   5.383  18.184  0.00  0.00    +0.000 A 
ATOM      8  N   UNL     1       7.190   5.165  16.910  0.00  0.00    +0.000 NA
ATOM      9  C   UNL     1       6.203   4.886  16.027  0.00  0.00    +0.000 A 
ATOM     10  N   UNL     1       4.901   4.793  16.370  0.00  0.00    +0.000 NA
ENDROOT
BRANCH   4  11
ATOM     11  C   UNL     1       2.651   6.241  18.559  0.00  0.00    +0.000 A 
ATOM     12  C   UNL     1       2.524   7.398  17.773  0.00  0.00    +0.000 A 
ATOM     13  C   UNL     1       2.007   8.589  18.304  0.00  0.00    +0.000 A 
ATOM     14  C   UNL     1       1.606   8.645  19.634  0.00  0.00    +0.000 A 
ATOM     15 CL   UNL     1       0.978  10.106  20.286  0.00  0.00    +0.000 Cl
ATOM     16  C   UNL     1       1.721   7.521  20.440  0.00  0.00    +0.000 A 
ATOM     17  C   UNL     1       2.242   6.335  19.907  0.00  0.00    +0.000 A 
ENDBRANCH   4  11
BRANCH   9  18
ATOM     18  C   UNL     1       6.588   4.722  14.601  0.00  0.00    +0.000 A 
ATOM     19  C   UNL     1       5.943   3.799  13.771  0.00  0.00    +0.000 A 
ATOM     20  C   UNL     1       6.357   3.644  12.449  0.00  0.00    +0.000 A 
ATOM     21  C   UNL     1       7.410   4.413  11.974  0.00  0.00    +0.000 A 
ATOM     22  C   UNL     1       8.003   5.310  12.845  0.00  0.00    +0.000 A 
ATOM     23  N   UNL     1       7.619   5.482  14.130  0.00  0.00    +0.000 NA
ENDBRANCH   9  18
TORSDOF 2
ENDMDL
MODEL 3
REMARK VINA RESULT:      -8.4      0.647      1.028
REMARK  Name = 
REMARK  3 active torsions:
REMARK  status: ('A' for Active; 'I' for Inactive)
REMARK    1  A    between atoms: C_1  and  C_2
REMARK    2  A    between atoms: N_4  and  C_5
REMARK    3  A    between atoms: C_16  and  C_17
REMARK                            x       y       z     vdW  Elec       q    Type
REMARK                         _______ _______ _______ _____ _____    ______ ____
ROOT
ATOM      1  C   UNL     1       3.089   2.550  17.252  0.00  0.00    +0.000 C 
ATOM      2  C   UNL     1       2.412   3.799  17.783  0.00  0.00    +0.000 C 
ATOM      3  O   UNL     1       1.196   3.747  17.998  0.00  0.00    +0.000 OA
ATOM      4  N   UNL     1       3.220   4.920  18.019  0.00  0.00    +0.000 N 
ATOM      5  C   UNL     1       4.587   4.926  17.621  0.00  0.00    +0.000 A 
ATOM      6  C   UNL     1       5.552   5.204  18.574  0.00  0.00    +0.000 A 
ATOM      7  C   UNL     1       6.851   5.198  18.139  0.00  0.00    +0.000 A 
ATOM      8  N   UNL     1       7.198   4.968  16.863  0.00  0.00    +0.000 NA
ATOM      9  C   UNL     1       6.197   4.713  15.989  0.00  0.00    +0.000 A 
ATOM     10  N   UNL     1       4.896   4.653  16.343  0.00  0.00    +0.000 NA
ENDROOT
BRANCH   4  11
ATOM     11  C   UNL     1       2.703   6.162  18.548  0.00  0.00    +0.000 A 
ATOM     12  C   UNL     1       2.283   6.286  19.882  0.00  0.00    +0.000 A 
ATOM     13  C   UNL     1       1.761   7.490  20.376  0.00  0.00    +0.000 A 
ATOM     14  C   UNL     1       1.649   8.597  19.543  0.00  0.00    +0.000 A 
ATOM     15 CL   UNL     1       1.005  10.072  20.146  0.00  0.00    +0.000 Cl
ATOM     16  C   UNL     1       2.052   8.509  18.217  0.00  0.00    +0.000 A 
ATOM     17  C   UNL     1       2.568   7.304  17.727  0.00  0.00    +0.000 A 
ENDBRANCH   4  11
BRANCH   9  18
ATOM     18  C   UNL     1       6.566   4.536  14.560  0.00  0.00    +0.000 A 
ATOM     19  C   UNL     1       7.548   5.328  13.955  0.00  0.00    +0.000 A 
ATOM     20  C   UNL     1       7.840   5.161  12.603  0.00  0.00    +0.000 A 
ATOM     21  C   UNL     1       7.145   4.208  11.872  0.00  0.00    +0.000 A 
ATOM     22  C   UNL     1       6.188   3.457  12.529  0.00  0.00    +0.000 A 
ATOM     23  N   UNL     1       5.888   3.595  13.841  0.00  0.00    +0.000 NA
ENDBRANCH   9  18
TORSDOF 2
ENDMDL
MODEL 4
REMARK VINA RESULT:      -8.3      0.639      1.433
REMARK  Name = 
REMARK  3 active torsions:
REMARK  status: ('A' for Active; 'I' for Inactive)
REMARK    1  A    between atoms: C_1  and  C_2
REMARK    2  A    between atoms: N_4  and  C_5
REMARK    3  A    between atoms: C_16  and  C_17
REMARK                            x       y       z     vdW  Elec       q    Type
REMARK                         _______ _______ _______ _____ _____    ______ ____
ROOT
ATOM      1  C   UNL     1       3.418   2.513  17.584  0.00  0.00    +0.000 C 
ATOM      2  C   UNL     1       2.654   3.732  18.064  0.00  0.00    +0.000 C 
ATOM      3  O   UNL     1       1.457   3.591  18.335  0.00  0.00    +0.000 OA
ATOM      4  N   UNL     1       3.368   4.932  18.194  0.00  0.00    +0.000 N 
ATOM      5  C   UNL     1       4.714   5.028  17.738  0.00  0.00    +0.000 A 
ATOM      6  C   UNL     1       5.686   5.450  18.628  0.00  0.00    +0.000 A 
ATOM      7  C   UNL     1       6.963   5.526  18.139  0.00  0.00    +0.000 A 
ATOM      8  N   UNL     1       7.281   5.242  16.866  0.00  0.00    +0.000 NA
ATOM      9  C   UNL     1       6.274   4.845  16.054  0.00  0.00    +0.000 A 
ATOM     10  N   UNL     1       4.997   4.698  16.467  0.00  0.00    +0.000 NA
ENDROOT
BRANCH   4  11
ATOM     11  C   UNL     1       2.764   6.157  18.665  0.00  0.00    +0.000 A 
ATOM     12  C   UNL     1       2.609   7.279  17.834  0.00  0.00    +0.000 A 
ATOM     13  C   UNL     1       2.043   8.470  18.312  0.00  0.00    +0.000 A 
ATOM     14  C   UNL     1       1.618   8.561  19.632  0.00  0.00    +0.000 A 
ATOM     15 CL   UNL     1       0.928  10.022  20.219  0.00  0.00    +0.000 Cl
ATOM     16  C   UNL     1       1.758   7.472  20.482  0.00  0.00    +0.000 A 
ATOM     17  C   UNL     1       2.329   6.287  20.003  0.00  0.00    +0.000 A 
ENDBRANCH   4  11
BRANCH   9  18
ATOM     18  C   UNL     1       6.602   4.606  14.624  0.00  0.00    +0.000 A 
ATOM     19  C   UNL     1       7.567   5.370  13.958  0.00  0.00    +0.000 A 
ATOM     20  C   UNL     1       7.821   5.144  12.606  0.00  0.00    +0.000 A 
ATOM     21  C   UNL     1       7.106   4.160  11.938  0.00  0.00    +0.000 A 
ATOM     22  C   UNL     1       6.169   3.438  12.654  0.00  0.00    +0.000 A 
ATOM     23  N   UNL     1       5.906   3.634  13.966  0.00  0.00    +0.000 NA
ENDBRANCH   9  18
TORSDOF 2
ENDMDL
MODEL 5
REMARK VINA RESULT:      -6.8      5.960     10.654
REMARK  Name = 
REMARK  3 active torsions:
REMARK  status: ('A' for Active; 'I' for Inactive)
REMARK    1  A    between atoms: C_1  and  C_2
REMARK    2  A    between atoms: N_4  and  C_5
REMARK    3  A    between atoms: C_16  and  C_17
REMARK                            x       y       z     vdW  Elec       q    Type
REMARK                         _______ _______ _______ _____ _____    ______ ____
ROOT
ATOM      1  C   UNL     1      -1.817  12.060  18.244  0.00  0.00    +0.000 C 
ATOM      2  C   UNL     1      -1.042  10.756  18.252  0.00  0.00    +0.000 C 
ATOM      3  O   UNL     1      -1.454   9.837  17.538  0.00  0.00    +0.000 OA
ATOM      4  N   UNL     1       0.108  10.695  19.053  0.00  0.00    +0.000 N 
ATOM      5  C   UNL     1       0.433  11.761  19.939  0.00  0.00    +0.000 A 
ATOM      6  C   UNL     1       1.681  12.350  19.836  0.00  0.00    +0.000 A 
ATOM      7  C   UNL     1       1.943  13.371  20.712  0.00  0.00    +0.000 A 
ATOM      8  N   UNL     1       1.072  13.779  21.647  0.00  0.00    +0.000 NA
ATOM      9  C   UNL     1      -0.125  13.148  21.691  0.00  0.00    +0.000 A 
ATOM     10  N   UNL     1      -0.482  12.166  20.836  0.00  0.00    +0.000 NA
ENDROOT
BRANCH   4  11
ATOM     11  C   UNL     1       0.948   9.521  19.130  0.00  0.00    +0.000 A 
ATOM     12  C   UNL     1       1.674   9.052  18.023  0.00  0.00    +0.000 A 
ATOM     13  C   UNL     1       2.467   7.898  18.105  0.00  0.00    +0.000 A 
ATOM     14  C   UNL     1       2.550   7.190  19.299  0.00  0.00    +0.000 A 
ATOM     15 CL   UNL     1       3.517   5.773  19.399  0.00  0.00    +0.000 Cl
ATOM     16  C   UNL     1       1.843   7.625  20.412  0.00  0.00    +0.000 A 
ATOM     17  C   UNL     1       1.048   8.774  20.324  0.00  0.00    +0.000 A 
ENDBRANCH   4  11
BRANCH   9  18
ATOM     18  C   UNL     1      -1.065  13.539  22.774  0.00  0.00    +0.000 A 
ATOM     19  C   UNL     1      -2.313  12.922  22.917  0.00  0.00    +0.000 A 
ATOM     20  C   UNL     1      -3.184  13.341  23.920  0.00  0.00    +0.000 A 
ATOM     21  C   UNL     1      -2.799  14.372  24.766  0.00  0.00    +0.000 A 
ATOM     22  C   UNL     1      -1.552  14.937  24.573  0.00  0.00    +0.000 A 
ATOM     23  N   UNL     1      -0.685  14.547  23.611  0.00  0.00    +0.000 NA
ENDBRANCH   9  18
TORSDOF 2
ENDMDL
MODEL 6
REMARK VINA RESULT:      -6.6      3.357      6.463
REMARK  Name = 
REMARK  3 active torsions:
REMARK  status: ('A' for Active; 'I' for Inactive)
REMARK    1  A    between atoms: C_1  and  C_2
REMARK    2  A    between atoms: N_4  and  C_5
REMARK    3  A    between atoms: C_16  and  C_17
REMARK                            x       y       z     vdW  Elec       q    Type
REMARK                         _______ _______ _______ _____ _____    ______ ____
ROOT
ATOM      1  C   UNL     1       5.616   3.893  16.059  0.00  0.00    +0.000 C 
ATOM      2  C   UNL     1       6.652   4.912  16.494  0.00  0.00    +0.000 C 
ATOM      3  O   UNL     1       7.825   4.718  16.158  0.00  0.00    +0.000 OA
ATOM      4  N   UNL     1       6.201   6.020  17.225  0.00  0.00    +0.000 N 
ATOM      5  C   UNL     1       4.851   6.092  17.674  0.00  0.00    +0.000 A 
ATOM      6  C   UNL     1       4.098   7.201  17.329  0.00  0.00    +0.000 A 
ATOM      7  C   UNL     1       2.807   7.222  17.786  0.00  0.00    +0.000 A 
ATOM      8  N   UNL     1       2.282   6.252  18.551  0.00  0.00    +0.000 NA
ATOM      9  C   UNL     1       3.084   5.204  18.853  0.00  0.00    +0.000 A 
ATOM     10  N   UNL     1       4.352   5.083  18.405  0.00  0.00    +0.000 NA
ENDROOT
BRANCH   4  11
ATOM     11  C   UNL     1       7.082   7.073  17.676  0.00  0.00    +0.000 A 
ATOM     12  C   UNL     1       7.988   6.885  18.731  0.00  0.00    +0.000 A 
ATOM     13  C   UNL     1       8.821   7.924  19.174  0.00  0.00    +0.000 A 
ATOM     14  C   UNL     1       8.763   9.173  18.567  0.00  0.00    +0.000 A 
ATOM     15 CL   UNL     1       9.778  10.447  19.112  0.00  0.00    +0.000 Cl
ATOM     16  C   UNL     1       7.875   9.395  17.522  0.00  0.00    +0.000 A 
ATOM     17  C   UNL     1       7.042   8.357  17.087  0.00  0.00    +0.000 A 
ENDBRANCH   4  11
BRANCH   9  18
ATOM     18  C   UNL     1       2.538   4.165  19.765  0.00  0.00    +0.000 A 
ATOM     19  C   UNL     1       1.160   3.988  19.929  0.00  0.00    +0.000 A 
ATOM     20  C   UNL     1       0.684   3.030  20.822  0.00  0.00    +0.000 A 
ATOM     21  C   UNL     1       1.590   2.264  21.542  0.00  0.00    +0.000 A 
ATOM     22  C   UNL     1       2.939   2.487  21.331  0.00  0.00    +0.000 A 
ATOM     23  N   UNL     1       3.427   3.406  20.468  0.00  0.00    +0.000 NA
ENDBRANCH   9  18
TORSDOF 2
ENDMDL
MODEL 7
REMARK VINA RESULT:      -6.6      5.876     10.702
REMARK  Name = 
REMARK  3 active torsions:
REMARK  status: ('A' for Active; 'I' for Inactive)
REMARK    1  A    between atoms: C_1  and  C_2
REMARK    2  A    between atoms: N_4  and  C_5
REMARK    3  A    between atoms: C_16  and  C_17
REMARK                            x       y       z     vdW  Elec       q    Type
REMARK                         _______ _______ _______ _____ _____    ______ ____
ROOT
ATOM      1  C   UNL     1      -1.888  11.917  18.084  0.00  0.00    +0.000 C 
ATOM      2  C   UNL     1      -1.059  10.646  18.100  0.00  0.00    +0.000 C 
ATOM      3  O   UNL     1      -1.377   9.743  17.319  0.00  0.00    +0.000 OA
ATOM      4  N   UNL     1       0.028  10.596  18.983  0.00  0.00    +0.000 N 
ATOM      5  C   UNL     1       0.239  11.635  19.934  0.00  0.00    +0.000 A 
ATOM      6  C   UNL     1       1.465  12.277  19.952  0.00  0.00    +0.000 A 
ATOM      7  C   UNL     1       1.616  13.267  20.886  0.00  0.00    +0.000 A 
ATOM      8  N   UNL     1       0.660  13.599  21.767  0.00  0.00    +0.000 NA
ATOM      9  C   UNL     1      -0.508  12.920  21.693  0.00  0.00    +0.000 A 
ATOM     10  N   UNL     1      -0.757  11.963  20.774  0.00  0.00    +0.000 NA
ENDROOT
BRANCH   4  11
ATOM     11  C   UNL     1       0.909   9.454  19.077  0.00  0.00    +0.000 A 
ATOM     12  C   UNL     1       1.672   9.011  17.985  0.00  0.00    +0.000 A 
ATOM     13  C   UNL     1       2.506   7.888  18.083  0.00  0.00    +0.000 A 
ATOM     14  C   UNL     1       2.594   7.185  19.279  0.00  0.00    +0.000 A 
ATOM     15 CL   UNL     1       3.611   5.805  19.398  0.00  0.00    +0.000 Cl
ATOM     16  C   UNL     1       1.851   7.593  20.378  0.00  0.00    +0.000 A 
ATOM     17  C   UNL     1       1.016   8.712  20.274  0.00  0.00    +0.000 A 
ENDBRANCH   4  11
BRANCH   9  18
ATOM     18  C   UNL     1      -1.543  13.225  22.715  0.00  0.00    +0.000 A 
ATOM     19  C   UNL     1      -1.435  14.338  23.556  0.00  0.00    +0.000 A 
ATOM     20  C   UNL     1      -2.404  14.571  24.530  0.00  0.00    +0.000 A 
ATOM     21  C   UNL     1      -3.468  13.688  24.652  0.00  0.00    +0.000 A 
ATOM     22  C   UNL     1      -3.518  12.610  23.788  0.00  0.00    +0.000 A 
ATOM     23  N   UNL     1      -2.594  12.362  22.833  0.00  0.00    +0.000 NA
ENDBRANCH   9  18
TORSDOF 2
ENDMDL
MODEL 8
REMARK VINA RESULT:      -6.6      5.865     10.640
REMARK  Name = 
REMARK  3 active torsions:
REMARK  status: ('A' for Active; 'I' for Inactive)
REMARK    1  A    between atoms: C_1  and  C_2
REMARK    2  A    between atoms: N_4  and  C_5
REMARK    3  A    between atoms: C_16  and  C_17
REMARK                            x       y       z     vdW  Elec       q    Type
REMARK                         _______ _______ _______ _____ _____    ______ ____
ROOT
ATOM      1  C   UNL     1      -1.884  11.915  18.074  0.00  0.00    +0.000 C 
ATOM      2  C   UNL     1      -1.076  10.631  18.095  0.00  0.00    +0.000 C 
ATOM      3  O   UNL     1      -1.411   9.728  17.322  0.00  0.00    +0.000 OA
ATOM      4  N   UNL     1       0.014  10.569  18.975  0.00  0.00    +0.000 N 
ATOM      5  C   UNL     1       0.246  11.611  19.917  0.00  0.00    +0.000 A 
ATOM      6  C   UNL     1       1.483  12.233  19.925  0.00  0.00    +0.000 A 
ATOM      7  C   UNL     1       1.654  13.228  20.851  0.00  0.00    +0.000 A 
ATOM      8  N   UNL     1       0.707  13.581  21.734  0.00  0.00    +0.000 NA
ATOM      9  C   UNL     1      -0.472  12.920  21.670  0.00  0.00    +0.000 A 
ATOM     10  N   UNL     1      -0.741  11.961  20.758  0.00  0.00    +0.000 NA
ENDROOT
BRANCH   4  11
ATOM     11  C   UNL     1       0.878   9.414  19.073  0.00  0.00    +0.000 A 
ATOM     12  C   UNL     1       1.017   8.688  20.266  0.00  0.00    +0.000 A 
ATOM     13  C   UNL     1       1.877   7.583  20.354  0.00  0.00    +0.000 A 
ATOM     14  C   UNL     1       2.616   7.183  19.247  0.00  0.00    +0.000 A 
ATOM     15 CL   UNL     1       3.673   5.833  19.355  0.00  0.00    +0.000 Cl
ATOM     16  C   UNL     1       2.504   7.880  18.051  0.00  0.00    +0.000 A 
ATOM     17  C   UNL     1       1.649   8.986  17.969  0.00  0.00    +0.000 A 
ENDBRANCH   4  11
BRANCH   9  18
ATOM     18  C   UNL     1      -1.498  13.250  22.694  0.00  0.00    +0.000 A 
ATOM     19  C   UNL     1      -1.350  14.346  23.551  0.00  0.00    +0.000 A 
ATOM     20  C   UNL     1      -2.313  14.602  24.525  0.00  0.00    +0.000 A 
ATOM     21  C   UNL     1      -3.409  13.757  24.634  0.00  0.00    +0.000 A 
ATOM     22  C   UNL     1      -3.497  12.693  23.755  0.00  0.00    +0.000 A 
ATOM     23  N   UNL     1      -2.580  12.425  22.798  0.00  0.00    +0.000 NA
ENDBRANCH   9  18
TORSDOF 2
ENDMDL
MODEL 9
REMARK VINA RESULT:      -6.4      3.195      7.194
REMARK  Name = 
REMARK  3 active torsions:
REMARK  status: ('A' for Active; 'I' for Inactive)
REMARK    1  A    between atoms: C_1  and  C_2
REMARK    2  A    between atoms: N_4  and  C_5
REMARK    3  A    between atoms: C_16  and  C_17
REMARK                            x       y       z     vdW  Elec       q    Type
REMARK                         _______ _______ _______ _____ _____    ______ ____
ROOT
ATOM      1  C   UNL     1       6.368   5.213  19.527  0.00  0.00    +0.000 C 
ATOM      2  C   UNL     1       6.850   5.030  18.101  0.00  0.00    +0.000 C 
ATOM      3  O   UNL     1       8.067   5.070  17.896  0.00  0.00    +0.000 OA
ATOM      4  N   UNL     1       5.879   4.800  17.116  0.00  0.00    +0.000 N 
ATOM      5  C   UNL     1       4.492   4.897  17.428  0.00  0.00    +0.000 A 
ATOM      6  C   UNL     1       3.675   3.815  17.150  0.00  0.00    +0.000 A 
ATOM      7  C   UNL     1       2.350   3.960  17.468  0.00  0.00    +0.000 A 
ATOM      8  N   UNL     1       1.839   5.085  17.992  0.00  0.00    +0.000 NA
ATOM      9  C   UNL     1       2.700   6.102  18.226  0.00  0.00    +0.000 A 
ATOM     10  N   UNL     1       4.026   6.026  17.986  0.00  0.00    +0.000 NA
ENDROOT
BRANCH   4  11
ATOM     11  C   UNL     1       6.208   4.584  15.726  0.00  0.00    +0.000 A 
ATOM     12  C   UNL     1       7.231   5.299  15.083  0.00  0.00    +0.000 A 
ATOM     13  C   UNL     1       7.525   5.096  13.726  0.00  0.00    +0.000 A 
ATOM     14  C   UNL     1       6.799   4.171  12.985  0.00  0.00    +0.000 A 
ATOM     15 CL   UNL     1       7.154   3.926  11.322  0.00  0.00    +0.000 Cl
ATOM     16  C   UNL     1       5.778   3.449  13.588  0.00  0.00    +0.000 A 
ATOM     17  C   UNL     1       5.485   3.658  14.941  0.00  0.00    +0.000 A 
ENDBRANCH   4  11
BRANCH   9  18
ATOM     18  C   UNL     1       2.130   7.379  18.730  0.00  0.00    +0.000 A 
ATOM     19  C   UNL     1       1.928   8.474  17.884  0.00  0.00    +0.000 A 
ATOM     20  C   UNL     1       1.429   9.668  18.400  0.00  0.00    +0.000 A 
ATOM     21  C   UNL     1       1.139   9.753  19.754  0.00  0.00    +0.000 A 
ATOM     22  C   UNL     1       1.358   8.634  20.536  0.00  0.00    +0.000 A 
ATOM     23  N   UNL     1       1.838   7.462  20.061  0.00  0.00    +0.000 NA
ENDBRANCH   9  18
TORSDOF 2
ENDMDL
