MODEL 1
REMARK VINA RESULT:      -8.0      0.000      0.000
REMARK  Name = 
REMARK  5 active torsions:
REMARK  status: ('A' for Active; 'I' for Inactive)
REMARK    1  A    between atoms: N_2  and  C_4
REMARK    2  A    between atoms: C_7  and  S_8
REMARK    3  A    between atoms: S_8  and  C_9
REMARK    4  A    between atoms: C_12  and  O_13
REMARK    5  A    between atoms: N_14  and  C_15
REMARK                            x       y       z     vdW  Elec       q    Type
REMARK                         _______ _______ _______ _____ _____    ______ ____
ROOT
ATOM      1  C   UNL     1       4.117   3.929  19.291  0.00  0.00    +0.000 A 
ATOM      2  N   UNL     1       4.021   2.618  19.372  0.00  0.00    +0.000 NA
ATOM      3  N   UNL     1       2.702   2.297  19.541  0.00  0.00    +0.000 NA
ATOM      4  C   UNL     1       2.032   3.420  19.558  0.00  0.00    +0.000 A 
ATOM      5  N   UNL     1       2.866   4.519  19.414  0.00  0.00    +0.000 N 
ENDROOT
BRANCH   5   6
ATOM      6  C   UNL     1       2.468   5.889  19.426  0.00  0.00    +0.000 A 
ATOM      7  C   UNL     1       1.941   6.448  20.617  0.00  0.00    +0.000 A 
ATOM      8  C   UNL     1       1.528   7.784  20.669  0.00  0.00    +0.000 A 
ATOM      9  C   UNL     1       1.652   8.536  19.525  0.00  0.00    +0.000 A 
ATOM     10  C   UNL     1       2.174   8.007  18.370  0.00  0.00    +0.000 A 
ATOM     11  C   UNL     1       2.600   6.696  18.288  0.00  0.00    +0.000 A 
ATOM     12  O   UNL     1       2.225   8.916  17.360  0.00  0.00    +0.000 OA
ATOM     13  C   UNL     1       1.626  10.064  17.999  0.00  0.00    +0.000 C 
ATOM     14  O   UNL     1       1.298   9.841  19.386  0.00  0.00    +0.000 OA
ENDBRANCH   5   6
BRANCH   4  15
ATOM     15  O   UNL     1       0.731   3.450  19.800  0.00  0.00    +0.000 OA
ATOM     16  H   UNL     1       0.696   3.722  20.736  0.00  0.00    +0.000 HD
ENDBRANCH   4  15
BRANCH   1  17
ATOM     17  S   UNL     1       5.631   4.734  19.052  0.00  0.00    +0.000 S 
BRANCH  17  21
ATOM     18  C   UNL     1       6.480   4.718  15.020  0.00  0.00    +0.000 A 
ATOM     19  C   UNL     1       5.144   4.442  15.193  0.00  0.00    +0.000 A 
ATOM     20  N   UNL     1       4.721   4.398  16.514  0.00  0.00    +0.000 NA
ATOM     21  C   UNL     1       5.746   4.628  17.307  0.00  0.00    +0.000 A 
ATOM     22  S   UNL     1       7.248   4.932  16.519  0.00  0.00    +0.000 S 
BRANCH  18  24
ATOM     23  O   UNL     1       6.818   4.096  12.867  0.00  0.00    +0.000 OA
ATOM     24  N   UNL     1       7.193   4.834  13.789  0.00  0.00    +0.000 N 
ATOM     25  O   UNL     1       8.119   5.654  13.720  0.00  0.00    +0.000 OA
ENDBRANCH  18  24
ENDBRANCH  17  21
ENDBRANCH   1  17
TORSDOF 5
ENDMDL
MODEL 2
REMARK VINA RESULT:      -7.8      0.733      1.451
REMARK  Name = 
REMARK  5 active torsions:
REMARK  status: ('A' for Active; 'I' for Inactive)
REMARK    1  A    between atoms: N_2  and  C_4
REMARK    2  A    between atoms: C_7  and  S_8
REMARK    3  A    between atoms: S_8  and  C_9
REMARK    4  A    between atoms: C_12  and  O_13
REMARK    5  A    between atoms: N_14  and  C_15
REMARK                            x       y       z     vdW  Elec       q    Type
REMARK                         _______ _______ _______ _____ _____    ______ ____
ROOT
ATOM      1  C   UNL     1       4.003   4.273  19.586  0.00  0.00    +0.000 A 
ATOM      2  N   UNL     1       3.906   2.980  19.822  0.00  0.00    +0.000 NA
ATOM      3  N   UNL     1       2.584   2.680  20.009  0.00  0.00    +0.000 NA
ATOM      4  C   UNL     1       1.914   3.796  19.881  0.00  0.00    +0.000 A 
ATOM      5  N   UNL     1       2.750   4.871  19.618  0.00  0.00    +0.000 N 
ENDROOT
BRANCH   5   6
ATOM      6  C   UNL     1       2.352   6.231  19.460  0.00  0.00    +0.000 A 
ATOM      7  C   UNL     1       2.470   6.845  18.187  0.00  0.00    +0.000 A 
ATOM      8  C   UNL     1       2.103   8.181  17.991  0.00  0.00    +0.000 A 
ATOM      9  C   UNL     1       1.624   8.878  19.074  0.00  0.00    +0.000 A 
ATOM     10  C   UNL     1       1.493   8.288  20.308  0.00  0.00    +0.000 A 
ATOM     11  C   UNL     1       1.837   6.970  20.533  0.00  0.00    +0.000 A 
ATOM     12  O   UNL     1       0.988   9.141  21.240  0.00  0.00    +0.000 OA
ATOM     13  C   UNL     1       0.865  10.350  20.460  0.00  0.00    +0.000 C 
ATOM     14  O   UNL     1       1.227  10.178  19.075  0.00  0.00    +0.000 OA
ENDBRANCH   5   6
BRANCH   4  15
ATOM     15  O   UNL     1       0.610   3.852  20.099  0.00  0.00    +0.000 OA
ATOM     16  H   UNL     1       0.343   4.638  19.587  0.00  0.00    +0.000 HD
ENDBRANCH   4  15
BRANCH   1  17
ATOM     17  S   UNL     1       5.520   5.045  19.274  0.00  0.00    +0.000 S 
BRANCH  17  21
ATOM     18  C   UNL     1       6.348   4.705  15.253  0.00  0.00    +0.000 A 
ATOM     19  C   UNL     1       5.060   4.278  15.477  0.00  0.00    +0.000 A 
ATOM     20  N   UNL     1       4.651   4.323  16.804  0.00  0.00    +0.000 NA
ATOM     21  C   UNL     1       5.641   4.767  17.549  0.00  0.00    +0.000 A 
ATOM     22  S   UNL     1       7.087   5.177  16.706  0.00  0.00    +0.000 S 
BRANCH  18  24
ATOM     23  O   UNL     1       6.610   4.044  13.100  0.00  0.00    +0.000 OA
ATOM     24  N   UNL     1       7.034   4.779  14.003  0.00  0.00    +0.000 N 
ATOM     25  O   UNL     1       7.988   5.563  13.901  0.00  0.00    +0.000 OA
ENDBRANCH  18  24
ENDBRANCH  17  21
ENDBRANCH   1  17
TORSDOF 5
ENDMDL
MODEL 3
REMARK VINA RESULT:      -7.6      0.855      1.061
REMARK  Name = 
REMARK  5 active torsions:
REMARK  status: ('A' for Active; 'I' for Inactive)
REMARK    1  A    between atoms: N_2  and  C_4
REMARK    2  A    between atoms: C_7  and  S_8
REMARK    3  A    between atoms: S_8  and  C_9
REMARK    4  A    between atoms: C_12  and  O_13
REMARK    5  A    between atoms: N_14  and  C_15
REMARK                            x       y       z     vdW  Elec       q    Type
REMARK                         _______ _______ _______ _____ _____    ______ ____
ROOT
ATOM      1  C   UNL     1       4.113   3.656  18.274  0.00  0.00    +0.000 A 
ATOM      2  N   UNL     1       3.972   2.362  18.068  0.00  0.00    +0.000 NA
ATOM      3  N   UNL     1       2.638   2.065  18.132  0.00  0.00    +0.000 NA
ATOM      4  C   UNL     1       2.005   3.183  18.374  0.00  0.00    +0.000 A 
ATOM      5  N   UNL     1       2.879   4.254  18.491  0.00  0.00    +0.000 N 
ENDROOT
BRANCH   5   6
ATOM      6  C   UNL     1       2.527   5.604  18.788  0.00  0.00    +0.000 A 
ATOM      7  C   UNL     1       2.164   5.950  20.115  0.00  0.00    +0.000 A 
ATOM      8  C   UNL     1       1.801   7.259  20.447  0.00  0.00    +0.000 A 
ATOM      9  C   UNL     1       1.807   8.199  19.443  0.00  0.00    +0.000 A 
ATOM     10  C   UNL     1       2.169   7.877  18.159  0.00  0.00    +0.000 A 
ATOM     11  C   UNL     1       2.543   6.596  17.799  0.00  0.00    +0.000 A 
ATOM     12  O   UNL     1       2.124   8.948  17.322  0.00  0.00    +0.000 OA
ATOM     13  C   UNL     1       1.642   9.971  18.219  0.00  0.00    +0.000 C 
ATOM     14  O   UNL     1       1.479   9.511  19.577  0.00  0.00    +0.000 OA
ENDBRANCH   5   6
BRANCH   4  15
ATOM     15  O   UNL     1       0.699   3.212  18.585  0.00  0.00    +0.000 OA
ATOM     16  H   UNL     1       0.560   2.439  19.163  0.00  0.00    +0.000 HD
ENDBRANCH   4  15
BRANCH   1  17
ATOM     17  S   UNL     1       5.660   4.433  18.252  0.00  0.00    +0.000 S 
BRANCH  17  21
ATOM     18  C   UNL     1       6.868   4.801  14.330  0.00  0.00    +0.000 A 
ATOM     19  C   UNL     1       5.585   4.305  14.354  0.00  0.00    +0.000 A 
ATOM     20  N   UNL     1       5.055   4.113  15.623  0.00  0.00    +0.000 NA
ATOM     21  C   UNL     1       5.951   4.454  16.525  0.00  0.00    +0.000 A 
ATOM     22  S   UNL     1       7.448   5.043  15.907  0.00  0.00    +0.000 S 
BRANCH  18  24
ATOM     23  O   UNL     1       8.603   5.891  13.361  0.00  0.00    +0.000 OA
ATOM     24  N   UNL     1       7.662   5.105  13.183  0.00  0.00    +0.000 N 
ATOM     25  O   UNL     1       7.368   4.570  12.106  0.00  0.00    +0.000 OA
ENDBRANCH  18  24
ENDBRANCH  17  21
ENDBRANCH   1  17
TORSDOF 5
ENDMDL
MODEL 4
REMARK VINA RESULT:      -7.4      1.007      1.174
REMARK  Name = 
REMARK  5 active torsions:
REMARK  status: ('A' for Active; 'I' for Inactive)
REMARK    1  A    between atoms: N_2  and  C_4
REMARK    2  A    between atoms: C_7  and  S_8
REMARK    3  A    between atoms: S_8  and  C_9
REMARK    4  A    between atoms: C_12  and  O_13
REMARK    5  A    between atoms: N_14  and  C_15
REMARK                            x       y       z     vdW  Elec       q    Type
REMARK                         _______ _______ _______ _____ _____    ______ ____
ROOT
ATOM      1  C   UNL     1       4.347   3.923  19.045  0.00  0.00    +0.000 A 
ATOM      2  N   UNL     1       4.298   2.609  18.970  0.00  0.00    +0.000 NA
ATOM      3  N   UNL     1       2.983   2.232  18.940  0.00  0.00    +0.000 NA
ATOM      4  C   UNL     1       2.268   3.326  18.999  0.00  0.00    +0.000 A 
ATOM      5  N   UNL     1       3.065   4.458  19.078  0.00  0.00    +0.000 N 
ENDROOT
BRANCH   5   6
ATOM      6  C   UNL     1       2.611   5.805  19.191  0.00  0.00    +0.000 A 
ATOM      7  C   UNL     1       2.053   6.249  20.417  0.00  0.00    +0.000 A 
ATOM      8  C   UNL     1       1.584   7.558  20.566  0.00  0.00    +0.000 A 
ATOM      9  C   UNL     1       1.683   8.401  19.485  0.00  0.00    +0.000 A 
ATOM     10  C   UNL     1       2.235   7.985  18.298  0.00  0.00    +0.000 A 
ATOM     11  C   UNL     1       2.716   6.702  18.120  0.00  0.00    +0.000 A 
ATOM     12  O   UNL     1       2.254   8.970  17.361  0.00  0.00    +0.000 OA
ATOM     13  C   UNL     1       1.603  10.039  18.080  0.00  0.00    +0.000 C 
ATOM     14  O   UNL     1       1.277   9.697  19.443  0.00  0.00    +0.000 OA
ENDBRANCH   5   6
BRANCH   4  15
ATOM     15  O   UNL     1       0.948   3.290  19.082  0.00  0.00    +0.000 OA
ATOM     16  H   UNL     1       0.761   2.333  19.070  0.00  0.00    +0.000 HD
ENDBRANCH   4  15
BRANCH   1  17
ATOM     17  S   UNL     1       5.842   4.794  19.082  0.00  0.00    +0.000 S 
BRANCH  17  21
ATOM     18  C   UNL     1       6.264   4.368  15.005  0.00  0.00    +0.000 A 
ATOM     19  C   UNL     1       7.452   4.823  15.528  0.00  0.00    +0.000 A 
ATOM     20  N   UNL     1       7.446   5.030  16.901  0.00  0.00    +0.000 NA
ATOM     21  C   UNL     1       6.254   4.740  17.380  0.00  0.00    +0.000 A 
ATOM     22  S   UNL     1       5.101   4.183  16.227  0.00  0.00    +0.000 S 
BRANCH  18  24
ATOM     23  O   UNL     1       4.783   3.871  13.364  0.00  0.00    +0.000 OA
ATOM     24  N   UNL     1       5.975   4.060  13.642  0.00  0.00    +0.000 N 
ATOM     25  O   UNL     1       6.916   4.009  12.838  0.00  0.00    +0.000 OA
ENDBRANCH  18  24
ENDBRANCH  17  21
ENDBRANCH   1  17
TORSDOF 5
ENDMDL
MODEL 5
REMARK VINA RESULT:      -7.3      1.193      1.864
REMARK  Name = 
REMARK  5 active torsions:
REMARK  status: ('A' for Active; 'I' for Inactive)
REMARK    1  A    between atoms: N_2  and  C_4
REMARK    2  A    between atoms: C_7  and  S_8
REMARK    3  A    between atoms: S_8  and  C_9
REMARK    4  A    between atoms: C_12  and  O_13
REMARK    5  A    between atoms: N_14  and  C_15
REMARK                            x       y       z     vdW  Elec       q    Type
REMARK                         _______ _______ _______ _____ _____    ______ ____
ROOT
ATOM      1  C   UNL     1       4.353   4.203  19.111  0.00  0.00    +0.000 A 
ATOM      2  N   UNL     1       4.345   2.886  19.086  0.00  0.00    +0.000 NA
ATOM      3  N   UNL     1       3.042   2.469  19.087  0.00  0.00    +0.000 NA
ATOM      4  C   UNL     1       2.294   3.541  19.113  0.00  0.00    +0.000 A 
ATOM      5  N   UNL     1       3.056   4.700  19.140  0.00  0.00    +0.000 N 
ENDROOT
BRANCH   5   6
ATOM      6  C   UNL     1       2.561   6.035  19.209  0.00  0.00    +0.000 A 
ATOM      7  C   UNL     1       2.578   6.843  18.044  0.00  0.00    +0.000 A 
ATOM      8  C   UNL     1       2.114   8.162  18.070  0.00  0.00    +0.000 A 
ATOM      9  C   UNL     1       1.639   8.649  19.265  0.00  0.00    +0.000 A 
ATOM     10  C   UNL     1       1.606   7.871  20.396  0.00  0.00    +0.000 A 
ATOM     11  C   UNL     1       2.047   6.562  20.402  0.00  0.00    +0.000 A 
ATOM     12  O   UNL     1       1.088   8.532  21.466  0.00  0.00    +0.000 OA
ATOM     13  C   UNL     1       0.848   9.833  20.889  0.00  0.00    +0.000 C 
ATOM     14  O   UNL     1       1.156   9.901  19.481  0.00  0.00    +0.000 OA
ENDBRANCH   5   6
BRANCH   4  15
ATOM     15  O   UNL     1       0.976   3.468  19.214  0.00  0.00    +0.000 OA
ATOM     16  H   UNL     1       0.685   4.302  18.803  0.00  0.00    +0.000 HD
ENDBRANCH   4  15
BRANCH   1  17
ATOM     17  S   UNL     1       5.821   5.120  19.098  0.00  0.00    +0.000 S 
BRANCH  17  21
ATOM     18  C   UNL     1       6.298   4.446  15.061  0.00  0.00    +0.000 A 
ATOM     19  C   UNL     1       7.524   4.743  15.608  0.00  0.00    +0.000 A 
ATOM     20  N   UNL     1       7.507   5.013  16.970  0.00  0.00    +0.000 NA
ATOM     21  C   UNL     1       6.272   4.926  17.416  0.00  0.00    +0.000 A 
ATOM     22  S   UNL     1       5.083   4.494  16.246  0.00  0.00    +0.000 S 
BRANCH  18  24
ATOM     23  O   UNL     1       4.823   3.870  13.439  0.00  0.00    +0.000 OA
ATOM     24  N   UNL     1       6.007   4.122  13.702  0.00  0.00    +0.000 N 
ATOM     25  O   UNL     1       6.939   4.118  12.886  0.00  0.00    +0.000 OA
ENDBRANCH  18  24
ENDBRANCH  17  21
ENDBRANCH   1  17
TORSDOF 5
ENDMDL
MODEL 6
REMARK VINA RESULT:      -7.2      3.051      7.139
REMARK  Name = 
REMARK  5 active torsions:
REMARK  status: ('A' for Active; 'I' for Inactive)
REMARK    1  A    between atoms: N_2  and  C_4
REMARK    2  A    between atoms: C_7  and  S_8
REMARK    3  A    between atoms: S_8  and  C_9
REMARK    4  A    between atoms: C_12  and  O_13
REMARK    5  A    between atoms: N_14  and  C_15
REMARK                            x       y       z     vdW  Elec       q    Type
REMARK                         _______ _______ _______ _____ _____    ______ ____
ROOT
ATOM      1  C   UNL     1       5.770   5.777  18.234  0.00  0.00    +0.000 A 
ATOM      2  N   UNL     1       6.234   5.811  19.467  0.00  0.00    +0.000 NA
ATOM      3  N   UNL     1       7.422   5.132  19.493  0.00  0.00    +0.000 NA
ATOM      4  C   UNL     1       7.647   4.703  18.279  0.00  0.00    +0.000 A 
ATOM      5  N   UNL     1       6.630   5.065  17.408  0.00  0.00    +0.000 N 
ENDROOT
BRANCH   5   6
ATOM      6  C   UNL     1       6.542   4.729  16.025  0.00  0.00    +0.000 A 
ATOM      7  C   UNL     1       5.593   3.763  15.603  0.00  0.00    +0.000 A 
ATOM      8  C   UNL     1       5.482   3.396  14.258  0.00  0.00    +0.000 A 
ATOM      9  C   UNL     1       6.324   4.004  13.358  0.00  0.00    +0.000 A 
ATOM     10  C   UNL     1       7.237   4.951  13.754  0.00  0.00    +0.000 A 
ATOM     11  C   UNL     1       7.366   5.343  15.072  0.00  0.00    +0.000 A 
ATOM     12  O   UNL     1       7.962   5.440  12.712  0.00  0.00    +0.000 OA
ATOM     13  C   UNL     1       7.434   4.654  11.623  0.00  0.00    +0.000 C 
ATOM     14  O   UNL     1       6.365   3.770  12.019  0.00  0.00    +0.000 OA
ENDBRANCH   5   6
BRANCH   4  15
ATOM     15  O   UNL     1       8.680   3.926  17.996  0.00  0.00    +0.000 OA
ATOM     16  H   UNL     1       8.253   3.087  17.742  0.00  0.00    +0.000 HD
ENDBRANCH   4  15
BRANCH   1  17
ATOM     17  S   UNL     1       4.287   6.547  17.781  0.00  0.00    +0.000 S 
BRANCH  17  21
ATOM     18  C   UNL     1       1.725   4.111  19.896  0.00  0.00    +0.000 A 
ATOM     19  C   UNL     1       1.702   5.368  20.453  0.00  0.00    +0.000 A 
ATOM     20  N   UNL     1       2.540   6.294  19.846  0.00  0.00    +0.000 NA
ATOM     21  C   UNL     1       3.184   5.713  18.855  0.00  0.00    +0.000 A 
ATOM     22  S   UNL     1       2.803   4.054  18.586  0.00  0.00    +0.000 S 
BRANCH  18  24
ATOM     23  O   UNL     1       0.290   2.423  19.419  0.00  0.00    +0.000 OA
ATOM     24  N   UNL     1       0.972   2.967  20.299  0.00  0.00    +0.000 N 
ATOM     25  O   UNL     1       1.051   2.595  21.477  0.00  0.00    +0.000 OA
ENDBRANCH  18  24
ENDBRANCH  17  21
ENDBRANCH   1  17
TORSDOF 5
ENDMDL
MODEL 7
REMARK VINA RESULT:      -7.1      3.194      4.716
REMARK  Name = 
REMARK  5 active torsions:
REMARK  status: ('A' for Active; 'I' for Inactive)
REMARK    1  A    between atoms: N_2  and  C_4
REMARK    2  A    between atoms: C_7  and  S_8
REMARK    3  A    between atoms: S_8  and  C_9
REMARK    4  A    between atoms: C_12  and  O_13
REMARK    5  A    between atoms: N_14  and  C_15
REMARK                            x       y       z     vdW  Elec       q    Type
REMARK                         _______ _______ _______ _____ _____    ______ ____
ROOT
ATOM      1  C   UNL     1       6.254   6.333  17.513  0.00  0.00    +0.000 A 
ATOM      2  N   UNL     1       7.413   6.960  17.484  0.00  0.00    +0.000 NA
ATOM      3  N   UNL     1       8.112   6.614  18.608  0.00  0.00    +0.000 NA
ATOM      4  C   UNL     1       7.362   5.788  19.290  0.00  0.00    +0.000 A 
ATOM      5  N   UNL     1       6.146   5.561  18.662  0.00  0.00    +0.000 N 
ENDROOT
BRANCH   5   6
ATOM      6  C   UNL     1       5.083   4.744  19.150  0.00  0.00    +0.000 A 
ATOM      7  C   UNL     1       5.215   3.333  19.107  0.00  0.00    +0.000 A 
ATOM      8  C   UNL     1       4.192   2.496  19.564  0.00  0.00    +0.000 A 
ATOM      9  C   UNL     1       3.054   3.088  20.058  0.00  0.00    +0.000 A 
ATOM     10  C   UNL     1       2.921   4.454  20.116  0.00  0.00    +0.000 A 
ATOM     11  C   UNL     1       3.916   5.309  19.683  0.00  0.00    +0.000 A 
ATOM     12  O   UNL     1       1.730   4.837  20.649  0.00  0.00    +0.000 OA
ATOM     13  C   UNL     1       1.108   3.553  20.871  0.00  0.00    +0.000 C 
ATOM     14  O   UNL     1       1.960   2.438  20.536  0.00  0.00    +0.000 OA
ENDBRANCH   5   6
BRANCH   4  15
ATOM     15  O   UNL     1       7.724   5.343  20.482  0.00  0.00    +0.000 OA
ATOM     16  H   UNL     1       8.311   4.597  20.261  0.00  0.00    +0.000 HD
ENDBRANCH   4  15
BRANCH   1  17
ATOM     17  S   UNL     1       5.083   6.493  16.249  0.00  0.00    +0.000 S 
BRANCH  17  21
ATOM     18  C   UNL     1       6.404   4.008  13.239  0.00  0.00    +0.000 A 
ATOM     19  C   UNL     1       7.483   4.681  13.764  0.00  0.00    +0.000 A 
ATOM     20  N   UNL     1       7.177   5.573  14.783  0.00  0.00    +0.000 NA
ATOM     21  C   UNL     1       5.878   5.563  14.995  0.00  0.00    +0.000 A 
ATOM     22  S   UNL     1       4.968   4.476  14.015  0.00  0.00    +0.000 S 
BRANCH  18  24
ATOM     23  O   UNL     1       7.509   2.788  11.681  0.00  0.00    +0.000 OA
ATOM     24  N   UNL     1       6.410   3.032  12.198  0.00  0.00    +0.000 N 
ATOM     25  O   UNL     1       5.337   2.497  11.887  0.00  0.00    +0.000 OA
ENDBRANCH  18  24
ENDBRANCH  17  21
ENDBRANCH   1  17
TORSDOF 5
ENDMDL
MODEL 8
REMARK VINA RESULT:      -7.1      3.152      7.370
REMARK  Name = 
REMARK  5 active torsions:
REMARK  status: ('A' for Active; 'I' for Inactive)
REMARK    1  A    between atoms: N_2  and  C_4
REMARK    2  A    between atoms: C_7  and  S_8
REMARK    3  A    between atoms: S_8  and  C_9
REMARK    4  A    between atoms: C_12  and  O_13
REMARK    5  A    between atoms: N_14  and  C_15
REMARK                            x       y       z     vdW  Elec       q    Type
REMARK                         _______ _______ _______ _____ _____    ______ ____
ROOT
ATOM      1  C   UNL     1       2.421   5.984  19.671  0.00  0.00    +0.000 A 
ATOM      2  N   UNL     1       1.544   5.603  20.578  0.00  0.00    +0.000 NA
ATOM      3  N   UNL     1       1.880   4.342  20.990  0.00  0.00    +0.000 NA
ATOM      4  C   UNL     1       2.951   3.992  20.325  0.00  0.00    +0.000 A 
ATOM      5  N   UNL     1       3.359   4.985  19.448  0.00  0.00    +0.000 N 
ENDROOT
BRANCH   5   6
ATOM      6  C   UNL     1       4.464   4.916  18.549  0.00  0.00    +0.000 A 
ATOM      7  C   UNL     1       5.778   5.105  19.047  0.00  0.00    +0.000 A 
ATOM      8  C   UNL     1       6.889   5.057  18.198  0.00  0.00    +0.000 A 
ATOM      9  C   UNL     1       6.663   4.819  16.863  0.00  0.00    +0.000 A 
ATOM     10  C   UNL     1       5.395   4.621  16.372  0.00  0.00    +0.000 A 
ATOM     11  C   UNL     1       4.279   4.652  17.185  0.00  0.00    +0.000 A 
ATOM     12  O   UNL     1       5.388   4.388  15.032  0.00  0.00    +0.000 OA
ATOM     13  C   UNL     1       6.794   4.513  14.729  0.00  0.00    +0.000 C 
ATOM     14  O   UNL     1       7.613   4.745  15.894  0.00  0.00    +0.000 OA
ENDBRANCH   5   6
BRANCH   4  15
ATOM     15  O   UNL     1       3.471   2.780  20.434  0.00  0.00    +0.000 OA
ATOM     16  H   UNL     1       3.259   2.540  21.355  0.00  0.00    +0.000 HD
ENDBRANCH   4  15
BRANCH   1  17
ATOM     17  S   UNL     1       2.354   7.540  18.915  0.00  0.00    +0.000 S 
BRANCH  17  21
ATOM     18  C   UNL     1       0.225  10.051  21.392  0.00  0.00    +0.000 A 
ATOM     19  C   UNL     1       0.882   9.121  22.163  0.00  0.00    +0.000 A 
ATOM     20  N   UNL     1       1.630   8.193  21.450  0.00  0.00    +0.000 NA
ATOM     21  C   UNL     1       1.510   8.435  20.162  0.00  0.00    +0.000 A 
ATOM     22  S   UNL     1       0.530   9.789  19.743  0.00  0.00    +0.000 S 
BRANCH  18  24
ATOM     23  O   UNL     1      -1.405  11.579  21.012  0.00  0.00    +0.000 OA
ATOM     24  N   UNL     1      -0.605  11.123  21.840  0.00  0.00    +0.000 N 
ATOM     25  O   UNL     1      -0.478  11.516  23.008  0.00  0.00    +0.000 OA
ENDBRANCH  18  24
ENDBRANCH  17  21
ENDBRANCH   1  17
TORSDOF 5
ENDMDL
MODEL 9
REMARK VINA RESULT:      -7.1      1.250      1.965
REMARK  Name = 
REMARK  5 active torsions:
REMARK  status: ('A' for Active; 'I' for Inactive)
REMARK    1  A    between atoms: N_2  and  C_4
REMARK    2  A    between atoms: C_7  and  S_8
REMARK    3  A    between atoms: S_8  and  C_9
REMARK    4  A    between atoms: C_12  and  O_13
REMARK    5  A    between atoms: N_14  and  C_15
REMARK                            x       y       z     vdW  Elec       q    Type
REMARK                         _______ _______ _______ _____ _____    ______ ____
ROOT
ATOM      1  C   UNL     1       4.032   3.638  18.899  0.00  0.00    +0.000 A 
ATOM      2  N   UNL     1       3.910   2.357  18.614  0.00  0.00    +0.000 NA
ATOM      3  N   UNL     1       2.610   2.122  18.259  0.00  0.00    +0.000 NA
ATOM      4  C   UNL     1       1.977   3.263  18.337  0.00  0.00    +0.000 A 
ATOM      5  N   UNL     1       2.814   4.289  18.751  0.00  0.00    +0.000 N 
ENDROOT
BRANCH   5   6
ATOM      6  C   UNL     1       2.440   5.647  18.974  0.00  0.00    +0.000 A 
ATOM      7  C   UNL     1       2.543   6.580  17.911  0.00  0.00    +0.000 A 
ATOM      8  C   UNL     1       2.198   7.923  18.091  0.00  0.00    +0.000 A 
ATOM      9  C   UNL     1       1.754   8.309  19.334  0.00  0.00    +0.000 A 
ATOM     10  C   UNL     1       1.637   7.411  20.366  0.00  0.00    +0.000 A 
ATOM     11  C   UNL     1       1.960   6.075  20.219  0.00  0.00    +0.000 A 
ATOM     12  O   UNL     1       1.167   7.987  21.505  0.00  0.00    +0.000 OA
ATOM     13  C   UNL     1       1.052   9.363  21.083  0.00  0.00    +0.000 C 
ATOM     14  O   UNL     1       1.383   9.566  19.694  0.00  0.00    +0.000 OA
ENDBRANCH   5   6
BRANCH   4  15
ATOM     15  O   UNL     1       0.671   3.349  18.142  0.00  0.00    +0.000 OA
ATOM     16  H   UNL     1       0.399   4.008  18.807  0.00  0.00    +0.000 HD
ENDBRANCH   4  15
BRANCH   1  17
ATOM     17  S   UNL     1       5.540   4.342  19.375  0.00  0.00    +0.000 S 
BRANCH  17  21
ATOM     18  C   UNL     1       6.701   4.920  15.464  0.00  0.00    +0.000 A 
ATOM     19  C   UNL     1       7.368   5.821  16.262  0.00  0.00    +0.000 A 
ATOM     20  N   UNL     1       7.056   5.749  17.612  0.00  0.00    +0.000 NA
ATOM     21  C   UNL     1       6.154   4.808  17.802  0.00  0.00    +0.000 A 
ATOM     22  S   UNL     1       5.660   3.951  16.391  0.00  0.00    +0.000 S 
BRANCH  18  24
ATOM     23  O   UNL     1       7.632   5.495  13.479  0.00  0.00    +0.000 OA
ATOM     24  N   UNL     1       6.821   4.754  14.051  0.00  0.00    +0.000 N 
ATOM     25  O   UNL     1       6.124   3.892  13.499  0.00  0.00    +0.000 OA
ENDBRANCH  18  24
ENDBRANCH  17  21
ENDBRANCH   1  17
TORSDOF 5
ENDMDL
