MODEL 1
REMARK VINA RESULT:      -8.0      0.000      0.000
REMARK  Name = 
REMARK  11 active torsions:
REMARK  status: ('A' for Active; 'I' for Inactive)
REMARK    1  A    between atoms: C_1  and  C_2
REMARK    2  A    between atoms: C_2  and  O_3
REMARK    3  A    between atoms: O_3  and  C_4
REMARK    4  A    between atoms: C_4  and  C_6
REMARK    5  A    between atoms: C_7  and  C_8
REMARK    6  A    between atoms: C_8  and  O_9
REMARK    7  A    between atoms: O_9  and  C_10
REMARK    8  A    between atoms: C_10  and  C_12
REMARK    9  A    between atoms: C_16  and  N_17
REMARK   10  A    between atoms: C_18  and  C_19
REMARK   11  A    between atoms: C_26  and  C_27
REMARK                            x       y       z     vdW  Elec       q    Type
REMARK                         _______ _______ _______ _____ _____    ______ ____
ROOT
ATOM      1  C   UNL     1       3.068   4.012  18.740  0.00  0.00    +0.000 C 
ATOM      2  C   UNL     1       3.219   5.193  19.393  0.00  0.00    +0.000 C 
ATOM      3  N   UNL     1       4.494   5.581  19.749  0.00  0.00    +0.000 N 
ATOM      4  C   UNL     1       5.643   4.953  19.384  0.00  0.00    +0.000 C 
ATOM      5  O   UNL     1       6.752   5.395  19.675  0.00  0.00    +0.000 OA
ATOM      6  N   UNL     1       5.501   3.831  18.639  0.00  0.00    +0.000 N 
ATOM      7  C   UNL     1       4.253   3.110  18.465  0.00  0.00    +0.000 C 
ATOM      8  C   UNL     1       4.278   1.854  19.346  0.00  0.00    +0.000 C 
ATOM      9  H   UNL     1       4.624   6.459  20.240  0.00  0.00    +0.000 HD
ATOM     10  H   UNL     1       6.375   3.383  18.391  0.00  0.00    +0.000 HD
ENDROOT
BRANCH   1  11
ATOM     11  C   UNL     1       1.731   3.560  18.248  0.00  0.00    +0.000 C 
ATOM     12  O   UNL     1       1.165   3.999  17.261  0.00  0.00    +0.000 OA
BRANCH  11  13
ATOM     13  O   UNL     1       1.204   2.629  19.083  0.00  0.00    +0.000 OA
BRANCH  13  15
ATOM     14  C   UNL     1       1.428   2.635  21.540  0.00  0.00    +0.000 C 
ATOM     15  C   UNL     1       0.663   3.115  20.322  0.00  0.00    +0.000 C 
ENDBRANCH  13  15
ENDBRANCH  11  13
ENDBRANCH   1  11
BRANCH   2  16
ATOM     16  C   UNL     1       2.113   6.174  19.763  0.00  0.00    +0.000 C 
BRANCH  16  17
ATOM     17  O   UNL     1       2.576   7.547  19.759  0.00  0.00    +0.000 OA
BRANCH  17  18
ATOM     18  C   UNL     1       2.262   8.295  18.670  0.00  0.00    +0.000 C 
ATOM     19  O   UNL     1       2.747   8.172  17.558  0.00  0.00    +0.000 OA
BRANCH  18  20
ATOM     20  C   UNL     1       1.162   9.260  18.981  0.00  0.00    +0.000 A 
ATOM     21  C   UNL     1       0.888   9.648  20.297  0.00  0.00    +0.000 A 
ATOM     22  C   UNL     1      -0.197  10.477  20.565  0.00  0.00    +0.000 A 
ATOM     23  C   UNL     1      -1.020  10.918  19.529  0.00  0.00    +0.000 A 
ATOM     24  C   UNL     1      -0.776  10.549  18.206  0.00  0.00    +0.000 A 
ATOM     25  C   UNL     1       0.334   9.727  17.936  0.00  0.00    +0.000 A 
BRANCH  24  26
ATOM     26  N   UNL     1      -1.613  10.944  17.129  0.00  0.00    +0.000 N 
ATOM     27  C   UNL     1      -2.812  10.355  16.750  0.00  0.00    +0.000 C 
ATOM     28  C   UNL     1      -3.450  10.969  15.526  0.00  0.00    +0.000 C 
ATOM     29  O   UNL     1      -3.376   9.420  17.308  0.00  0.00    +0.000 OA
ATOM     30  H   UNL     1      -1.280  11.721  16.569  0.00  0.00    +0.000 HD
ENDBRANCH  24  26
ENDBRANCH  18  20
ENDBRANCH  17  18
ENDBRANCH  16  17
ENDBRANCH   2  16
TORSDOF 8
ENDMDL
MODEL 2
REMARK VINA RESULT:      -7.7      1.757      3.124
REMARK  Name = 
REMARK  11 active torsions:
REMARK  status: ('A' for Active; 'I' for Inactive)
REMARK    1  A    between atoms: C_1  and  C_2
REMARK    2  A    between atoms: C_2  and  O_3
REMARK    3  A    between atoms: O_3  and  C_4
REMARK    4  A    between atoms: C_4  and  C_6
REMARK    5  A    between atoms: C_7  and  C_8
REMARK    6  A    between atoms: C_8  and  O_9
REMARK    7  A    between atoms: O_9  and  C_10
REMARK    8  A    between atoms: C_10  and  C_12
REMARK    9  A    between atoms: C_16  and  N_17
REMARK   10  A    between atoms: C_18  and  C_19
REMARK   11  A    between atoms: C_26  and  C_27
REMARK                            x       y       z     vdW  Elec       q    Type
REMARK                         _______ _______ _______ _____ _____    ______ ____
ROOT
ATOM      1  C   UNL     1       4.289   3.866  19.215  0.00  0.00    +0.000 C 
ATOM      2  C   UNL     1       3.502   4.838  19.744  0.00  0.00    +0.000 C 
ATOM      3  N   UNL     1       2.575   4.477  20.699  0.00  0.00    +0.000 N 
ATOM      4  C   UNL     1       2.463   3.247  21.269  0.00  0.00    +0.000 C 
ATOM      5  O   UNL     1       1.660   3.013  22.168  0.00  0.00    +0.000 OA
ATOM      6  N   UNL     1       3.321   2.300  20.821  0.00  0.00    +0.000 N 
ATOM      7  C   UNL     1       4.114   2.413  19.610  0.00  0.00    +0.000 C 
ATOM      8  C   UNL     1       3.469   1.559  18.511  0.00  0.00    +0.000 C 
ATOM      9  H   UNL     1       1.977   5.190  21.101  0.00  0.00    +0.000 HD
ATOM     10  H   UNL     1       3.206   1.394  21.258  0.00  0.00    +0.000 HD
ENDROOT
BRANCH   1  11
ATOM     11  C   UNL     1       5.373   4.186  18.237  0.00  0.00    +0.000 C 
ATOM     12  O   UNL     1       6.541   4.380  18.529  0.00  0.00    +0.000 OA
BRANCH  11  13
ATOM     13  O   UNL     1       4.869   4.288  16.982  0.00  0.00    +0.000 OA
BRANCH  13  15
ATOM     14  C   UNL     1       5.813   4.668  14.734  0.00  0.00    +0.000 C 
ATOM     15  C   UNL     1       5.512   5.231  16.110  0.00  0.00    +0.000 C 
ENDBRANCH  13  15
ENDBRANCH  11  13
ENDBRANCH   1  11
BRANCH   2  16
ATOM     16  C   UNL     1       3.548   6.324  19.411  0.00  0.00    +0.000 C 
BRANCH  16  17
ATOM     17  O   UNL     1       2.292   6.803  18.872  0.00  0.00    +0.000 OA
BRANCH  17  18
ATOM     18  C   UNL     1       2.326   7.983  18.200  0.00  0.00    +0.000 C 
ATOM     19  O   UNL     1       3.042   8.239  17.247  0.00  0.00    +0.000 OA
BRANCH  18  20
ATOM     20  C   UNL     1       1.296   8.930  18.728  0.00  0.00    +0.000 A 
ATOM     21  C   UNL     1       1.164   9.168  20.100  0.00  0.00    +0.000 A 
ATOM     22  C   UNL     1       0.141   9.985  20.569  0.00  0.00    +0.000 A 
ATOM     23  C   UNL     1      -0.763  10.565  19.678  0.00  0.00    +0.000 A 
ATOM     24  C   UNL     1      -0.661  10.347  18.304  0.00  0.00    +0.000 A 
ATOM     25  C   UNL     1       0.388   9.536  17.831  0.00  0.00    +0.000 A 
BRANCH  24  26
ATOM     26  N   UNL     1      -1.584  10.886  17.368  0.00  0.00    +0.000 N 
ATOM     27  C   UNL     1      -2.838  10.380  17.054  0.00  0.00    +0.000 C 
ATOM     28  C   UNL     1      -3.568  11.146  15.977  0.00  0.00    +0.000 C 
ATOM     29  O   UNL     1      -3.383   9.407  17.563  0.00  0.00    +0.000 OA
ATOM     30  H   UNL     1      -1.276  11.710  16.864  0.00  0.00    +0.000 HD
ENDBRANCH  24  26
ENDBRANCH  18  20
ENDBRANCH  17  18
ENDBRANCH  16  17
ENDBRANCH   2  16
TORSDOF 8
ENDMDL
MODEL 3
REMARK VINA RESULT:      -7.7      1.484      1.720
REMARK  Name = 
REMARK  11 active torsions:
REMARK  status: ('A' for Active; 'I' for Inactive)
REMARK    1  A    between atoms: C_1  and  C_2
REMARK    2  A    between atoms: C_2  and  O_3
REMARK    3  A    between atoms: O_3  and  C_4
REMARK    4  A    between atoms: C_4  and  C_6
REMARK    5  A    between atoms: C_7  and  C_8
REMARK    6  A    between atoms: C_8  and  O_9
REMARK    7  A    between atoms: O_9  and  C_10
REMARK    8  A    between atoms: C_10  and  C_12
REMARK    9  A    between atoms: C_16  and  N_17
REMARK   10  A    between atoms: C_18  and  C_19
REMARK   11  A    between atoms: C_26  and  C_27
REMARK                            x       y       z     vdW  Elec       q    Type
REMARK                         _______ _______ _______ _____ _____    ______ ____
ROOT
ATOM      1  C   UNL     1       3.256   5.250  17.912  0.00  0.00    +0.000 C 
ATOM      2  C   UNL     1       3.326   6.590  17.707  0.00  0.00    +0.000 C 
ATOM      3  N   UNL     1       4.542   7.129  17.341  0.00  0.00    +0.000 N 
ATOM      4  C   UNL     1       5.660   6.421  17.029  0.00  0.00    +0.000 C 
ATOM      5  O   UNL     1       6.692   6.963  16.640  0.00  0.00    +0.000 OA
ATOM      6  N   UNL     1       5.563   5.074  17.128  0.00  0.00    +0.000 N 
ATOM      7  C   UNL     1       4.488   4.373  17.809  0.00  0.00    +0.000 C 
ATOM      8  C   UNL     1       4.999   3.881  19.169  0.00  0.00    +0.000 C 
ATOM      9  H   UNL     1       4.613   8.129  17.188  0.00  0.00    +0.000 HD
ATOM     10  H   UNL     1       6.414   4.577  16.899  0.00  0.00    +0.000 HD
ENDROOT
BRANCH   1  11
ATOM     11  C   UNL     1       1.960   4.577  18.230  0.00  0.00    +0.000 C 
ATOM     12  O   UNL     1       1.222   4.059  17.408  0.00  0.00    +0.000 OA
BRANCH  11  13
ATOM     13  O   UNL     1       1.685   4.670  19.555  0.00  0.00    +0.000 OA
BRANCH  13  15
ATOM     14  C   UNL     1       1.510   2.898  21.264  0.00  0.00    +0.000 C 
ATOM     15  C   UNL     1       0.857   3.635  20.110  0.00  0.00    +0.000 C 
ENDBRANCH  13  15
ENDBRANCH  11  13
ENDBRANCH   1  11
BRANCH   2  16
ATOM     16  C   UNL     1       2.179   7.586  17.812  0.00  0.00    +0.000 C 
BRANCH  16  17
ATOM     17  O   UNL     1       2.390   8.555  18.868  0.00  0.00    +0.000 OA
BRANCH  17  18
ATOM     18  C   UNL     1       1.489   8.559  19.884  0.00  0.00    +0.000 C 
ATOM     19  O   UNL     1       1.456   7.765  20.809  0.00  0.00    +0.000 OA
BRANCH  18  20
ATOM     20  C   UNL     1       0.566   9.731  19.779  0.00  0.00    +0.000 A 
ATOM     21  C   UNL     1       0.263  10.519  20.895  0.00  0.00    +0.000 A 
ATOM     22  C   UNL     1      -0.665  11.548  20.787  0.00  0.00    +0.000 A 
ATOM     23  C   UNL     1      -1.305  11.797  19.572  0.00  0.00    +0.000 A 
ATOM     24  C   UNL     1      -1.026  11.030  18.440  0.00  0.00    +0.000 A 
ATOM     25  C   UNL     1      -0.071  10.002  18.548  0.00  0.00    +0.000 A 
BRANCH  24  26
ATOM     26  N   UNL     1      -1.684  11.226  17.197  0.00  0.00    +0.000 N 
ATOM     27  C   UNL     1      -2.723  10.464  16.678  0.00  0.00    +0.000 C 
ATOM     28  C   UNL     1      -3.181  10.888  15.303  0.00  0.00    +0.000 C 
ATOM     29  O   UNL     1      -3.281   9.519  17.225  0.00  0.00    +0.000 OA
ATOM     30  H   UNL     1      -1.335  11.986  16.624  0.00  0.00    +0.000 HD
ENDBRANCH  24  26
ENDBRANCH  18  20
ENDBRANCH  17  18
ENDBRANCH  16  17
ENDBRANCH   2  16
TORSDOF 8
ENDMDL
MODEL 4
REMARK VINA RESULT:      -7.6      0.855      1.099
REMARK  Name = 
REMARK  11 active torsions:
REMARK  status: ('A' for Active; 'I' for Inactive)
REMARK    1  A    between atoms: C_1  and  C_2
REMARK    2  A    between atoms: C_2  and  O_3
REMARK    3  A    between atoms: O_3  and  C_4
REMARK    4  A    between atoms: C_4  and  C_6
REMARK    5  A    between atoms: C_7  and  C_8
REMARK    6  A    between atoms: C_8  and  O_9
REMARK    7  A    between atoms: O_9  and  C_10
REMARK    8  A    between atoms: C_10  and  C_12
REMARK    9  A    between atoms: C_16  and  N_17
REMARK   10  A    between atoms: C_18  and  C_19
REMARK   11  A    between atoms: C_26  and  C_27
REMARK                            x       y       z     vdW  Elec       q    Type
REMARK                         _______ _______ _______ _____ _____    ______ ____
ROOT
ATOM      1  C   UNL     1       3.522   3.989  18.440  0.00  0.00    +0.000 C 
ATOM      2  C   UNL     1       3.621   5.338  18.560  0.00  0.00    +0.000 C 
ATOM      3  N   UNL     1       4.829   5.868  18.961  0.00  0.00    +0.000 N 
ATOM      4  C   UNL     1       5.986   5.172  19.119  0.00  0.00    +0.000 C 
ATOM      5  O   UNL     1       7.046   5.720  19.409  0.00  0.00    +0.000 OA
ATOM      6  N   UNL     1       5.917   3.838  18.895  0.00  0.00    +0.000 N 
ATOM      7  C   UNL     1       4.681   3.081  18.799  0.00  0.00    +0.000 C 
ATOM      8  C   UNL     1       4.467   2.311  20.108  0.00  0.00    +0.000 C 
ATOM      9  H   UNL     1       4.919   6.874  19.059  0.00  0.00    +0.000 HD
ATOM     10  H   UNL     1       6.792   3.347  19.030  0.00  0.00    +0.000 HD
ENDROOT
BRANCH   1  11
ATOM     11  C   UNL     1       2.274   3.341  17.933  0.00  0.00    +0.000 C 
ATOM     12  O   UNL     1       1.846   3.447  16.796  0.00  0.00    +0.000 OA
BRANCH  11  13
ATOM     13  O   UNL     1       1.649   2.661  18.927  0.00  0.00    +0.000 OA
BRANCH  13  15
ATOM     14  C   UNL     1       1.225   3.010  21.333  0.00  0.00    +0.000 C 
ATOM     15  C   UNL     1       0.959   3.453  19.907  0.00  0.00    +0.000 C 
ENDBRANCH  13  15
ENDBRANCH  11  13
ENDBRANCH   1  11
BRANCH   2  16
ATOM     16  C   UNL     1       2.527   6.357  18.268  0.00  0.00    +0.000 C 
BRANCH  16  17
ATOM     17  O   UNL     1       2.657   7.548  19.084  0.00  0.00    +0.000 OA
BRANCH  17  18
ATOM     18  C   UNL     1       1.771   7.690  20.104  0.00  0.00    +0.000 C 
ATOM     19  O   UNL     1       1.620   6.909  21.029  0.00  0.00    +0.000 OA
BRANCH  18  20
ATOM     20  C   UNL     1       1.041   8.991  20.003  0.00  0.00    +0.000 A 
ATOM     21  C   UNL     1       0.906   9.835  21.110  0.00  0.00    +0.000 A 
ATOM     22  C   UNL     1       0.147  10.996  21.010  0.00  0.00    +0.000 A 
ATOM     23  C   UNL     1      -0.489  11.322  19.812  0.00  0.00    +0.000 A 
ATOM     24  C   UNL     1      -0.375  10.502  18.689  0.00  0.00    +0.000 A 
ATOM     25  C   UNL     1       0.410   9.339  18.788  0.00  0.00    +0.000 A 
BRANCH  24  26
ATOM     26  N   UNL     1      -1.039  10.779  17.464  0.00  0.00    +0.000 N 
ATOM     27  C   UNL     1      -2.271  10.285  17.058  0.00  0.00    +0.000 C 
ATOM     28  C   UNL     1      -2.692  10.718  15.673  0.00  0.00    +0.000 C 
ATOM     29  O   UNL     1      -3.019   9.562  17.707  0.00  0.00    +0.000 OA
ATOM     30  H   UNL     1      -0.541  11.378  16.814  0.00  0.00    +0.000 HD
ENDBRANCH  24  26
ENDBRANCH  18  20
ENDBRANCH  17  18
ENDBRANCH  16  17
ENDBRANCH   2  16
TORSDOF 8
ENDMDL
MODEL 5
REMARK VINA RESULT:      -7.6      1.588      2.911
REMARK  Name = 
REMARK  11 active torsions:
REMARK  status: ('A' for Active; 'I' for Inactive)
REMARK    1  A    between atoms: C_1  and  C_2
REMARK    2  A    between atoms: C_2  and  O_3
REMARK    3  A    between atoms: O_3  and  C_4
REMARK    4  A    between atoms: C_4  and  C_6
REMARK    5  A    between atoms: C_7  and  C_8
REMARK    6  A    between atoms: C_8  and  O_9
REMARK    7  A    between atoms: O_9  and  C_10
REMARK    8  A    between atoms: C_10  and  C_12
REMARK    9  A    between atoms: C_16  and  N_17
REMARK   10  A    between atoms: C_18  and  C_19
REMARK   11  A    between atoms: C_26  and  C_27
REMARK                            x       y       z     vdW  Elec       q    Type
REMARK                         _______ _______ _______ _____ _____    ______ ____
ROOT
ATOM      1  C   UNL     1       3.621   3.923  18.677  0.00  0.00    +0.000 C 
ATOM      2  C   UNL     1       2.543   4.594  19.156  0.00  0.00    +0.000 C 
ATOM      3  N   UNL     1       1.946   4.130  20.309  0.00  0.00    +0.000 N 
ATOM      4  C   UNL     1       2.422   3.131  21.099  0.00  0.00    +0.000 C 
ATOM      5  O   UNL     1       1.878   2.815  22.155  0.00  0.00    +0.000 OA
ATOM      6  N   UNL     1       3.561   2.528  20.682  0.00  0.00    +0.000 N 
ATOM      7  C   UNL     1       4.121   2.659  19.348  0.00  0.00    +0.000 C 
ATOM      8  C   UNL     1       3.812   1.385  18.552  0.00  0.00    +0.000 C 
ATOM      9  H   UNL     1       1.137   4.618  20.678  0.00  0.00    +0.000 HD
ATOM     10  H   UNL     1       3.884   1.783  21.287  0.00  0.00    +0.000 HD
ENDROOT
BRANCH   1  11
ATOM     11  C   UNL     1       4.374   4.408  17.481  0.00  0.00    +0.000 C 
ATOM     12  O   UNL     1       4.272   3.945  16.357  0.00  0.00    +0.000 OA
BRANCH  11  13
ATOM     13  O   UNL     1       5.230   5.402  17.825  0.00  0.00    +0.000 OA
BRANCH  13  15
ATOM     14  C   UNL     1       7.557   4.596  17.677  0.00  0.00    +0.000 C 
ATOM     15  C   UNL     1       6.463   5.467  17.090  0.00  0.00    +0.000 C 
ENDBRANCH  13  15
ENDBRANCH  11  13
ENDBRANCH   1  11
BRANCH   2  16
ATOM     16  C   UNL     1       1.918   5.850  18.561  0.00  0.00    +0.000 C 
BRANCH  16  17
ATOM     17  O   UNL     1       2.499   7.061  19.105  0.00  0.00    +0.000 OA
BRANCH  17  18
ATOM     18  C   UNL     1       2.415   8.178  18.337  0.00  0.00    +0.000 C 
ATOM     19  O   UNL     1       3.080   8.408  17.341  0.00  0.00    +0.000 OA
BRANCH  18  20
ATOM     20  C   UNL     1       1.325   9.080  18.821  0.00  0.00    +0.000 A 
ATOM     21  C   UNL     1       1.123   9.308  20.186  0.00  0.00    +0.000 A 
ATOM     22  C   UNL     1       0.047  10.080  20.610  0.00  0.00    +0.000 A 
ATOM     23  C   UNL     1      -0.839  10.626  19.681  0.00  0.00    +0.000 A 
ATOM     24  C   UNL     1      -0.668  10.417  18.312  0.00  0.00    +0.000 A 
ATOM     25  C   UNL     1       0.433   9.652  17.886  0.00  0.00    +0.000 A 
BRANCH  24  26
ATOM     26  N   UNL     1      -1.570  10.922  17.338  0.00  0.00    +0.000 N 
ATOM     27  C   UNL     1      -2.789  10.368  16.970  0.00  0.00    +0.000 C 
ATOM     28  C   UNL     1      -3.501  11.107  15.862  0.00  0.00    +0.000 C 
ATOM     29  O   UNL     1      -3.317   9.373  17.455  0.00  0.00    +0.000 OA
ATOM     30  H   UNL     1      -1.273  11.758  16.847  0.00  0.00    +0.000 HD
ENDBRANCH  24  26
ENDBRANCH  18  20
ENDBRANCH  17  18
ENDBRANCH  16  17
ENDBRANCH   2  16
TORSDOF 8
ENDMDL
MODEL 6
REMARK VINA RESULT:      -7.5      3.385      7.150
REMARK  Name = 
REMARK  11 active torsions:
REMARK  status: ('A' for Active; 'I' for Inactive)
REMARK    1  A    between atoms: C_1  and  C_2
REMARK    2  A    between atoms: C_2  and  O_3
REMARK    3  A    between atoms: O_3  and  C_4
REMARK    4  A    between atoms: C_4  and  C_6
REMARK    5  A    between atoms: C_7  and  C_8
REMARK    6  A    between atoms: C_8  and  O_9
REMARK    7  A    between atoms: O_9  and  C_10
REMARK    8  A    between atoms: C_10  and  C_12
REMARK    9  A    between atoms: C_16  and  N_17
REMARK   10  A    between atoms: C_18  and  C_19
REMARK   11  A    between atoms: C_26  and  C_27
REMARK                            x       y       z     vdW  Elec       q    Type
REMARK                         _______ _______ _______ _____ _____    ______ ____
ROOT
ATOM      1  C   UNL     1       2.808   4.624  19.158  0.00  0.00    +0.000 C 
ATOM      2  C   UNL     1       4.088   4.187  19.272  0.00  0.00    +0.000 C 
ATOM      3  N   UNL     1       4.354   2.867  18.975  0.00  0.00    +0.000 N 
ATOM      4  C   UNL     1       3.470   1.982  18.441  0.00  0.00    +0.000 C 
ATOM      5  O   UNL     1       3.794   0.838  18.133  0.00  0.00    +0.000 OA
ATOM      6  N   UNL     1       2.216   2.445  18.224  0.00  0.00    +0.000 N 
ATOM      7  C   UNL     1       1.686   3.678  18.780  0.00  0.00    +0.000 C 
ATOM      8  C   UNL     1       0.759   3.335  19.954  0.00  0.00    +0.000 C 
ATOM      9  H   UNL     1       5.304   2.523  19.059  0.00  0.00    +0.000 HD
ATOM     10  H   UNL     1       1.580   1.760  17.835  0.00  0.00    +0.000 HD
ENDROOT
BRANCH   1  11
ATOM     11  C   UNL     1       2.451   6.058  19.381  0.00  0.00    +0.000 C 
ATOM     12  O   UNL     1       1.953   6.503  20.402  0.00  0.00    +0.000 OA
BRANCH  11  13
ATOM     13  O   UNL     1       2.706   6.793  18.270  0.00  0.00    +0.000 OA
BRANCH  13  15
ATOM     14  C   UNL     1       2.302   9.192  17.857  0.00  0.00    +0.000 C 
ATOM     15  C   UNL     1       1.730   7.789  17.924  0.00  0.00    +0.000 C 
ENDBRANCH  13  15
ENDBRANCH  11  13
ENDBRANCH   1  11
BRANCH   2  16
ATOM     16  C   UNL     1       5.299   5.019  19.675  0.00  0.00    +0.000 C 
BRANCH  16  17
ATOM     17  O   UNL     1       6.535   4.479  19.148  0.00  0.00    +0.000 OA
BRANCH  17  18
ATOM     18  C   UNL     1       7.274   5.300  18.357  0.00  0.00    +0.000 C 
ATOM     19  O   UNL     1       8.366   5.764  18.638  0.00  0.00    +0.000 OA
BRANCH  18  20
ATOM     20  C   UNL     1       6.611   5.509  17.033  0.00  0.00    +0.000 A 
ATOM     21  C   UNL     1       5.799   6.623  16.795  0.00  0.00    +0.000 A 
ATOM     22  C   UNL     1       5.125   6.746  15.585  0.00  0.00    +0.000 A 
ATOM     23  C   UNL     1       5.248   5.759  14.606  0.00  0.00    +0.000 A 
ATOM     24  C   UNL     1       6.050   4.636  14.811  0.00  0.00    +0.000 A 
ATOM     25  C   UNL     1       6.746   4.525  16.029  0.00  0.00    +0.000 A 
BRANCH  24  26
ATOM     26  N   UNL     1       6.170   3.592  13.855  0.00  0.00    +0.000 N 
ATOM     27  C   UNL     1       6.760   3.678  12.601  0.00  0.00    +0.000 C 
ATOM     28  C   UNL     1       6.686   2.407  11.788  0.00  0.00    +0.000 C 
ATOM     29  O   UNL     1       7.320   4.658  12.122  0.00  0.00    +0.000 OA
ATOM     30  H   UNL     1       5.755   2.703  14.113  0.00  0.00    +0.000 HD
ENDBRANCH  24  26
ENDBRANCH  18  20
ENDBRANCH  17  18
ENDBRANCH  16  17
ENDBRANCH   2  16
TORSDOF 8
ENDMDL
MODEL 7
REMARK VINA RESULT:      -7.3      2.637      3.383
REMARK  Name = 
REMARK  11 active torsions:
REMARK  status: ('A' for Active; 'I' for Inactive)
REMARK    1  A    between atoms: C_1  and  C_2
REMARK    2  A    between atoms: C_2  and  O_3
REMARK    3  A    between atoms: O_3  and  C_4
REMARK    4  A    between atoms: C_4  and  C_6
REMARK    5  A    between atoms: C_7  and  C_8
REMARK    6  A    between atoms: C_8  and  O_9
REMARK    7  A    between atoms: O_9  and  C_10
REMARK    8  A    between atoms: C_10  and  C_12
REMARK    9  A    between atoms: C_16  and  N_17
REMARK   10  A    between atoms: C_18  and  C_19
REMARK   11  A    between atoms: C_26  and  C_27
REMARK                            x       y       z     vdW  Elec       q    Type
REMARK                         _______ _______ _______ _____ _____    ______ ____
ROOT
ATOM      1  C   UNL     1       3.081   5.140  17.978  0.00  0.00    +0.000 C 
ATOM      2  C   UNL     1       3.079   6.495  17.879  0.00  0.00    +0.000 C 
ATOM      3  N   UNL     1       4.268   7.126  17.579  0.00  0.00    +0.000 N 
ATOM      4  C   UNL     1       5.428   6.507  17.233  0.00  0.00    +0.000 C 
ATOM      5  O   UNL     1       6.433   7.134  16.906  0.00  0.00    +0.000 OA
ATOM      6  N   UNL     1       5.405   5.153  17.224  0.00  0.00    +0.000 N 
ATOM      7  C   UNL     1       4.361   4.344  17.828  0.00  0.00    +0.000 C 
ATOM      8  C   UNL     1       4.880   3.774  19.154  0.00  0.00    +0.000 C 
ATOM      9  H   UNL     1       4.285   8.138  17.505  0.00  0.00    +0.000 HD
ATOM     10  H   UNL     1       6.285   4.723  16.971  0.00  0.00    +0.000 HD
ENDROOT
BRANCH   1  11
ATOM     11  C   UNL     1       1.820   4.375  18.219  0.00  0.00    +0.000 C 
ATOM     12  O   UNL     1       1.118   3.893  17.345  0.00  0.00    +0.000 OA
BRANCH  11  13
ATOM     13  O   UNL     1       1.530   4.336  19.543  0.00  0.00    +0.000 OA
BRANCH  13  15
ATOM     14  C   UNL     1       1.510   2.771  21.450  0.00  0.00    +0.000 C 
ATOM     15  C   UNL     1       1.023   3.091  20.050  0.00  0.00    +0.000 C 
ENDBRANCH  13  15
ENDBRANCH  11  13
ENDBRANCH   1  11
BRANCH   2  16
ATOM     16  C   UNL     1       1.877   7.415  18.042  0.00  0.00    +0.000 C 
BRANCH  16  17
ATOM     17  O   UNL     1       2.110   8.452  19.026  0.00  0.00    +0.000 OA
BRANCH  17  18
ATOM     18  C   UNL     1       1.250   9.503  19.023  0.00  0.00    +0.000 C 
ATOM     19  O   UNL     1       0.894  10.128  18.037  0.00  0.00    +0.000 OA
BRANCH  18  20
ATOM     20  C   UNL     1       0.711   9.760  20.394  0.00  0.00    +0.000 A 
ATOM     21  C   UNL     1       0.818   8.802  21.407  0.00  0.00    +0.000 A 
ATOM     22  C   UNL     1       0.231   9.032  22.646  0.00  0.00    +0.000 A 
ATOM     23  C   UNL     1      -0.474  10.212  22.884  0.00  0.00    +0.000 A 
ATOM     24  C   UNL     1      -0.601  11.188  21.895  0.00  0.00    +0.000 A 
ATOM     25  C   UNL     1       0.012  10.961  20.649  0.00  0.00    +0.000 A 
BRANCH  24  26
ATOM     26  N   UNL     1      -1.344  12.384  22.085  0.00  0.00    +0.000 N 
ATOM     27  C   UNL     1      -0.835  13.633  22.420  0.00  0.00    +0.000 C 
ATOM     28  C   UNL     1      -1.884  14.704  22.606  0.00  0.00    +0.000 C 
ATOM     29  O   UNL     1       0.346  13.926  22.562  0.00  0.00    +0.000 OA
ATOM     30  H   UNL     1      -2.350  12.302  21.992  0.00  0.00    +0.000 HD
ENDBRANCH  24  26
ENDBRANCH  18  20
ENDBRANCH  17  18
ENDBRANCH  16  17
ENDBRANCH   2  16
TORSDOF 8
ENDMDL
MODEL 8
REMARK VINA RESULT:      -7.3      1.820      2.056
REMARK  Name = 
REMARK  11 active torsions:
REMARK  status: ('A' for Active; 'I' for Inactive)
REMARK    1  A    between atoms: C_1  and  C_2
REMARK    2  A    between atoms: C_2  and  O_3
REMARK    3  A    between atoms: O_3  and  C_4
REMARK    4  A    between atoms: C_4  and  C_6
REMARK    5  A    between atoms: C_7  and  C_8
REMARK    6  A    between atoms: C_8  and  O_9
REMARK    7  A    between atoms: O_9  and  C_10
REMARK    8  A    between atoms: C_10  and  C_12
REMARK    9  A    between atoms: C_16  and  N_17
REMARK   10  A    between atoms: C_18  and  C_19
REMARK   11  A    between atoms: C_26  and  C_27
REMARK                            x       y       z     vdW  Elec       q    Type
REMARK                         _______ _______ _______ _____ _____    ______ ____
ROOT
ATOM      1  C   UNL     1       3.216   5.306  17.935  0.00  0.00    +0.000 C 
ATOM      2  C   UNL     1       3.258   6.645  17.716  0.00  0.00    +0.000 C 
ATOM      3  N   UNL     1       4.474   7.216  17.408  0.00  0.00    +0.000 N 
ATOM      4  C   UNL     1       5.628   6.539  17.166  0.00  0.00    +0.000 C 
ATOM      5  O   UNL     1       6.663   7.108  16.825  0.00  0.00    +0.000 OA
ATOM      6  N   UNL     1       5.566   5.191  17.277  0.00  0.00    +0.000 N 
ATOM      7  C   UNL     1       4.478   4.466  17.909  0.00  0.00    +0.000 C 
ATOM      8  C   UNL     1       4.929   4.005  19.301  0.00  0.00    +0.000 C 
ATOM      9  H   UNL     1       4.524   8.216  17.246  0.00  0.00    +0.000 HD
ATOM     10  H   UNL     1       6.443   4.717  17.100  0.00  0.00    +0.000 HD
ENDROOT
BRANCH   1  11
ATOM     11  C   UNL     1       1.925   4.598  18.193  0.00  0.00    +0.000 C 
ATOM     12  O   UNL     1       1.289   3.979  17.355  0.00  0.00    +0.000 OA
BRANCH  11  13
ATOM     13  O   UNL     1       1.525   4.783  19.476  0.00  0.00    +0.000 OA
BRANCH  13  15
ATOM     14  C   UNL     1       1.696   2.980  21.151  0.00  0.00    +0.000 C 
ATOM     15  C   UNL     1       0.853   3.679  20.101  0.00  0.00    +0.000 C 
ENDBRANCH  13  15
ENDBRANCH  11  13
ENDBRANCH   1  11
BRANCH   2  16
ATOM     16  C   UNL     1       2.077   7.607  17.747  0.00  0.00    +0.000 C 
BRANCH  16  17
ATOM     17  O   UNL     1       2.374   8.814  18.490  0.00  0.00    +0.000 OA
BRANCH  17  18
ATOM     18  C   UNL     1       1.448   9.216  19.399  0.00  0.00    +0.000 C 
ATOM     19  O   UNL     1       1.223   8.679  20.471  0.00  0.00    +0.000 OA
BRANCH  18  20
ATOM     20  C   UNL     1       0.775  10.477  18.958  0.00  0.00    +0.000 A 
ATOM     21  C   UNL     1       1.461  11.696  18.935  0.00  0.00    +0.000 A 
ATOM     22  C   UNL     1       0.788  12.867  18.605  0.00  0.00    +0.000 A 
ATOM     23  C   UNL     1      -0.574  12.836  18.304  0.00  0.00    +0.000 A 
ATOM     24  C   UNL     1      -1.289  11.637  18.319  0.00  0.00    +0.000 A 
ATOM     25  C   UNL     1      -0.599  10.452  18.633  0.00  0.00    +0.000 A 
BRANCH  24  26
ATOM     26  N   UNL     1      -2.683  11.570  18.057  0.00  0.00    +0.000 N 
ATOM     27  C   UNL     1      -3.287  11.310  16.833  0.00  0.00    +0.000 C 
ATOM     28  C   UNL     1      -4.796  11.357  16.859  0.00  0.00    +0.000 C 
ATOM     29  O   UNL     1      -2.718  11.049  15.778  0.00  0.00    +0.000 OA
ATOM     30  H   UNL     1      -3.293  11.759  18.844  0.00  0.00    +0.000 HD
ENDBRANCH  24  26
ENDBRANCH  18  20
ENDBRANCH  17  18
ENDBRANCH  16  17
ENDBRANCH   2  16
TORSDOF 8
ENDMDL
MODEL 9
REMARK VINA RESULT:      -7.2      2.554      3.734
REMARK  Name = 
REMARK  11 active torsions:
REMARK  status: ('A' for Active; 'I' for Inactive)
REMARK    1  A    between atoms: C_1  and  C_2
REMARK    2  A    between atoms: C_2  and  O_3
REMARK    3  A    between atoms: O_3  and  C_4
REMARK    4  A    between atoms: C_4  and  C_6
REMARK    5  A    between atoms: C_7  and  C_8
REMARK    6  A    between atoms: C_8  and  O_9
REMARK    7  A    between atoms: O_9  and  C_10
REMARK    8  A    between atoms: C_10  and  C_12
REMARK    9  A    between atoms: C_16  and  N_17
REMARK   10  A    between atoms: C_18  and  C_19
REMARK   11  A    between atoms: C_26  and  C_27
REMARK                            x       y       z     vdW  Elec       q    Type
REMARK                         _______ _______ _______ _____ _____    ______ ____
ROOT
ATOM      1  C   UNL     1       3.996   4.061  18.884  0.00  0.00    +0.000 C 
ATOM      2  C   UNL     1       3.168   4.983  19.439  0.00  0.00    +0.000 C 
ATOM      3  N   UNL     1       2.413   4.606  20.529  0.00  0.00    +0.000 N 
ATOM      4  C   UNL     1       2.518   3.426  21.196  0.00  0.00    +0.000 C 
ATOM      5  O   UNL     1       1.863   3.183  22.207  0.00  0.00    +0.000 OA
ATOM      6  N   UNL     1       3.423   2.543  20.710  0.00  0.00    +0.000 N 
ATOM      7  C   UNL     1       4.045   2.637  19.401  0.00  0.00    +0.000 C 
ATOM      8  C   UNL     1       3.379   1.626  18.460  0.00  0.00    +0.000 C 
ATOM      9  H   UNL     1       1.786   5.282  20.953  0.00  0.00    +0.000 HD
ATOM     10  H   UNL     1       3.471   1.671  21.223  0.00  0.00    +0.000 HD
ENDROOT
BRANCH   1  11
ATOM     11  C   UNL     1       4.908   4.412  17.753  0.00  0.00    +0.000 C 
ATOM     12  O   UNL     1       4.562   4.531  16.589  0.00  0.00    +0.000 OA
BRANCH  11  13
ATOM     13  O   UNL     1       6.187   4.528  18.188  0.00  0.00    +0.000 OA
BRANCH  13  15
ATOM     14  C   UNL     1       7.984   5.992  19.035  0.00  0.00    +0.000 C 
ATOM     15  C   UNL     1       6.758   5.846  18.154  0.00  0.00    +0.000 C 
ENDBRANCH  13  15
ENDBRANCH  11  13
ENDBRANCH   1  11
BRANCH   2  16
ATOM     16  C   UNL     1       2.996   6.430  18.997  0.00  0.00    +0.000 C 
BRANCH  16  17
ATOM     17  O   UNL     1       2.146   7.181  19.899  0.00  0.00    +0.000 OA
BRANCH  17  18
ATOM     18  C   UNL     1       1.691   8.381  19.454  0.00  0.00    +0.000 C 
ATOM     19  O   UNL     1       1.791   8.801  18.313  0.00  0.00    +0.000 OA
BRANCH  18  20
ATOM     20  C   UNL     1       0.961   9.112  20.535  0.00  0.00    +0.000 A 
ATOM     21  C   UNL     1       0.425   8.435  21.635  0.00  0.00    +0.000 A 
ATOM     22  C   UNL     1      -0.324   9.127  22.580  0.00  0.00    +0.000 A 
ATOM     23  C   UNL     1      -0.553  10.496  22.434  0.00  0.00    +0.000 A 
ATOM     24  C   UNL     1      -0.033  11.202  21.349  0.00  0.00    +0.000 A 
ATOM     25  C   UNL     1       0.742  10.502  20.405  0.00  0.00    +0.000 A 
BRANCH  24  26
ATOM     26  N   UNL     1      -0.276  12.586  21.144  0.00  0.00    +0.000 N 
ATOM     27  C   UNL     1      -0.951  13.161  20.075  0.00  0.00    +0.000 C 
ATOM     28  C   UNL     1      -1.002  14.670  20.109  0.00  0.00    +0.000 C 
ATOM     29  O   UNL     1      -1.495  12.569  19.149  0.00  0.00    +0.000 OA
ATOM     30  H   UNL     1       0.112  13.213  21.840  0.00  0.00    +0.000 HD
ENDBRANCH  24  26
ENDBRANCH  18  20
ENDBRANCH  17  18
ENDBRANCH  16  17
ENDBRANCH   2  16
TORSDOF 8
ENDMDL
