MODEL 1
REMARK VINA RESULT:      -8.3      0.000      0.000
REMARK  Name = 
REMARK  2 active torsions:
REMARK  status: ('A' for Active; 'I' for Inactive)
REMARK    1  A    between atoms: C_7  and  C_8
REMARK    2  A    between atoms: C_8  and  C_9
REMARK                            x       y       z     vdW  Elec       q    Type
REMARK                         _______ _______ _______ _____ _____    ______ ____
ROOT
ATOM      1  N   UNL     1       7.701   5.441  14.880  0.00  0.00    +0.000 N 
ATOM      2  C   UNL     1       7.289   5.110  16.108  0.00  0.00    +0.000 A 
ATOM      3  N   UNL     1       7.965   4.290  16.920  0.00  0.00    +0.000 NA
ATOM      4  N   UNL     1       7.217   4.245  18.045  0.00  0.00    +0.000 N 
ATOM      5  C   UNL     1       6.092   4.996  17.953  0.00  0.00    +0.000 A 
ATOM      6  C   UNL     1       5.099   5.165  18.934  0.00  0.00    +0.000 A 
ATOM      7  C   UNL     1       4.076   5.974  18.573  0.00  0.00    +0.000 A 
ATOM      8  N   UNL     1       4.057   6.588  17.315  0.00  0.00    +0.000 N 
ATOM      9  C   UNL     1       5.017   6.427  16.315  0.00  0.00    +0.000 A 
ATOM     10  O   UNL     1       4.911   6.965  15.217  0.00  0.00    +0.000 OA
ATOM     11  C   UNL     1       6.105   5.569  16.704  0.00  0.00    +0.000 A 
ATOM     12  H   UNL     1       8.467   4.925  14.466  0.00  0.00    +0.000 HD
ATOM     13  H   UNL     1       7.082   5.914  14.228  0.00  0.00    +0.000 HD
ATOM     14  H   UNL     1       7.550   3.678  18.817  0.00  0.00    +0.000 HD
ATOM     15  H   UNL     1       3.286   7.189  17.055  0.00  0.00    +0.000 HD
ENDROOT
BRANCH   7  16
ATOM     16  C   UNL     1       2.894   6.259  19.481  0.00  0.00    +0.000 C 
BRANCH  16  17
ATOM     17  C   UNL     1       2.017   5.017  19.699  0.00  0.00    +0.000 C 
ATOM     18  C   UNL     1       2.016   4.044  18.512  0.00  0.00    +0.000 C 
ATOM     19  C   UNL     1       0.965   2.955  18.766  0.00  0.00    +0.000 C 
ATOM     20  N   UNL     1       1.200   2.234  20.022  0.00  0.00    +0.000 NA
ATOM     21  C   UNL     1       1.335   3.133  21.174  0.00  0.00    +0.000 C 
ATOM     22  C   UNL     1       2.399   4.213  20.948  0.00  0.00    +0.000 C 
ATOM     23  H   UNL     1       2.048   1.679  19.934  0.00  0.00    +0.000 HD
ENDBRANCH  16  17
ENDBRANCH   7  16
TORSDOF 2
ENDMDL
MODEL 2
REMARK VINA RESULT:      -8.0      2.445      3.013
REMARK  Name = 
REMARK  2 active torsions:
REMARK  status: ('A' for Active; 'I' for Inactive)
REMARK    1  A    between atoms: C_7  and  C_8
REMARK    2  A    between atoms: C_8  and  C_9
REMARK                            x       y       z     vdW  Elec       q    Type
REMARK                         _______ _______ _______ _____ _____    ______ ____
ROOT
ATOM      1  N   UNL     1       8.753   7.899  18.890  0.00  0.00    +0.000 N 
ATOM      2  C   UNL     1       7.782   7.412  18.111  0.00  0.00    +0.000 A 
ATOM      3  N   UNL     1       7.418   7.964  16.948  0.00  0.00    +0.000 NA
ATOM      4  N   UNL     1       6.434   7.158  16.491  0.00  0.00    +0.000 N 
ATOM      5  C   UNL     1       6.163   6.135  17.338  0.00  0.00    +0.000 A 
ATOM      6  C   UNL     1       5.199   5.124  17.171  0.00  0.00    +0.000 A 
ATOM      7  C   UNL     1       5.140   4.224  18.180  0.00  0.00    +0.000 A 
ATOM      8  N   UNL     1       6.003   4.320  19.277  0.00  0.00    +0.000 N 
ATOM      9  C   UNL     1       6.956   5.319  19.481  0.00  0.00    +0.000 A 
ATOM     10  O   UNL     1       7.649   5.363  20.492  0.00  0.00    +0.000 OA
ATOM     11  C   UNL     1       7.019   6.272  18.405  0.00  0.00    +0.000 A 
ATOM     12  H   UNL     1       9.124   8.819  18.691  0.00  0.00    +0.000 HD
ATOM     13  H   UNL     1       8.879   7.567  19.841  0.00  0.00    +0.000 HD
ATOM     14  H   UNL     1       6.008   7.385  15.600  0.00  0.00    +0.000 HD
ATOM     15  H   UNL     1       5.948   3.643  20.027  0.00  0.00    +0.000 HD
ENDROOT
BRANCH   7  16
ATOM     16  C   UNL     1       4.148   3.076  18.199  0.00  0.00    +0.000 C 
BRANCH  16  17
ATOM     17  C   UNL     1       3.024   3.298  19.222  0.00  0.00    +0.000 C 
ATOM     18  C   UNL     1       1.629   2.926  18.700  0.00  0.00    +0.000 C 
ATOM     19  C   UNL     1       0.581   3.370  19.728  0.00  0.00    +0.000 C 
ATOM     20  N   UNL     1       0.810   2.779  21.051  0.00  0.00    +0.000 NA
ATOM     21  C   UNL     1       2.176   3.000  21.541  0.00  0.00    +0.000 C 
ATOM     22  C   UNL     1       3.237   2.539  20.537  0.00  0.00    +0.000 C 
ATOM     23  H   UNL     1       0.634   1.777  21.004  0.00  0.00    +0.000 HD
ENDBRANCH  16  17
ENDBRANCH   7  16
TORSDOF 2
ENDMDL
MODEL 3
REMARK VINA RESULT:      -7.9      0.488      1.252
REMARK  Name = 
REMARK  2 active torsions:
REMARK  status: ('A' for Active; 'I' for Inactive)
REMARK    1  A    between atoms: C_7  and  C_8
REMARK    2  A    between atoms: C_8  and  C_9
REMARK                            x       y       z     vdW  Elec       q    Type
REMARK                         _______ _______ _______ _____ _____    ______ ____
ROOT
ATOM      1  N   UNL     1       7.782   5.546  14.629  0.00  0.00    +0.000 N 
ATOM      2  C   UNL     1       7.416   5.119  15.842  0.00  0.00    +0.000 A 
ATOM      3  N   UNL     1       8.132   4.258  16.572  0.00  0.00    +0.000 NA
ATOM      4  N   UNL     1       7.422   4.117  17.713  0.00  0.00    +0.000 N 
ATOM      5  C   UNL     1       6.281   4.849  17.709  0.00  0.00    +0.000 A 
ATOM      6  C   UNL     1       5.316   4.927  18.730  0.00  0.00    +0.000 A 
ATOM      7  C   UNL     1       4.267   5.738  18.459  0.00  0.00    +0.000 A 
ATOM      8  N   UNL     1       4.197   6.440  17.250  0.00  0.00    +0.000 N 
ATOM      9  C   UNL     1       5.127   6.370  16.212  0.00  0.00    +0.000 A 
ATOM     10  O   UNL     1       4.977   6.983  15.160  0.00  0.00    +0.000 OA
ATOM     11  C   UNL     1       6.243   5.510  16.505  0.00  0.00    +0.000 A 
ATOM     12  H   UNL     1       8.544   5.077  14.156  0.00  0.00    +0.000 HD
ATOM     13  H   UNL     1       7.134   6.051  14.032  0.00  0.00    +0.000 HD
ATOM     14  H   UNL     1       7.790   3.504  18.432  0.00  0.00    +0.000 HD
ATOM     15  H   UNL     1       3.406   7.041  17.057  0.00  0.00    +0.000 HD
ENDROOT
BRANCH   7  16
ATOM     16  C   UNL     1       3.110   5.933  19.421  0.00  0.00    +0.000 C 
BRANCH  16  17
ATOM     17  C   UNL     1       2.467   4.600  19.833  0.00  0.00    +0.000 C 
ATOM     18  C   UNL     1       1.898   4.601  21.259  0.00  0.00    +0.000 C 
ATOM     19  C   UNL     1       1.464   3.175  21.620  0.00  0.00    +0.000 C 
ATOM     20  N   UNL     1       0.483   2.632  20.674  0.00  0.00    +0.000 NA
ATOM     21  C   UNL     1       0.930   2.724  19.279  0.00  0.00    +0.000 C 
ATOM     22  C   UNL     1       1.344   4.148  18.893  0.00  0.00    +0.000 C 
ATOM     23  H   UNL     1      -0.393   3.140  20.775  0.00  0.00    +0.000 HD
ENDBRANCH  16  17
ENDBRANCH   7  16
TORSDOF 2
ENDMDL
MODEL 4
REMARK VINA RESULT:      -7.7      2.376      3.136
REMARK  Name = 
REMARK  2 active torsions:
REMARK  status: ('A' for Active; 'I' for Inactive)
REMARK    1  A    between atoms: C_7  and  C_8
REMARK    2  A    between atoms: C_8  and  C_9
REMARK                            x       y       z     vdW  Elec       q    Type
REMARK                         _______ _______ _______ _____ _____    ______ ____
ROOT
ATOM      1  N   UNL     1       8.659   7.786  18.899  0.00  0.00    +0.000 N 
ATOM      2  C   UNL     1       7.713   7.338  18.068  0.00  0.00    +0.000 A 
ATOM      3  N   UNL     1       7.380   7.949  16.927  0.00  0.00    +0.000 NA
ATOM      4  N   UNL     1       6.414   7.165  16.399  0.00  0.00    +0.000 N 
ATOM      5  C   UNL     1       6.124   6.098  17.183  0.00  0.00    +0.000 A 
ATOM      6  C   UNL     1       5.170   5.094  16.934  0.00  0.00    +0.000 A 
ATOM      7  C   UNL     1       5.087   4.141  17.892  0.00  0.00    +0.000 A 
ATOM      8  N   UNL     1       5.918   4.182  19.018  0.00  0.00    +0.000 N 
ATOM      9  C   UNL     1       6.859   5.172  19.302  0.00  0.00    +0.000 A 
ATOM     10  O   UNL     1       7.523   5.165  20.333  0.00  0.00    +0.000 OA
ATOM     11  C   UNL     1       6.948   6.181  18.279  0.00  0.00    +0.000 A 
ATOM     12  H   UNL     1       9.031   8.717  18.761  0.00  0.00    +0.000 HD
ATOM     13  H   UNL     1       8.760   7.405  19.836  0.00  0.00    +0.000 HD
ATOM     14  H   UNL     1       6.012   7.437  15.509  0.00  0.00    +0.000 HD
ATOM     15  H   UNL     1       5.844   3.466  19.729  0.00  0.00    +0.000 HD
ENDROOT
BRANCH   7  16
ATOM     16  C   UNL     1       4.101   2.990  17.822  0.00  0.00    +0.000 C 
BRANCH  16  17
ATOM     17  C   UNL     1       3.011   3.094  18.900  0.00  0.00    +0.000 C 
ATOM     18  C   UNL     1       2.705   4.534  19.334  0.00  0.00    +0.000 C 
ATOM     19  C   UNL     1       1.754   4.497  20.537  0.00  0.00    +0.000 C 
ATOM     20  N   UNL     1       0.512   3.771  20.247  0.00  0.00    +0.000 NA
ATOM     21  C   UNL     1       0.754   2.428  19.708  0.00  0.00    +0.000 C 
ATOM     22  C   UNL     1       1.683   2.448  18.489  0.00  0.00    +0.000 C 
ATOM     23  H   UNL     1      -0.036   4.304  19.574  0.00  0.00    +0.000 HD
ENDBRANCH  16  17
ENDBRANCH   7  16
TORSDOF 2
ENDMDL
MODEL 5
REMARK VINA RESULT:      -7.6      1.467      2.002
REMARK  Name = 
REMARK  2 active torsions:
REMARK  status: ('A' for Active; 'I' for Inactive)
REMARK    1  A    between atoms: C_7  and  C_8
REMARK    2  A    between atoms: C_8  and  C_9
REMARK                            x       y       z     vdW  Elec       q    Type
REMARK                         _______ _______ _______ _____ _____    ______ ____
ROOT
ATOM      1  N   UNL     1       7.890   5.519  14.139  0.00  0.00    +0.000 N 
ATOM      2  C   UNL     1       7.002   4.802  14.834  0.00  0.00    +0.000 A 
ATOM      3  N   UNL     1       6.554   3.603  14.448  0.00  0.00    +0.000 NA
ATOM      4  N   UNL     1       5.703   3.233  15.431  0.00  0.00    +0.000 N 
ATOM      5  C   UNL     1       5.596   4.169  16.406  0.00  0.00    +0.000 A 
ATOM      6  C   UNL     1       4.798   4.106  17.563  0.00  0.00    +0.000 A 
ATOM      7  C   UNL     1       4.882   5.189  18.370  0.00  0.00    +0.000 A 
ATOM      8  N   UNL     1       5.724   6.260  18.048  0.00  0.00    +0.000 N 
ATOM      9  C   UNL     1       6.513   6.361  16.901  0.00  0.00    +0.000 A 
ATOM     10  O   UNL     1       7.195   7.352  16.664  0.00  0.00    +0.000 OA
ATOM     11  C   UNL     1       6.424   5.205  16.047  0.00  0.00    +0.000 A 
ATOM     12  H   UNL     1       8.114   5.236  13.193  0.00  0.00    +0.000 HD
ATOM     13  H   UNL     1       8.069   6.493  14.362  0.00  0.00    +0.000 HD
ATOM     14  H   UNL     1       5.244   2.333  15.351  0.00  0.00    +0.000 HD
ATOM     15  H   UNL     1       5.776   7.066  18.657  0.00  0.00    +0.000 HD
ENDROOT
BRANCH   7  16
ATOM     16  C   UNL     1       4.078   5.324  19.650  0.00  0.00    +0.000 C 
BRANCH  16  17
ATOM     17  C   UNL     1       2.990   4.246  19.767  0.00  0.00    +0.000 C 
ATOM     18  C   UNL     1       2.356   4.156  21.163  0.00  0.00    +0.000 C 
ATOM     19  C   UNL     1       1.435   2.930  21.209  0.00  0.00    +0.000 C 
ATOM     20  N   UNL     1       0.397   2.971  20.174  0.00  0.00    +0.000 NA
ATOM     21  C   UNL     1       0.946   3.183  18.829  0.00  0.00    +0.000 C 
ATOM     22  C   UNL     1       1.849   4.419  18.758  0.00  0.00    +0.000 C 
ATOM     23  H   UNL     1      -0.257   3.722  20.387  0.00  0.00    +0.000 HD
ENDBRANCH  16  17
ENDBRANCH   7  16
TORSDOF 2
ENDMDL
MODEL 6
REMARK VINA RESULT:      -7.5      2.280      3.080
REMARK  Name = 
REMARK  2 active torsions:
REMARK  status: ('A' for Active; 'I' for Inactive)
REMARK    1  A    between atoms: C_7  and  C_8
REMARK    2  A    between atoms: C_8  and  C_9
REMARK                            x       y       z     vdW  Elec       q    Type
REMARK                         _______ _______ _______ _____ _____    ______ ____
ROOT
ATOM      1  N   UNL     1       7.301   7.563  17.451  0.00  0.00    +0.000 N 
ATOM      2  C   UNL     1       6.441   6.665  16.962  0.00  0.00    +0.000 A 
ATOM      3  N   UNL     1       5.871   6.764  15.757  0.00  0.00    +0.000 NA
ATOM      4  N   UNL     1       5.102   5.658  15.659  0.00  0.00    +0.000 N 
ATOM      5  C   UNL     1       5.162   4.882  16.769  0.00  0.00    +0.000 A 
ATOM      6  C   UNL     1       4.485   3.671  17.000  0.00  0.00    +0.000 A 
ATOM      7  C   UNL     1       4.728   3.105  18.205  0.00  0.00    +0.000 A 
ATOM      8  N   UNL     1       5.606   3.705  19.115  0.00  0.00    +0.000 N 
ATOM      9  C   UNL     1       6.278   4.913  18.924  0.00  0.00    +0.000 A 
ATOM     10  O   UNL     1       7.001   5.401  19.787  0.00  0.00    +0.000 OA
ATOM     11  C   UNL     1       6.021   5.510  17.640  0.00  0.00    +0.000 A 
ATOM     12  H   UNL     1       7.407   8.449  16.974  0.00  0.00    +0.000 HD
ATOM     13  H   UNL     1       7.571   7.553  18.430  0.00  0.00    +0.000 HD
ATOM     14  H   UNL     1       4.574   5.517  14.805  0.00  0.00    +0.000 HD
ATOM     15  H   UNL     1       5.777   3.275  20.014  0.00  0.00    +0.000 HD
ENDROOT
BRANCH   7  16
ATOM     16  C   UNL     1       4.071   1.812  18.653  0.00  0.00    +0.000 C 
BRANCH  16  17
ATOM     17  C   UNL     1       2.712   2.056  19.328  0.00  0.00    +0.000 C 
ATOM     18  C   UNL     1       2.811   2.797  20.668  0.00  0.00    +0.000 C 
ATOM     19  C   UNL     1       1.428   2.808  21.331  0.00  0.00    +0.000 C 
ATOM     20  N   UNL     1       0.403   3.420  20.478  0.00  0.00    +0.000 NA
ATOM     21  C   UNL     1       0.355   2.826  19.136  0.00  0.00    +0.000 C 
ATOM     22  C   UNL     1       1.725   2.830  18.448  0.00  0.00    +0.000 C 
ATOM     23  H   UNL     1       0.593   4.416  20.392  0.00  0.00    +0.000 HD
ENDBRANCH  16  17
ENDBRANCH   7  16
TORSDOF 2
ENDMDL
MODEL 7
REMARK VINA RESULT:      -7.4      1.757      2.218
REMARK  Name = 
REMARK  2 active torsions:
REMARK  status: ('A' for Active; 'I' for Inactive)
REMARK    1  A    between atoms: C_7  and  C_8
REMARK    2  A    between atoms: C_8  and  C_9
REMARK                            x       y       z     vdW  Elec       q    Type
REMARK                         _______ _______ _______ _____ _____    ______ ____
ROOT
ATOM      1  N   UNL     1       7.740   8.070  17.062  0.00  0.00    +0.000 N 
ATOM      2  C   UNL     1       7.427   6.992  17.787  0.00  0.00    +0.000 A 
ATOM      3  N   UNL     1       8.093   6.618  18.884  0.00  0.00    +0.000 NA
ATOM      4  N   UNL     1       7.445   5.510  19.307  0.00  0.00    +0.000 N 
ATOM      5  C   UNL     1       6.408   5.175  18.500  0.00  0.00    +0.000 A 
ATOM      6  C   UNL     1       5.534   4.082  18.647  0.00  0.00    +0.000 A 
ATOM      7  C   UNL     1       4.582   3.984  17.690  0.00  0.00    +0.000 A 
ATOM      8  N   UNL     1       4.501   4.929  16.660  0.00  0.00    +0.000 N 
ATOM      9  C   UNL     1       5.362   6.011  16.477  0.00  0.00    +0.000 A 
ATOM     10  O   UNL     1       5.255   6.776  15.523  0.00  0.00    +0.000 OA
ATOM     11  C   UNL     1       6.370   6.115  17.499  0.00  0.00    +0.000 A 
ATOM     12  H   UNL     1       8.620   8.538  17.237  0.00  0.00    +0.000 HD
ATOM     13  H   UNL     1       7.333   8.222  16.144  0.00  0.00    +0.000 HD
ATOM     14  H   UNL     1       7.779   5.052  20.147  0.00  0.00    +0.000 HD
ATOM     15  H   UNL     1       3.787   4.843  15.948  0.00  0.00    +0.000 HD
ENDROOT
BRANCH   7  16
ATOM     16  C   UNL     1       3.564   2.859  17.657  0.00  0.00    +0.000 C 
BRANCH  16  17
ATOM     17  C   UNL     1       2.639   2.878  18.883  0.00  0.00    +0.000 C 
ATOM     18  C   UNL     1       3.352   2.541  20.200  0.00  0.00    +0.000 C 
ATOM     19  C   UNL     1       2.301   2.401  21.310  0.00  0.00    +0.000 C 
ATOM     20  N   UNL     1       1.483   3.610  21.461  0.00  0.00    +0.000 NA
ATOM     21  C   UNL     1       0.879   4.047  20.197  0.00  0.00    +0.000 C 
ATOM     22  C   UNL     1       1.918   4.216  19.083  0.00  0.00    +0.000 C 
ATOM     23  H   UNL     1       2.063   4.362  21.828  0.00  0.00    +0.000 HD
ENDBRANCH  16  17
ENDBRANCH   7  16
TORSDOF 2
ENDMDL
MODEL 8
REMARK VINA RESULT:      -7.4      1.849      2.064
REMARK  Name = 
REMARK  2 active torsions:
REMARK  status: ('A' for Active; 'I' for Inactive)
REMARK    1  A    between atoms: C_7  and  C_8
REMARK    2  A    between atoms: C_8  and  C_9
REMARK                            x       y       z     vdW  Elec       q    Type
REMARK                         _______ _______ _______ _____ _____    ______ ____
ROOT
ATOM      1  N   UNL     1       7.933   8.365  17.017  0.00  0.00    +0.000 N 
ATOM      2  C   UNL     1       7.669   7.328  17.819  0.00  0.00    +0.000 A 
ATOM      3  N   UNL     1       8.376   7.042  18.916  0.00  0.00    +0.000 NA
ATOM      4  N   UNL     1       7.769   5.948  19.428  0.00  0.00    +0.000 N 
ATOM      5  C   UNL     1       6.718   5.536  18.675  0.00  0.00    +0.000 A 
ATOM      6  C   UNL     1       5.878   4.434  18.917  0.00  0.00    +0.000 A 
ATOM      7  C   UNL     1       4.903   4.252  17.997  0.00  0.00    +0.000 A 
ATOM      8  N   UNL     1       4.767   5.126  16.913  0.00  0.00    +0.000 N 
ATOM      9  C   UNL     1       5.594   6.216  16.635  0.00  0.00    +0.000 A 
ATOM     10  O   UNL     1       5.440   6.914  15.639  0.00  0.00    +0.000 OA
ATOM     11  C   UNL     1       6.628   6.410  17.618  0.00  0.00    +0.000 A 
ATOM     12  H   UNL     1       8.805   8.864  17.136  0.00  0.00    +0.000 HD
ATOM     13  H   UNL     1       7.497   8.448  16.104  0.00  0.00    +0.000 HD
ATOM     14  H   UNL     1       8.139   5.553  20.285  0.00  0.00    +0.000 HD
ATOM     15  H   UNL     1       4.036   4.978  16.229  0.00  0.00    +0.000 HD
ENDROOT
BRANCH   7  16
ATOM     16  C   UNL     1       3.913   3.103  18.066  0.00  0.00    +0.000 C 
BRANCH  16  17
ATOM     17  C   UNL     1       2.872   3.300  19.178  0.00  0.00    +0.000 C 
ATOM     18  C   UNL     1       1.470   2.795  18.810  0.00  0.00    +0.000 C 
ATOM     19  C   UNL     1       0.487   3.219  19.909  0.00  0.00    +0.000 C 
ATOM     20  N   UNL     1       0.882   2.726  21.233  0.00  0.00    +0.000 NA
ATOM     21  C   UNL     1       2.264   3.077  21.579  0.00  0.00    +0.000 C 
ATOM     22  C   UNL     1       3.264   2.638  20.504  0.00  0.00    +0.000 C 
ATOM     23  H   UNL     1       0.783   1.712  21.255  0.00  0.00    +0.000 HD
ENDBRANCH  16  17
ENDBRANCH   7  16
TORSDOF 2
ENDMDL
MODEL 9
REMARK VINA RESULT:      -7.3      1.709      2.069
REMARK  Name = 
REMARK  2 active torsions:
REMARK  status: ('A' for Active; 'I' for Inactive)
REMARK    1  A    between atoms: C_7  and  C_8
REMARK    2  A    between atoms: C_8  and  C_9
REMARK                            x       y       z     vdW  Elec       q    Type
REMARK                         _______ _______ _______ _____ _____    ______ ____
ROOT
ATOM      1  N   UNL     1       8.141   5.486  13.939  0.00  0.00    +0.000 N 
ATOM      2  C   UNL     1       7.010   5.014  14.471  0.00  0.00    +0.000 A 
ATOM      3  N   UNL     1       6.230   4.108  13.872  0.00  0.00    +0.000 NA
ATOM      4  N   UNL     1       5.222   3.903  14.748  0.00  0.00    +0.000 N 
ATOM      5  C   UNL     1       5.341   4.663  15.865  0.00  0.00    +0.000 A 
ATOM      6  C   UNL     1       4.467   4.700  16.966  0.00  0.00    +0.000 A 
ATOM      7  C   UNL     1       4.829   5.557  17.950  0.00  0.00    +0.000 A 
ATOM      8  N   UNL     1       5.999   6.317  17.843  0.00  0.00    +0.000 N 
ATOM      9  C   UNL     1       6.876   6.317  16.757  0.00  0.00    +0.000 A 
ATOM     10  O   UNL     1       7.863   7.044  16.716  0.00  0.00    +0.000 OA
ATOM     11  C   UNL     1       6.491   5.401  15.716  0.00  0.00    +0.000 A 
ATOM     12  H   UNL     1       8.343   5.289  12.967  0.00  0.00    +0.000 HD
ATOM     13  H   UNL     1       8.609   6.297  14.332  0.00  0.00    +0.000 HD
ATOM     14  H   UNL     1       4.503   3.234  14.500  0.00  0.00    +0.000 HD
ATOM     15  H   UNL     1       6.258   6.957  18.583  0.00  0.00    +0.000 HD
ENDROOT
BRANCH   7  16
ATOM     16  C   UNL     1       4.003   5.761  19.206  0.00  0.00    +0.000 C 
BRANCH  16  17
ATOM     17  C   UNL     1       2.977   4.637  19.415  0.00  0.00    +0.000 C 
ATOM     18  C   UNL     1       3.592   3.324  19.920  0.00  0.00    +0.000 C 
ATOM     19  C   UNL     1       2.513   2.234  19.903  0.00  0.00    +0.000 C 
ATOM     20  N   UNL     1       1.339   2.595  20.705  0.00  0.00    +0.000 NA
ATOM     21  C   UNL     1       0.788   3.907  20.344  0.00  0.00    +0.000 C 
ATOM     22  C   UNL     1       1.847   5.014  20.380  0.00  0.00    +0.000 C 
ATOM     23  H   UNL     1       1.599   2.606  21.690  0.00  0.00    +0.000 HD
ENDBRANCH  16  17
ENDBRANCH   7  16
TORSDOF 2
ENDMDL
