MODEL 1
REMARK VINA RESULT:      -8.8      0.000      0.000
REMARK  Name = 
REMARK  6 active torsions:
REMARK  status: ('A' for Active; 'I' for Inactive)
REMARK    1  A    between atoms: C_1  and  C_2
REMARK    2  A    between atoms: C_6  and  C_7
REMARK    3  A    between atoms: N_9  and  C_10
REMARK    4  A    between atoms: N_18  and  C_19
REMARK    5  A    between atoms: C_22  and  O_23
REMARK    6  A    between atoms: O_23  and  C_24
REMARK                            x       y       z     vdW  Elec       q    Type
REMARK                         _______ _______ _______ _____ _____    ______ ____
ROOT
ATOM      1  C   UNL     1       0.357  11.108  19.815  0.00  0.00    +0.000 C 
ATOM      2  C   UNL     1      -0.192  10.698  21.200  0.00  0.00    +0.000 C 
ATOM      3  C   UNL     1       0.478   9.516  21.935  0.00  0.00    +0.000 C 
ATOM      4  C   UNL     1       1.069   8.371  21.095  0.00  0.00    +0.000 C 
ATOM      5  C   UNL     1       1.387   8.789  19.708  0.00  0.00    +0.000 A 
ATOM      6  C   UNL     1       1.087  10.006  19.146  0.00  0.00    +0.000 A 
ATOM      7  C   UNL     1       1.677   9.963  17.871  0.00  0.00    +0.000 A 
ATOM      8  N   UNL     1       2.385   8.849  17.681  0.00  0.00    +0.000 NA
ATOM      9  N   UNL     1       2.121   8.080  18.772  0.00  0.00    +0.000 N 
ENDROOT
BRANCH   9  10
ATOM     10  C   UNL     1       2.619   6.753  18.833  0.00  0.00    +0.000 A 
ATOM     11  C   UNL     1       2.229   5.924  19.887  0.00  0.00    +0.000 A 
ATOM     12  C   UNL     1       2.676   4.602  19.934  0.00  0.00    +0.000 A 
ATOM     13  C   UNL     1       3.539   4.099  18.954  0.00  0.00    +0.000 A 
ATOM     14  C   UNL     1       4.001   4.958  17.961  0.00  0.00    +0.000 A 
ATOM     15  C   UNL     1       3.526   6.273  17.880  0.00  0.00    +0.000 A 
BRANCH  13  16
ATOM     16  O   UNL     1       3.892   2.796  19.118  0.00  0.00    +0.000 OA
BRANCH  16  17
ATOM     17  C   UNL     1       3.107   1.772  18.524  0.00  0.00    +0.000 C 
ATOM     18  F   UNL     1       2.589   2.091  17.319  0.00  0.00    +0.000 F 
ATOM     19  F   UNL     1       3.856   0.656  18.392  0.00  0.00    +0.000 F 
ATOM     20  F   UNL     1       2.074   1.490  19.351  0.00  0.00    +0.000 F 
ENDBRANCH  16  17
ENDBRANCH  13  16
ENDBRANCH   9  10
BRANCH   1  23
ATOM     21  C   UNL     1       1.126  13.327  19.051  0.00  0.00    +0.000 C 
ATOM     22  O   UNL     1       0.157  13.485  18.317  0.00  0.00    +0.000 OA
ATOM     23  N   UNL     1       1.274  12.235  19.880  0.00  0.00    +0.000 N 
ATOM     24  H   UNL     1       2.023  12.200  20.557  0.00  0.00    +0.000 HD
BRANCH  21  30
ATOM     25  C   UNL     1       8.008  15.792  17.897  0.00  0.00    +0.000 C 
ATOM     26  C   UNL     1       6.570  15.713  18.298  0.00  0.00    +0.000 A 
ATOM     27  N   UNL     1       5.834  14.635  18.157  0.00  0.00    +0.000 NA
ATOM     28  C   UNL     1       4.544  14.880  18.614  0.00  0.00    +0.000 A 
ATOM     29  C   UNL     1       3.483  13.958  18.618  0.00  0.00    +0.000 A 
ATOM     30  C   UNL     1       2.214  14.345  19.074  0.00  0.00    +0.000 A 
ATOM     31  C   UNL     1       2.020  15.636  19.576  0.00  0.00    +0.000 A 
ATOM     32  C   UNL     1       3.066  16.569  19.596  0.00  0.00    +0.000 A 
ATOM     33  C   UNL     1       4.325  16.169  19.100  0.00  0.00    +0.000 A 
ATOM     34  S   UNL     1       5.788  17.074  18.980  0.00  0.00    +0.000 S 
ENDBRANCH  21  30
ENDBRANCH   1  23
TORSDOF 5
ENDMDL
MODEL 2
REMARK VINA RESULT:      -8.7      0.196      1.089
REMARK  Name = 
REMARK  6 active torsions:
REMARK  status: ('A' for Active; 'I' for Inactive)
REMARK    1  A    between atoms: C_1  and  C_2
REMARK    2  A    between atoms: C_6  and  C_7
REMARK    3  A    between atoms: N_9  and  C_10
REMARK    4  A    between atoms: N_18  and  C_19
REMARK    5  A    between atoms: C_22  and  O_23
REMARK    6  A    between atoms: O_23  and  C_24
REMARK                            x       y       z     vdW  Elec       q    Type
REMARK                         _______ _______ _______ _____ _____    ______ ____
ROOT
ATOM      1  C   UNL     1       0.321  11.242  19.962  0.00  0.00    +0.000 C 
ATOM      2  C   UNL     1      -0.240  10.859  21.350  0.00  0.00    +0.000 C 
ATOM      3  C   UNL     1       0.394   9.664  22.095  0.00  0.00    +0.000 C 
ATOM      4  C   UNL     1       0.950   8.495  21.264  0.00  0.00    +0.000 C 
ATOM      5  C   UNL     1       1.281   8.891  19.874  0.00  0.00    +0.000 A 
ATOM      6  C   UNL     1       1.017  10.112  19.302  0.00  0.00    +0.000 A 
ATOM      7  C   UNL     1       1.605  10.041  18.028  0.00  0.00    +0.000 A 
ATOM      8  N   UNL     1       2.279   8.905  17.847  0.00  0.00    +0.000 NA
ATOM      9  N   UNL     1       1.993   8.153  18.944  0.00  0.00    +0.000 N 
ENDROOT
BRANCH   9  10
ATOM     10  C   UNL     1       2.451   6.812  19.017  0.00  0.00    +0.000 A 
ATOM     11  C   UNL     1       3.236   6.299  17.982  0.00  0.00    +0.000 A 
ATOM     12  C   UNL     1       3.729   4.995  18.063  0.00  0.00    +0.000 A 
ATOM     13  C   UNL     1       3.423   4.178  19.157  0.00  0.00    +0.000 A 
ATOM     14  C   UNL     1       2.561   4.661  20.137  0.00  0.00    +0.000 A 
ATOM     15  C   UNL     1       2.095   5.981  20.087  0.00  0.00    +0.000 A 
BRANCH  13  16
ATOM     16  O   UNL     1       3.971   2.935  19.112  0.00  0.00    +0.000 OA
BRANCH  16  17
ATOM     17  C   UNL     1       3.214   1.847  18.601  0.00  0.00    +0.000 C 
ATOM     18  F   UNL     1       3.902   0.691  18.487  0.00  0.00    +0.000 F 
ATOM     19  F   UNL     1       2.143   1.637  19.396  0.00  0.00    +0.000 F 
ATOM     20  F   UNL     1       2.766   2.179  17.369  0.00  0.00    +0.000 F 
ENDBRANCH  16  17
ENDBRANCH  13  16
ENDBRANCH   9  10
BRANCH   1  23
ATOM     21  C   UNL     1       1.155  13.430  19.180  0.00  0.00    +0.000 C 
ATOM     22  O   UNL     1       0.191  13.611  18.446  0.00  0.00    +0.000 OA
ATOM     23  N   UNL     1       1.271  12.341  20.018  0.00  0.00    +0.000 N 
ATOM     24  H   UNL     1       2.020  12.289  20.694  0.00  0.00    +0.000 HD
BRANCH  21  30
ATOM     25  C   UNL     1       8.053  15.743  17.823  0.00  0.00    +0.000 C 
ATOM     26  C   UNL     1       6.631  15.688  18.283  0.00  0.00    +0.000 A 
ATOM     27  N   UNL     1       5.858  14.639  18.134  0.00  0.00    +0.000 NA
ATOM     28  C   UNL     1       4.597  14.901  18.655  0.00  0.00    +0.000 A 
ATOM     29  C   UNL     1       3.509  14.010  18.669  0.00  0.00    +0.000 A 
ATOM     30  C   UNL     1       2.273  14.415  19.195  0.00  0.00    +0.000 A 
ATOM     31  C   UNL     1       2.139  15.691  19.753  0.00  0.00    +0.000 A 
ATOM     32  C   UNL     1       3.212  16.592  19.764  0.00  0.00    +0.000 A 
ATOM     33  C   UNL     1       4.437  16.177  19.198  0.00  0.00    +0.000 A 
ATOM     34  S   UNL     1       5.920  17.044  19.049  0.00  0.00    +0.000 S 
ENDBRANCH  21  30
ENDBRANCH   1  23
TORSDOF 5
ENDMDL
MODEL 3
REMARK VINA RESULT:      -8.7      4.035      6.492
REMARK  Name = 
REMARK  6 active torsions:
REMARK  status: ('A' for Active; 'I' for Inactive)
REMARK    1  A    between atoms: C_1  and  C_2
REMARK    2  A    between atoms: C_6  and  C_7
REMARK    3  A    between atoms: N_9  and  C_10
REMARK    4  A    between atoms: N_18  and  C_19
REMARK    5  A    between atoms: C_22  and  O_23
REMARK    6  A    between atoms: O_23  and  C_24
REMARK                            x       y       z     vdW  Elec       q    Type
REMARK                         _______ _______ _______ _____ _____    ______ ____
ROOT
ATOM      1  C   UNL     1       0.776  11.041  20.062  0.00  0.00    +0.000 C 
ATOM      2  C   UNL     1       1.425  11.299  18.684  0.00  0.00    +0.000 C 
ATOM      3  C   UNL     1       1.685  10.091  17.756  0.00  0.00    +0.000 C 
ATOM      4  C   UNL     1       2.018   8.733  18.398  0.00  0.00    +0.000 C 
ATOM      5  C   UNL     1       1.536   8.631  19.796  0.00  0.00    +0.000 A 
ATOM      6  C   UNL     1       0.971   9.648  20.528  0.00  0.00    +0.000 A 
ATOM      7  C   UNL     1       0.587   9.043  21.737  0.00  0.00    +0.000 A 
ATOM      8  N   UNL     1       0.796   7.726  21.731  0.00  0.00    +0.000 NA
ATOM      9  N   UNL     1       1.475   7.488  20.576  0.00  0.00    +0.000 N 
ENDROOT
BRANCH   9  10
ATOM     10  C   UNL     1       1.976   6.188  20.310  0.00  0.00    +0.000 A 
ATOM     11  C   UNL     1       3.198   6.047  19.649  0.00  0.00    +0.000 A 
ATOM     12  C   UNL     1       3.723   4.774  19.420  0.00  0.00    +0.000 A 
ATOM     13  C   UNL     1       3.027   3.627  19.819  0.00  0.00    +0.000 A 
ATOM     14  C   UNL     1       1.766   3.771  20.390  0.00  0.00    +0.000 A 
ATOM     15  C   UNL     1       1.249   5.043  20.661  0.00  0.00    +0.000 A 
BRANCH  13  16
ATOM     16  O   UNL     1       3.654   2.453  19.541  0.00  0.00    +0.000 OA
BRANCH  16  17
ATOM     17  C   UNL     1       3.497   1.854  18.262  0.00  0.00    +0.000 C 
ATOM     18  F   UNL     1       4.164   2.474  17.268  0.00  0.00    +0.000 F 
ATOM     19  F   UNL     1       3.901   0.567  18.320  0.00  0.00    +0.000 F 
ATOM     20  F   UNL     1       2.182   1.868  17.942  0.00  0.00    +0.000 F 
ENDBRANCH  16  17
ENDBRANCH  13  16
ENDBRANCH   9  10
BRANCH   1  23
ATOM     21  C   UNL     1      -1.183  12.462  20.553  0.00  0.00    +0.000 C 
ATOM     22  O   UNL     1      -0.490  13.420  20.878  0.00  0.00    +0.000 OA
ATOM     23  N   UNL     1      -0.658  11.284  20.066  0.00  0.00    +0.000 N 
ATOM     24  H   UNL     1      -1.264  10.564  19.697  0.00  0.00    +0.000 HD
BRANCH  21  30
ATOM     25  C   UNL     1      -7.555  13.383  24.202  0.00  0.00    +0.000 C 
ATOM     26  C   UNL     1      -6.554  13.128  23.121  0.00  0.00    +0.000 A 
ATOM     27  N   UNL     1      -5.257  13.113  23.319  0.00  0.00    +0.000 NA
ATOM     28  C   UNL     1      -4.599  12.857  22.122  0.00  0.00    +0.000 A 
ATOM     29  C   UNL     1      -3.206  12.769  21.950  0.00  0.00    +0.000 A 
ATOM     30  C   UNL     1      -2.665  12.542  20.675  0.00  0.00    +0.000 A 
ATOM     31  C   UNL     1      -3.518  12.351  19.584  0.00  0.00    +0.000 A 
ATOM     32  C   UNL     1      -4.910  12.420  19.731  0.00  0.00    +0.000 A 
ATOM     33  C   UNL     1      -5.431  12.684  21.016  0.00  0.00    +0.000 A 
ATOM     34  S   UNL     1      -7.074  12.839  21.516  0.00  0.00    +0.000 S 
ENDBRANCH  21  30
ENDBRANCH   1  23
TORSDOF 5
ENDMDL
MODEL 4
REMARK VINA RESULT:      -8.6      1.210      1.334
REMARK  Name = 
REMARK  6 active torsions:
REMARK  status: ('A' for Active; 'I' for Inactive)
REMARK    1  A    between atoms: C_1  and  C_2
REMARK    2  A    between atoms: C_6  and  C_7
REMARK    3  A    between atoms: N_9  and  C_10
REMARK    4  A    between atoms: N_18  and  C_19
REMARK    5  A    between atoms: C_22  and  O_23
REMARK    6  A    between atoms: O_23  and  C_24
REMARK                            x       y       z     vdW  Elec       q    Type
REMARK                         _______ _______ _______ _____ _____    ______ ____
ROOT
ATOM      1  C   UNL     1       0.459  10.938  19.966  0.00  0.00    +0.000 C 
ATOM      2  C   UNL     1       0.063  10.430  21.370  0.00  0.00    +0.000 C 
ATOM      3  C   UNL     1       0.818   9.214  21.951  0.00  0.00    +0.000 C 
ATOM      4  C   UNL     1       1.329   8.136  20.981  0.00  0.00    +0.000 C 
ATOM      5  C   UNL     1       1.496   8.648  19.599  0.00  0.00    +0.000 A 
ATOM      6  C   UNL     1       1.125   9.894  19.153  0.00  0.00    +0.000 A 
ATOM      7  C   UNL     1       1.579   9.944  17.823  0.00  0.00    +0.000 A 
ATOM      8  N   UNL     1       2.274   8.857  17.487  0.00  0.00    +0.000 NA
ATOM      9  N   UNL     1       2.135   8.014  18.547  0.00  0.00    +0.000 N 
ENDROOT
BRANCH   9  10
ATOM     10  C   UNL     1       2.649   6.695  18.469  0.00  0.00    +0.000 A 
ATOM     11  C   UNL     1       1.875   5.691  17.884  0.00  0.00    +0.000 A 
ATOM     12  C   UNL     1       2.388   4.398  17.761  0.00  0.00    +0.000 A 
ATOM     13  C   UNL     1       3.662   4.081  18.244  0.00  0.00    +0.000 A 
ATOM     14  C   UNL     1       4.390   5.061  18.912  0.00  0.00    +0.000 A 
ATOM     15  C   UNL     1       3.903   6.371  19.004  0.00  0.00    +0.000 A 
BRANCH  13  16
ATOM     16  O   UNL     1       4.040   2.789  18.055  0.00  0.00    +0.000 OA
BRANCH  16  17
ATOM     17  C   UNL     1       3.774   1.821  19.060  0.00  0.00    +0.000 C 
ATOM     18  F   UNL     1       2.587   1.973  19.683  0.00  0.00    +0.000 F 
ATOM     19  F   UNL     1       3.823   0.587  18.515  0.00  0.00    +0.000 F 
ATOM     20  F   UNL     1       4.743   1.905  20.001  0.00  0.00    +0.000 F 
ENDBRANCH  16  17
ENDBRANCH  13  16
ENDBRANCH   9  10
BRANCH   1  23
ATOM     21  C   UNL     1       1.041  13.273  19.410  0.00  0.00    +0.000 C 
ATOM     22  O   UNL     1      -0.063  13.505  18.932  0.00  0.00    +0.000 OA
ATOM     23  N   UNL     1       1.366  12.074  20.009  0.00  0.00    +0.000 N 
ATOM     24  H   UNL     1       2.243  11.964  20.497  0.00  0.00    +0.000 HD
BRANCH  21  30
ATOM     25  C   UNL     1       7.625  16.194  21.109  0.00  0.00    +0.000 C 
ATOM     26  C   UNL     1       6.256  15.996  20.542  0.00  0.00    +0.000 A 
ATOM     27  N   UNL     1       5.518  14.936  20.773  0.00  0.00    +0.000 NA
ATOM     28  C   UNL     1       4.307  15.045  20.101  0.00  0.00    +0.000 A 
ATOM     29  C   UNL     1       3.269  14.097  20.115  0.00  0.00    +0.000 A 
ATOM     30  C   UNL     1       2.106  14.313  19.360  0.00  0.00    +0.000 A 
ATOM     31  C   UNL     1       1.960  15.499  18.633  0.00  0.00    +0.000 A 
ATOM     32  C   UNL     1       2.975  16.466  18.614  0.00  0.00    +0.000 A 
ATOM     33  C   UNL     1       4.150  16.213  19.353  0.00  0.00    +0.000 A 
ATOM     34  S   UNL     1       5.565  17.185  19.522  0.00  0.00    +0.000 S 
ENDBRANCH  21  30
ENDBRANCH   1  23
TORSDOF 5
ENDMDL
MODEL 5
REMARK VINA RESULT:      -8.3      0.941      1.166
REMARK  Name = 
REMARK  6 active torsions:
REMARK  status: ('A' for Active; 'I' for Inactive)
REMARK    1  A    between atoms: C_1  and  C_2
REMARK    2  A    between atoms: C_6  and  C_7
REMARK    3  A    between atoms: N_9  and  C_10
REMARK    4  A    between atoms: N_18  and  C_19
REMARK    5  A    between atoms: C_22  and  O_23
REMARK    6  A    between atoms: O_23  and  C_24
REMARK                            x       y       z     vdW  Elec       q    Type
REMARK                         _______ _______ _______ _____ _____    ______ ____
ROOT
ATOM      1  C   UNL     1       0.093  11.216  20.616  0.00  0.00    +0.000 C 
ATOM      2  C   UNL     1      -0.304  10.674  22.007  0.00  0.00    +0.000 C 
ATOM      3  C   UNL     1       0.479   9.470  22.577  0.00  0.00    +0.000 C 
ATOM      4  C   UNL     1       1.029   8.423  21.595  0.00  0.00    +0.000 C 
ATOM      5  C   UNL     1       1.196   8.961  20.223  0.00  0.00    +0.000 A 
ATOM      6  C   UNL     1       0.796  10.204  19.793  0.00  0.00    +0.000 A 
ATOM      7  C   UNL     1       1.262  10.288  18.470  0.00  0.00    +0.000 A 
ATOM      8  N   UNL     1       1.990   9.226  18.124  0.00  0.00    +0.000 NA
ATOM      9  N   UNL     1       1.863   8.363  19.168  0.00  0.00    +0.000 N 
ENDROOT
BRANCH   9  10
ATOM     10  C   UNL     1       2.415   7.059  19.074  0.00  0.00    +0.000 A 
ATOM     11  C   UNL     1       2.158   6.132  20.086  0.00  0.00    +0.000 A 
ATOM     12  C   UNL     1       2.659   4.832  19.984  0.00  0.00    +0.000 A 
ATOM     13  C   UNL     1       3.443   4.449  18.891  0.00  0.00    +0.000 A 
ATOM     14  C   UNL     1       3.777   5.403  17.934  0.00  0.00    +0.000 A 
ATOM     15  C   UNL     1       3.246   6.697  18.006  0.00  0.00    +0.000 A 
BRANCH  13  16
ATOM     16  O   UNL     1       3.860   3.155  18.913  0.00  0.00    +0.000 OA
BRANCH  16  17
ATOM     17  C   UNL     1       3.003   2.128  18.436  0.00  0.00    +0.000 C 
ATOM     18  F   UNL     1       2.109   1.679  19.342  0.00  0.00    +0.000 F 
ATOM     19  F   UNL     1       2.334   2.574  17.351  0.00  0.00    +0.000 F 
ATOM     20  F   UNL     1       3.764   1.076  18.057  0.00  0.00    +0.000 F 
ENDBRANCH  16  17
ENDBRANCH  13  16
ENDBRANCH   9  10
BRANCH   1  23
ATOM     21  C   UNL     1       0.738  13.494  19.914  0.00  0.00    +0.000 C 
ATOM     22  O   UNL     1      -0.271  13.642  19.233  0.00  0.00    +0.000 OA
ATOM     23  N   UNL     1       0.967  12.375  20.687  0.00  0.00    +0.000 N 
ATOM     24  H   UNL     1       1.749  12.343  21.326  0.00  0.00    +0.000 HD
BRANCH  21  30
ATOM     25  C   UNL     1       7.691  16.026  20.023  0.00  0.00    +0.000 C 
ATOM     26  C   UNL     1       6.198  15.958  20.016  0.00  0.00    +0.000 A 
ATOM     27  N   UNL     1       5.520  14.835  20.006  0.00  0.00    +0.000 NA
ATOM     28  C   UNL     1       4.157  15.104  19.994  0.00  0.00    +0.000 A 
ATOM     29  C   UNL     1       3.128  14.146  19.980  0.00  0.00    +0.000 A 
ATOM     30  C   UNL     1       1.785  14.553  19.931  0.00  0.00    +0.000 A 
ATOM     31  C   UNL     1       1.472  15.915  19.949  0.00  0.00    +0.000 A 
ATOM     32  C   UNL     1       2.479  16.890  19.977  0.00  0.00    +0.000 A 
ATOM     33  C   UNL     1       3.822  16.459  19.991  0.00  0.00    +0.000 A 
ATOM     34  S   UNL     1       5.270  17.397  20.015  0.00  0.00    +0.000 S 
ENDBRANCH  21  30
ENDBRANCH   1  23
TORSDOF 5
ENDMDL
MODEL 6
REMARK VINA RESULT:      -8.2      1.422      1.992
REMARK  Name = 
REMARK  6 active torsions:
REMARK  status: ('A' for Active; 'I' for Inactive)
REMARK    1  A    between atoms: C_1  and  C_2
REMARK    2  A    between atoms: C_6  and  C_7
REMARK    3  A    between atoms: N_9  and  C_10
REMARK    4  A    between atoms: N_18  and  C_19
REMARK    5  A    between atoms: C_22  and  O_23
REMARK    6  A    between atoms: O_23  and  C_24
REMARK                            x       y       z     vdW  Elec       q    Type
REMARK                         _______ _______ _______ _____ _____    ______ ____
ROOT
ATOM      1  C   UNL     1       0.688  10.914  20.147  0.00  0.00    +0.000 C 
ATOM      2  C   UNL     1       0.390  10.368  21.561  0.00  0.00    +0.000 C 
ATOM      3  C   UNL     1       1.124   9.090  22.026  0.00  0.00    +0.000 C 
ATOM      4  C   UNL     1       1.486   8.029  20.973  0.00  0.00    +0.000 C 
ATOM      5  C   UNL     1       1.558   8.590  19.602  0.00  0.00    +0.000 A 
ATOM      6  C   UNL     1       1.221   9.871  19.238  0.00  0.00    +0.000 A 
ATOM      7  C   UNL     1       1.557   9.954  17.876  0.00  0.00    +0.000 A 
ATOM      8  N   UNL     1       2.158   8.847  17.438  0.00  0.00    +0.000 NA
ATOM      9  N   UNL     1       2.066   7.969  18.473  0.00  0.00    +0.000 N 
ENDROOT
BRANCH   9  10
ATOM     10  C   UNL     1       2.497   6.629  18.299  0.00  0.00    +0.000 A 
ATOM     11  C   UNL     1       3.844   6.312  18.486  0.00  0.00    +0.000 A 
ATOM     12  C   UNL     1       4.272   4.989  18.361  0.00  0.00    +0.000 A 
ATOM     13  C   UNL     1       3.374   3.972  18.019  0.00  0.00    +0.000 A 
ATOM     14  C   UNL     1       2.053   4.308  17.739  0.00  0.00    +0.000 A 
ATOM     15  C   UNL     1       1.604   5.624  17.903  0.00  0.00    +0.000 A 
BRANCH  13  16
ATOM     16  O   UNL     1       3.922   2.730  17.937  0.00  0.00    +0.000 OA
BRANCH  16  17
ATOM     17  C   UNL     1       3.789   1.826  19.024  0.00  0.00    +0.000 C 
ATOM     18  F   UNL     1       4.648   2.044  20.042  0.00  0.00    +0.000 F 
ATOM     19  F   UNL     1       2.527   1.884  19.501  0.00  0.00    +0.000 F 
ATOM     20  F   UNL     1       4.008   0.572  18.567  0.00  0.00    +0.000 F 
ENDBRANCH  16  17
ENDBRANCH  13  16
ENDBRANCH   9  10
BRANCH   1  23
ATOM     21  C   UNL     1       1.412  13.180  19.485  0.00  0.00    +0.000 C 
ATOM     22  O   UNL     1       0.330  13.449  18.975  0.00  0.00    +0.000 OA
ATOM     23  N   UNL     1       1.657  11.998  20.151  0.00  0.00    +0.000 N 
ATOM     24  H   UNL     1       2.519  11.863  20.661  0.00  0.00    +0.000 HD
BRANCH  21  30
ATOM     25  C   UNL     1       5.737  18.629  22.009  0.00  0.00    +0.000 C 
ATOM     26  C   UNL     1       5.130  17.578  21.136  0.00  0.00    +0.000 A 
ATOM     27  N   UNL     1       4.097  16.848  21.486  0.00  0.00    +0.000 NA
ATOM     28  C   UNL     1       3.777  15.960  20.467  0.00  0.00    +0.000 A 
ATOM     29  C   UNL     1       2.729  15.023  20.489  0.00  0.00    +0.000 A 
ATOM     30  C   UNL     1       2.535  14.155  19.404  0.00  0.00    +0.000 A 
ATOM     31  C   UNL     1       3.355  14.260  18.276  0.00  0.00    +0.000 A 
ATOM     32  C   UNL     1       4.397  15.196  18.223  0.00  0.00    +0.000 A 
ATOM     33  C   UNL     1       4.596  16.035  19.340  0.00  0.00    +0.000 A 
ATOM     34  S   UNL     1       5.782  17.263  19.585  0.00  0.00    +0.000 S 
ENDBRANCH  21  30
ENDBRANCH   1  23
TORSDOF 5
ENDMDL
MODEL 7
REMARK VINA RESULT:      -8.2      4.075      6.502
REMARK  Name = 
REMARK  6 active torsions:
REMARK  status: ('A' for Active; 'I' for Inactive)
REMARK    1  A    between atoms: C_1  and  C_2
REMARK    2  A    between atoms: C_6  and  C_7
REMARK    3  A    between atoms: N_9  and  C_10
REMARK    4  A    between atoms: N_18  and  C_19
REMARK    5  A    between atoms: C_22  and  O_23
REMARK    6  A    between atoms: O_23  and  C_24
REMARK                            x       y       z     vdW  Elec       q    Type
REMARK                         _______ _______ _______ _____ _____    ______ ____
ROOT
ATOM      1  C   UNL     1       0.581  11.107  20.121  0.00  0.00    +0.000 C 
ATOM      2  C   UNL     1       1.159  11.457  18.732  0.00  0.00    +0.000 C 
ATOM      3  C   UNL     1       1.477  10.301  17.756  0.00  0.00    +0.000 C 
ATOM      4  C   UNL     1       1.936   8.955  18.340  0.00  0.00    +0.000 C 
ATOM      5  C   UNL     1       1.514   8.773  19.750  0.00  0.00    +0.000 A 
ATOM      6  C   UNL     1       0.899   9.720  20.534  0.00  0.00    +0.000 A 
ATOM      7  C   UNL     1       0.606   9.050  21.735  0.00  0.00    +0.000 A 
ATOM      8  N   UNL     1       0.915   7.754  21.677  0.00  0.00    +0.000 NA
ATOM      9  N   UNL     1       1.568   7.606  20.493  0.00  0.00    +0.000 N 
ENDROOT
BRANCH   9  10
ATOM     10  C   UNL     1       2.158   6.357  20.167  0.00  0.00    +0.000 A 
ATOM     11  C   UNL     1       1.791   5.218  20.886  0.00  0.00    +0.000 A 
ATOM     12  C   UNL     1       2.331   3.976  20.546  0.00  0.00    +0.000 A 
ATOM     13  C   UNL     1       3.262   3.857  19.509  0.00  0.00    +0.000 A 
ATOM     14  C   UNL     1       3.697   5.009  18.859  0.00  0.00    +0.000 A 
ATOM     15  C   UNL     1       3.131   6.253  19.164  0.00  0.00    +0.000 A 
BRANCH  13  16
ATOM     16  O   UNL     1       3.703   2.591  19.279  0.00  0.00    +0.000 OA
BRANCH  16  17
ATOM     17  C   UNL     1       3.559   2.017  17.987  0.00  0.00    +0.000 C 
ATOM     18  F   UNL     1       2.328   2.147  17.451  0.00  0.00    +0.000 F 
ATOM     19  F   UNL     1       4.459   2.574  17.149  0.00  0.00    +0.000 F 
ATOM     20  F   UNL     1       3.829   0.694  18.075  0.00  0.00    +0.000 F 
ENDBRANCH  16  17
ENDBRANCH  13  16
ENDBRANCH   9  10
BRANCH   1  23
ATOM     21  C   UNL     1      -1.482  12.460  20.019  0.00  0.00    +0.000 C 
ATOM     22  O   UNL     1      -0.881  13.473  19.682  0.00  0.00    +0.000 OA
ATOM     23  N   UNL     1      -0.866  11.237  20.182  0.00  0.00    +0.000 N 
ATOM     24  H   UNL     1      -1.413  10.403  20.342  0.00  0.00    +0.000 HD
BRANCH  21  30
ATOM     25  C   UNL     1      -7.522  13.101  24.248  0.00  0.00    +0.000 C 
ATOM     26  C   UNL     1      -6.617  12.919  23.072  0.00  0.00    +0.000 A 
ATOM     27  N   UNL     1      -5.307  12.907  23.156  0.00  0.00    +0.000 NA
ATOM     28  C   UNL     1      -4.753  12.727  21.895  0.00  0.00    +0.000 A 
ATOM     29  C   UNL     1      -3.380  12.664  21.600  0.00  0.00    +0.000 A 
ATOM     30  C   UNL     1      -2.949  12.516  20.273  0.00  0.00    +0.000 A 
ATOM     31  C   UNL     1      -3.891  12.379  19.248  0.00  0.00    +0.000 A 
ATOM     32  C   UNL     1      -5.266  12.424  19.518  0.00  0.00    +0.000 A 
ATOM     33  C   UNL     1      -5.676  12.608  20.856  0.00  0.00    +0.000 A 
ATOM     34  S   UNL     1      -7.271  12.717  21.503  0.00  0.00    +0.000 S 
ENDBRANCH  21  30
ENDBRANCH   1  23
TORSDOF 5
ENDMDL
MODEL 8
REMARK VINA RESULT:      -8.1      0.990      1.187
REMARK  Name = 
REMARK  6 active torsions:
REMARK  status: ('A' for Active; 'I' for Inactive)
REMARK    1  A    between atoms: C_1  and  C_2
REMARK    2  A    between atoms: C_6  and  C_7
REMARK    3  A    between atoms: N_9  and  C_10
REMARK    4  A    between atoms: N_18  and  C_19
REMARK    5  A    between atoms: C_22  and  O_23
REMARK    6  A    between atoms: O_23  and  C_24
REMARK                            x       y       z     vdW  Elec       q    Type
REMARK                         _______ _______ _______ _____ _____    ______ ____
ROOT
ATOM      1  C   UNL     1       0.370  11.473  19.497  0.00  0.00    +0.000 C 
ATOM      2  C   UNL     1      -0.413  11.256  20.811  0.00  0.00    +0.000 C 
ATOM      3  C   UNL     1      -0.009  10.075  21.721  0.00  0.00    +0.000 C 
ATOM      4  C   UNL     1       0.541   8.798  21.063  0.00  0.00    +0.000 C 
ATOM      5  C   UNL     1       1.099   9.049  19.712  0.00  0.00    +0.000 A 
ATOM      6  C   UNL     1       1.038  10.238  19.025  0.00  0.00    +0.000 A 
ATOM      7  C   UNL     1       1.789  10.012  17.858  0.00  0.00    +0.000 A 
ATOM      8  N   UNL     1       2.367   8.811  17.856  0.00  0.00    +0.000 NA
ATOM      9  N   UNL     1       1.859   8.179  18.949  0.00  0.00    +0.000 N 
ENDROOT
BRANCH   9  10
ATOM     10  C   UNL     1       2.169   6.814  19.179  0.00  0.00    +0.000 A 
ATOM     11  C   UNL     1       2.204   6.331  20.489  0.00  0.00    +0.000 A 
ATOM     12  C   UNL     1       2.464   4.979  20.727  0.00  0.00    +0.000 A 
ATOM     13  C   UNL     1       2.721   4.101  19.669  0.00  0.00    +0.000 A 
ATOM     14  C   UNL     1       2.781   4.607  18.373  0.00  0.00    +0.000 A 
ATOM     15  C   UNL     1       2.481   5.951  18.121  0.00  0.00    +0.000 A 
BRANCH  13  16
ATOM     16  O   UNL     1       2.953   2.813  20.039  0.00  0.00    +0.000 OA
BRANCH  16  17
ATOM     17  C   UNL     1       4.243   2.247  19.857  0.00  0.00    +0.000 C 
ATOM     18  F   UNL     1       4.820   1.794  20.990  0.00  0.00    +0.000 F 
ATOM     19  F   UNL     1       4.163   1.229  18.974  0.00  0.00    +0.000 F 
ATOM     20  F   UNL     1       5.056   3.194  19.336  0.00  0.00    +0.000 F 
ENDBRANCH  16  17
ENDBRANCH  13  16
ENDBRANCH   9  10
BRANCH   1  23
ATOM     21  C   UNL     1       1.255  13.734  19.048  0.00  0.00    +0.000 C 
ATOM     22  O   UNL     1       0.208  14.115  18.536  0.00  0.00    +0.000 OA
ATOM     23  N   UNL     1       1.406  12.487  19.616  0.00  0.00    +0.000 N 
ATOM     24  H   UNL     1       2.242  12.255  20.133  0.00  0.00    +0.000 HD
BRANCH  21  30
ATOM     25  C   UNL     1       8.337  15.518  17.848  0.00  0.00    +0.000 C 
ATOM     26  C   UNL     1       6.903  15.575  18.267  0.00  0.00    +0.000 A 
ATOM     27  N   UNL     1       6.060  14.580  18.116  0.00  0.00    +0.000 NA
ATOM     28  C   UNL     1       4.807  14.944  18.594  0.00  0.00    +0.000 A 
ATOM     29  C   UNL     1       3.658  14.133  18.595  0.00  0.00    +0.000 A 
ATOM     30  C   UNL     1       2.440  14.637  19.076  0.00  0.00    +0.000 A 
ATOM     31  C   UNL     1       2.383  15.931  19.604  0.00  0.00    +0.000 A 
ATOM     32  C   UNL     1       3.518  16.753  19.628  0.00  0.00    +0.000 A 
ATOM     33  C   UNL     1       4.724  16.239  19.107  0.00  0.00    +0.000 A 
ATOM     34  S   UNL     1       6.270  16.994  18.984  0.00  0.00    +0.000 S 
ENDBRANCH  21  30
ENDBRANCH   1  23
TORSDOF 5
ENDMDL
MODEL 9
REMARK VINA RESULT:      -8.1      1.044      1.419
REMARK  Name = 
REMARK  6 active torsions:
REMARK  status: ('A' for Active; 'I' for Inactive)
REMARK    1  A    between atoms: C_1  and  C_2
REMARK    2  A    between atoms: C_6  and  C_7
REMARK    3  A    between atoms: N_9  and  C_10
REMARK    4  A    between atoms: N_18  and  C_19
REMARK    5  A    between atoms: C_22  and  O_23
REMARK    6  A    between atoms: O_23  and  C_24
REMARK                            x       y       z     vdW  Elec       q    Type
REMARK                         _______ _______ _______ _____ _____    ______ ____
ROOT
ATOM      1  C   UNL     1       0.400  11.602  19.314  0.00  0.00    +0.000 C 
ATOM      2  C   UNL     1      -0.489  11.459  20.570  0.00  0.00    +0.000 C 
ATOM      3  C   UNL     1      -0.193  10.303  21.551  0.00  0.00    +0.000 C 
ATOM      4  C   UNL     1       0.365   8.986  20.986  0.00  0.00    +0.000 C 
ATOM      5  C   UNL     1       1.034   9.169  19.675  0.00  0.00    +0.000 A 
ATOM      6  C   UNL     1       1.063  10.330  18.942  0.00  0.00    +0.000 A 
ATOM      7  C   UNL     1       1.894  10.038  17.847  0.00  0.00    +0.000 A 
ATOM      8  N   UNL     1       2.433   8.821  17.934  0.00  0.00    +0.000 NA
ATOM      9  N   UNL     1       1.823   8.248  19.006  0.00  0.00    +0.000 N 
ENDROOT
BRANCH   9  10
ATOM     10  C   UNL     1       2.071   6.884  19.310  0.00  0.00    +0.000 A 
ATOM     11  C   UNL     1       2.379   5.997  18.277  0.00  0.00    +0.000 A 
ATOM     12  C   UNL     1       2.668   4.662  18.569  0.00  0.00    +0.000 A 
ATOM     13  C   UNL     1       2.626   4.189  19.884  0.00  0.00    +0.000 A 
ATOM     14  C   UNL     1       2.224   5.054  20.898  0.00  0.00    +0.000 A 
ATOM     15  C   UNL     1       1.972   6.403  20.623  0.00  0.00    +0.000 A 
BRANCH  13  16
ATOM     16  O   UNL     1       2.934   2.872  20.028  0.00  0.00    +0.000 OA
BRANCH  16  17
ATOM     17  C   UNL     1       4.246   2.417  19.725  0.00  0.00    +0.000 C 
ATOM     18  F   UNL     1       5.113   3.394  19.389  0.00  0.00    +0.000 F 
ATOM     19  F   UNL     1       4.740   1.744  20.787  0.00  0.00    +0.000 F 
ATOM     20  F   UNL     1       4.171   1.560  18.681  0.00  0.00    +0.000 F 
ENDBRANCH  16  17
ENDBRANCH  13  16
ENDBRANCH   9  10
BRANCH   1  23
ATOM     21  C   UNL     1       1.315  13.873  18.990  0.00  0.00    +0.000 C 
ATOM     22  O   UNL     1       0.266  14.301  18.523  0.00  0.00    +0.000 OA
ATOM     23  N   UNL     1       1.455  12.590  19.477  0.00  0.00    +0.000 N 
ATOM     24  H   UNL     1       2.296  12.312  19.962  0.00  0.00    +0.000 HD
BRANCH  21  30
ATOM     25  C   UNL     1       8.415  15.596  17.812  0.00  0.00    +0.000 C 
ATOM     26  C   UNL     1       6.986  15.656  18.248  0.00  0.00    +0.000 A 
ATOM     27  N   UNL     1       6.125  14.684  18.055  0.00  0.00    +0.000 NA
ATOM     28  C   UNL     1       4.883  15.044  18.563  0.00  0.00    +0.000 A 
ATOM     29  C   UNL     1       3.721  14.254  18.534  0.00  0.00    +0.000 A 
ATOM     30  C   UNL     1       2.515  14.753  19.052  0.00  0.00    +0.000 A 
ATOM     31  C   UNL     1       2.486  16.019  19.645  0.00  0.00    +0.000 A 
ATOM     32  C   UNL     1       3.634  16.820  19.699  0.00  0.00    +0.000 A 
ATOM     33  C   UNL     1       4.827  16.313  19.141  0.00  0.00    +0.000 A 
ATOM     34  S   UNL     1       6.384  17.047  19.042  0.00  0.00    +0.000 S 
ENDBRANCH  21  30
ENDBRANCH   1  23
TORSDOF 5
ENDMDL
