MODEL 1
REMARK VINA RESULT:      -8.2      0.000      0.000
REMARK  Name = 
REMARK  4 active torsions:
REMARK  status: ('A' for Active; 'I' for Inactive)
REMARK    1  A    between atoms: N_6  and  C_7
REMARK    2  A    between atoms: C_7  and  C_8
REMARK    3  A    between atoms: C_15  and  C_16
REMARK    4  A    between atoms: C_19  and  O_20
REMARK                            x       y       z     vdW  Elec       q    Type
REMARK                         _______ _______ _______ _____ _____    ______ ____
ROOT
ATOM      1  O   UNL     1       6.218   3.552  14.161  0.00  0.00    +0.000 OA
ATOM      2  C   UNL     1       6.334   4.259  15.138  0.00  0.00    +0.000 C 
ATOM      3  N   UNL     1       7.266   5.232  15.346  0.00  0.00    +0.000 N 
ATOM      4  C   UNL     1       7.093   5.846  16.558  0.00  0.00    +0.000 C 
ATOM      5  O   UNL     1       7.776   6.771  16.963  0.00  0.00    +0.000 OA
ATOM      6  N   UNL     1       6.011   5.238  17.202  0.00  0.00    +0.000 N 
ATOM      7  C   UNL     1       5.482   4.266  16.374  0.00  0.00    +0.000 C 
ATOM      8  C   UNL     1       4.448   3.419  16.470  0.00  0.00    +0.000 C 
ATOM      9  H   UNL     1       7.974   5.492  14.682  0.00  0.00    +0.000 HD
ENDROOT
BRANCH   8  10
ATOM     10  C   UNL     1       3.477   3.241  17.550  0.00  0.00    +0.000 A 
ATOM     11  C   UNL     1       2.150   3.652  17.391  0.00  0.00    +0.000 A 
ATOM     12  C   UNL     1       1.226   3.479  18.428  0.00  0.00    +0.000 A 
ATOM     13  C   UNL     1       1.636   2.892  19.621  0.00  0.00    +0.000 A 
ATOM     14  C   UNL     1       2.940   2.444  19.778  0.00  0.00    +0.000 A 
ATOM     15  C   UNL     1       3.859   2.606  18.737  0.00  0.00    +0.000 A 
BRANCH  13  16
ATOM     16  O   UNL     1       0.786   2.751  20.677  0.00  0.00    +0.000 OA
ATOM     17  H   UNL     1      -0.104   2.560  20.338  0.00  0.00    +0.000 HD
ENDBRANCH  13  16
ENDBRANCH   8  10
BRANCH   6  18
ATOM     18  C   UNL     1       5.556   5.691  18.497  0.00  0.00    +0.000 C 
BRANCH  18  19
ATOM     19  C   UNL     1       4.257   6.462  18.508  0.00  0.00    +0.000 A 
ATOM     20  C   UNL     1       3.893   7.348  17.482  0.00  0.00    +0.000 A 
ATOM     21  C   UNL     1       2.730   8.115  17.587  0.00  0.00    +0.000 A 
ATOM     22  C   UNL     1       1.896   7.973  18.695  0.00  0.00    +0.000 A 
ATOM     23  C   UNL     1       2.210   7.048  19.688  0.00  0.00    +0.000 A 
ATOM     24  C   UNL     1       3.378   6.291  19.591  0.00  0.00    +0.000 A 
ENDBRANCH  18  19
ENDBRANCH   6  18
TORSDOF 4
ENDMDL
MODEL 2
REMARK VINA RESULT:      -8.2      0.130      1.037
REMARK  Name = 
REMARK  4 active torsions:
REMARK  status: ('A' for Active; 'I' for Inactive)
REMARK    1  A    between atoms: N_6  and  C_7
REMARK    2  A    between atoms: C_7  and  C_8
REMARK    3  A    between atoms: C_15  and  C_16
REMARK    4  A    between atoms: C_19  and  O_20
REMARK                            x       y       z     vdW  Elec       q    Type
REMARK                         _______ _______ _______ _____ _____    ______ ____
ROOT
ATOM      1  O   UNL     1       6.039   3.612  14.012  0.00  0.00    +0.000 OA
ATOM      2  C   UNL     1       6.200   4.298  14.997  0.00  0.00    +0.000 C 
ATOM      3  N   UNL     1       7.156   5.250  15.193  0.00  0.00    +0.000 N 
ATOM      4  C   UNL     1       7.033   5.844  16.420  0.00  0.00    +0.000 C 
ATOM      5  O   UNL     1       7.745   6.749  16.821  0.00  0.00    +0.000 OA
ATOM      6  N   UNL     1       5.960   5.244  17.088  0.00  0.00    +0.000 N 
ATOM      7  C   UNL     1       5.387   4.297  16.260  0.00  0.00    +0.000 C 
ATOM      8  C   UNL     1       4.341   3.468  16.374  0.00  0.00    +0.000 C 
ATOM      9  H   UNL     1       7.846   5.510  14.512  0.00  0.00    +0.000 HD
ENDROOT
BRANCH   8  10
ATOM     10  C   UNL     1       3.402   3.287  17.480  0.00  0.00    +0.000 A 
ATOM     11  C   UNL     1       3.803   2.653  18.661  0.00  0.00    +0.000 A 
ATOM     12  C   UNL     1       2.899   2.483  19.716  0.00  0.00    +0.000 A 
ATOM     13  C   UNL     1       1.595   2.950  19.585  0.00  0.00    +0.000 A 
ATOM     14  C   UNL     1       1.195   3.616  18.434  0.00  0.00    +0.000 A 
ATOM     15  C   UNL     1       2.102   3.796  17.386  0.00  0.00    +0.000 A 
BRANCH  13  16
ATOM     16  O   UNL     1       0.666   2.761  20.563  0.00  0.00    +0.000 OA
ATOM     17  H   UNL     1       0.321   1.856  20.495  0.00  0.00    +0.000 HD
ENDBRANCH  13  16
ENDBRANCH   8  10
BRANCH   6  18
ATOM     18  C   UNL     1       5.555   5.681  18.404  0.00  0.00    +0.000 C 
BRANCH  18  19
ATOM     19  C   UNL     1       4.261   6.457  18.474  0.00  0.00    +0.000 A 
ATOM     20  C   UNL     1       3.863   7.357  17.473  0.00  0.00    +0.000 A 
ATOM     21  C   UNL     1       2.709   8.128  17.631  0.00  0.00    +0.000 A 
ATOM     22  C   UNL     1       1.916   7.976  18.768  0.00  0.00    +0.000 A 
ATOM     23  C   UNL     1       2.263   7.038  19.737  0.00  0.00    +0.000 A 
ATOM     24  C   UNL     1       3.423   6.277  19.588  0.00  0.00    +0.000 A 
ENDBRANCH  18  19
ENDBRANCH   6  18
TORSDOF 4
ENDMDL
MODEL 3
REMARK VINA RESULT:      -8.0      0.147      1.040
REMARK  Name = 
REMARK  4 active torsions:
REMARK  status: ('A' for Active; 'I' for Inactive)
REMARK    1  A    between atoms: N_6  and  C_7
REMARK    2  A    between atoms: C_7  and  C_8
REMARK    3  A    between atoms: C_15  and  C_16
REMARK    4  A    between atoms: C_19  and  O_20
REMARK                            x       y       z     vdW  Elec       q    Type
REMARK                         _______ _______ _______ _____ _____    ______ ____
ROOT
ATOM      1  O   UNL     1       5.966   3.632  13.995  0.00  0.00    +0.000 OA
ATOM      2  C   UNL     1       6.159   4.295  14.991  0.00  0.00    +0.000 C 
ATOM      3  N   UNL     1       7.137   5.225  15.187  0.00  0.00    +0.000 N 
ATOM      4  C   UNL     1       7.050   5.795  16.428  0.00  0.00    +0.000 C 
ATOM      5  O   UNL     1       7.787   6.678  16.832  0.00  0.00    +0.000 OA
ATOM      6  N   UNL     1       5.980   5.201  17.105  0.00  0.00    +0.000 N 
ATOM      7  C   UNL     1       5.372   4.282  16.269  0.00  0.00    +0.000 C 
ATOM      8  C   UNL     1       4.313   3.470  16.388  0.00  0.00    +0.000 C 
ATOM      9  H   UNL     1       7.818   5.486  14.497  0.00  0.00    +0.000 HD
ENDROOT
BRANCH   8  10
ATOM     10  C   UNL     1       3.393   3.284  17.509  0.00  0.00    +0.000 A 
ATOM     11  C   UNL     1       2.070   3.729  17.429  0.00  0.00    +0.000 A 
ATOM     12  C   UNL     1       1.195   3.548  18.505  0.00  0.00    +0.000 A 
ATOM     13  C   UNL     1       1.648   2.920  19.660  0.00  0.00    +0.000 A 
ATOM     14  C   UNL     1       2.948   2.438  19.740  0.00  0.00    +0.000 A 
ATOM     15  C   UNL     1       3.817   2.608  18.659  0.00  0.00    +0.000 A 
BRANCH  13  16
ATOM     16  O   UNL     1       0.848   2.768  20.753  0.00  0.00    +0.000 OA
ATOM     17  H   UNL     1       0.082   3.356  20.663  0.00  0.00    +0.000 HD
ENDBRANCH  13  16
ENDBRANCH   8  10
BRANCH   6  18
ATOM     18  C   UNL     1       5.609   5.618  18.438  0.00  0.00    +0.000 C 
BRANCH  18  19
ATOM     19  C   UNL     1       4.327   6.408  18.551  0.00  0.00    +0.000 A 
ATOM     20  C   UNL     1       3.447   6.272  19.637  0.00  0.00    +0.000 A 
ATOM     21  C   UNL     1       2.224   6.948  19.646  0.00  0.00    +0.000 A 
ATOM     22  C   UNL     1       1.887   7.801  18.596  0.00  0.00    +0.000 A 
ATOM     23  C   UNL     1       2.781   7.997  17.547  0.00  0.00    +0.000 A 
ATOM     24  C   UNL     1       3.997   7.312  17.528  0.00  0.00    +0.000 A 
ENDBRANCH  18  19
ENDBRANCH   6  18
TORSDOF 4
ENDMDL
MODEL 4
REMARK VINA RESULT:      -8.0      0.148      1.462
REMARK  Name = 
REMARK  4 active torsions:
REMARK  status: ('A' for Active; 'I' for Inactive)
REMARK    1  A    between atoms: N_6  and  C_7
REMARK    2  A    between atoms: C_7  and  C_8
REMARK    3  A    between atoms: C_15  and  C_16
REMARK    4  A    between atoms: C_19  and  O_20
REMARK                            x       y       z     vdW  Elec       q    Type
REMARK                         _______ _______ _______ _____ _____    ______ ____
ROOT
ATOM      1  O   UNL     1       5.989   3.632  13.979  0.00  0.00    +0.000 OA
ATOM      2  C   UNL     1       6.181   4.293  14.976  0.00  0.00    +0.000 C 
ATOM      3  N   UNL     1       7.156   5.225  15.174  0.00  0.00    +0.000 N 
ATOM      4  C   UNL     1       7.067   5.792  16.417  0.00  0.00    +0.000 C 
ATOM      5  O   UNL     1       7.802   6.676  16.823  0.00  0.00    +0.000 OA
ATOM      6  N   UNL     1       5.999   5.193  17.093  0.00  0.00    +0.000 N 
ATOM      7  C   UNL     1       5.394   4.274  16.254  0.00  0.00    +0.000 C 
ATOM      8  C   UNL     1       4.338   3.459  16.371  0.00  0.00    +0.000 C 
ATOM      9  H   UNL     1       7.837   5.489  14.485  0.00  0.00    +0.000 HD
ENDROOT
BRANCH   8  10
ATOM     10  C   UNL     1       3.418   3.267  17.492  0.00  0.00    +0.000 A 
ATOM     11  C   UNL     1       3.843   2.631  18.663  0.00  0.00    +0.000 A 
ATOM     12  C   UNL     1       2.958   2.450  19.732  0.00  0.00    +0.000 A 
ATOM     13  C   UNL     1       1.649   2.908  19.625  0.00  0.00    +0.000 A 
ATOM     14  C   UNL     1       1.225   3.576  18.484  0.00  0.00    +0.000 A 
ATOM     15  C   UNL     1       2.114   3.767  17.422  0.00  0.00    +0.000 A 
BRANCH  13  16
ATOM     16  O   UNL     1       0.738   2.708  20.618  0.00  0.00    +0.000 OA
ATOM     17  H   UNL     1      -0.107   2.446  20.217  0.00  0.00    +0.000 HD
ENDBRANCH  13  16
ENDBRANCH   8  10
BRANCH   6  18
ATOM     18  C   UNL     1       5.627   5.605  18.427  0.00  0.00    +0.000 C 
BRANCH  18  19
ATOM     19  C   UNL     1       4.349   6.403  18.540  0.00  0.00    +0.000 A 
ATOM     20  C   UNL     1       3.470   6.273  19.627  0.00  0.00    +0.000 A 
ATOM     21  C   UNL     1       2.251   6.955  19.637  0.00  0.00    +0.000 A 
ATOM     22  C   UNL     1       1.917   7.808  18.586  0.00  0.00    +0.000 A 
ATOM     23  C   UNL     1       2.810   7.997  17.535  0.00  0.00    +0.000 A 
ATOM     24  C   UNL     1       4.022   7.306  17.515  0.00  0.00    +0.000 A 
ENDBRANCH  18  19
ENDBRANCH   6  18
TORSDOF 4
ENDMDL
MODEL 5
REMARK VINA RESULT:      -7.5      2.351      5.126
REMARK  Name = 
REMARK  4 active torsions:
REMARK  status: ('A' for Active; 'I' for Inactive)
REMARK    1  A    between atoms: N_6  and  C_7
REMARK    2  A    between atoms: C_7  and  C_8
REMARK    3  A    between atoms: C_15  and  C_16
REMARK    4  A    between atoms: C_19  and  O_20
REMARK                            x       y       z     vdW  Elec       q    Type
REMARK                         _______ _______ _______ _____ _____    ______ ____
ROOT
ATOM      1  O   UNL     1       2.415   1.919  17.156  0.00  0.00    +0.000 OA
ATOM      2  C   UNL     1       2.251   2.795  17.976  0.00  0.00    +0.000 C 
ATOM      3  N   UNL     1       1.190   2.950  18.819  0.00  0.00    +0.000 N 
ATOM      4  C   UNL     1       1.342   4.044  19.627  0.00  0.00    +0.000 C 
ATOM      5  O   UNL     1       0.548   4.378  20.490  0.00  0.00    +0.000 OA
ATOM      6  N   UNL     1       2.548   4.668  19.291  0.00  0.00    +0.000 N 
ATOM      7  C   UNL     1       3.172   3.937  18.296  0.00  0.00    +0.000 C 
ATOM      8  C   UNL     1       4.332   4.058  17.638  0.00  0.00    +0.000 C 
ATOM      9  H   UNL     1       0.408   2.322  18.867  0.00  0.00    +0.000 HD
ENDROOT
BRANCH   8  10
ATOM     10  C   UNL     1       5.388   5.060  17.771  0.00  0.00    +0.000 A 
ATOM     11  C   UNL     1       6.376   4.931  18.752  0.00  0.00    +0.000 A 
ATOM     12  C   UNL     1       7.384   5.894  18.875  0.00  0.00    +0.000 A 
ATOM     13  C   UNL     1       7.399   6.985  18.012  0.00  0.00    +0.000 A 
ATOM     14  C   UNL     1       6.447   7.106  17.008  0.00  0.00    +0.000 A 
ATOM     15  C   UNL     1       5.449   6.137  16.879  0.00  0.00    +0.000 A 
BRANCH  13  16
ATOM     16  O   UNL     1       8.329   7.975  18.126  0.00  0.00    +0.000 OA
ATOM     17  H   UNL     1       9.213   7.580  18.060  0.00  0.00    +0.000 HD
ENDBRANCH  13  16
ENDBRANCH   8  10
BRANCH   6  18
ATOM     18  C   UNL     1       3.010   5.842  19.997  0.00  0.00    +0.000 C 
BRANCH  18  19
ATOM     19  C   UNL     1       2.389   7.153  19.576  0.00  0.00    +0.000 A 
ATOM     20  C   UNL     1       1.662   7.965  20.460  0.00  0.00    +0.000 A 
ATOM     21  C   UNL     1       1.020   9.116  19.999  0.00  0.00    +0.000 A 
ATOM     22  C   UNL     1       1.135   9.495  18.662  0.00  0.00    +0.000 A 
ATOM     23  C   UNL     1       1.909   8.734  17.789  0.00  0.00    +0.000 A 
ATOM     24  C   UNL     1       2.540   7.576  18.244  0.00  0.00    +0.000 A 
ENDBRANCH  18  19
ENDBRANCH   6  18
TORSDOF 4
ENDMDL
MODEL 6
REMARK VINA RESULT:      -7.5      2.354      5.050
REMARK  Name = 
REMARK  4 active torsions:
REMARK  status: ('A' for Active; 'I' for Inactive)
REMARK    1  A    between atoms: N_6  and  C_7
REMARK    2  A    between atoms: C_7  and  C_8
REMARK    3  A    between atoms: C_15  and  C_16
REMARK    4  A    between atoms: C_19  and  O_20
REMARK                            x       y       z     vdW  Elec       q    Type
REMARK                         _______ _______ _______ _____ _____    ______ ____
ROOT
ATOM      1  O   UNL     1       2.398   1.826  17.230  0.00  0.00    +0.000 OA
ATOM      2  C   UNL     1       2.245   2.727  18.025  0.00  0.00    +0.000 C 
ATOM      3  N   UNL     1       1.211   2.891  18.898  0.00  0.00    +0.000 N 
ATOM      4  C   UNL     1       1.369   4.016  19.663  0.00  0.00    +0.000 C 
ATOM      5  O   UNL     1       0.597   4.364  20.541  0.00  0.00    +0.000 OA
ATOM      6  N   UNL     1       2.551   4.648  19.266  0.00  0.00    +0.000 N 
ATOM      7  C   UNL     1       3.154   3.895  18.275  0.00  0.00    +0.000 C 
ATOM      8  C   UNL     1       4.290   4.013  17.574  0.00  0.00    +0.000 C 
ATOM      9  H   UNL     1       0.442   2.252  18.994  0.00  0.00    +0.000 HD
ENDROOT
BRANCH   8  10
ATOM     10  C   UNL     1       5.331   5.038  17.638  0.00  0.00    +0.000 A 
ATOM     11  C   UNL     1       6.465   4.856  18.436  0.00  0.00    +0.000 A 
ATOM     12  C   UNL     1       7.457   5.841  18.493  0.00  0.00    +0.000 A 
ATOM     13  C   UNL     1       7.311   7.006  17.747  0.00  0.00    +0.000 A 
ATOM     14  C   UNL     1       6.209   7.184  16.920  0.00  0.00    +0.000 A 
ATOM     15  C   UNL     1       5.225   6.193  16.855  0.00  0.00    +0.000 A 
BRANCH  13  16
ATOM     16  O   UNL     1       8.224   8.016  17.811  0.00  0.00    +0.000 OA
ATOM     17  H   UNL     1       8.319   8.292  18.736  0.00  0.00    +0.000 HD
ENDBRANCH  13  16
ENDBRANCH   8  10
BRANCH   6  18
ATOM     18  C   UNL     1       3.014   5.853  19.915  0.00  0.00    +0.000 C 
BRANCH  18  19
ATOM     19  C   UNL     1       2.345   7.137  19.482  0.00  0.00    +0.000 A 
ATOM     20  C   UNL     1       2.423   7.625  18.169  0.00  0.00    +0.000 A 
ATOM     21  C   UNL     1       1.876   8.867  17.841  0.00  0.00    +0.000 A 
ATOM     22  C   UNL     1       1.205   9.614  18.809  0.00  0.00    +0.000 A 
ATOM     23  C   UNL     1       1.062   9.110  20.099  0.00  0.00    +0.000 A 
ATOM     24  C   UNL     1       1.620   7.876  20.432  0.00  0.00    +0.000 A 
ENDBRANCH  18  19
ENDBRANCH   6  18
TORSDOF 4
ENDMDL
MODEL 7
REMARK VINA RESULT:      -7.4      2.347      4.932
REMARK  Name = 
REMARK  4 active torsions:
REMARK  status: ('A' for Active; 'I' for Inactive)
REMARK    1  A    between atoms: N_6  and  C_7
REMARK    2  A    between atoms: C_7  and  C_8
REMARK    3  A    between atoms: C_15  and  C_16
REMARK    4  A    between atoms: C_19  and  O_20
REMARK                            x       y       z     vdW  Elec       q    Type
REMARK                         _______ _______ _______ _____ _____    ______ ____
ROOT
ATOM      1  O   UNL     1       2.451   1.854  17.101  0.00  0.00    +0.000 OA
ATOM      2  C   UNL     1       2.269   2.727  17.921  0.00  0.00    +0.000 C 
ATOM      3  N   UNL     1       1.208   2.858  18.766  0.00  0.00    +0.000 N 
ATOM      4  C   UNL     1       1.337   3.957  19.572  0.00  0.00    +0.000 C 
ATOM      5  O   UNL     1       0.537   4.274  20.437  0.00  0.00    +0.000 OA
ATOM      6  N   UNL     1       2.527   4.608  19.233  0.00  0.00    +0.000 N 
ATOM      7  C   UNL     1       3.165   3.890  18.236  0.00  0.00    +0.000 C 
ATOM      8  C   UNL     1       4.320   4.036  17.575  0.00  0.00    +0.000 C 
ATOM      9  H   UNL     1       0.440   2.213  18.818  0.00  0.00    +0.000 HD
ENDROOT
BRANCH   8  10
ATOM     10  C   UNL     1       5.354   5.063  17.704  0.00  0.00    +0.000 A 
ATOM     11  C   UNL     1       5.320   6.213  16.910  0.00  0.00    +0.000 A 
ATOM     12  C   UNL     1       6.312   7.192  17.038  0.00  0.00    +0.000 A 
ATOM     13  C   UNL     1       7.335   7.015  17.964  0.00  0.00    +0.000 A 
ATOM     14  C   UNL     1       7.360   5.896  18.786  0.00  0.00    +0.000 A 
ATOM     15  C   UNL     1       6.361   4.926  18.666  0.00  0.00    +0.000 A 
BRANCH  13  16
ATOM     16  O   UNL     1       8.352   7.914  18.088  0.00  0.00    +0.000 OA
ATOM     17  H   UNL     1       8.112   8.723  17.607  0.00  0.00    +0.000 HD
ENDBRANCH  13  16
ENDBRANCH   8  10
BRANCH   6  18
ATOM     18  C   UNL     1       2.964   5.792  19.935  0.00  0.00    +0.000 C 
BRANCH  18  19
ATOM     19  C   UNL     1       2.332   7.092  19.496  0.00  0.00    +0.000 A 
ATOM     20  C   UNL     1       2.419   7.569  18.179  0.00  0.00    +0.000 A 
ATOM     21  C   UNL     1       1.908   8.826  17.845  0.00  0.00    +0.000 A 
ATOM     22  C   UNL     1       1.264   9.598  18.810  0.00  0.00    +0.000 A 
ATOM     23  C   UNL     1       1.110   9.107  20.105  0.00  0.00    +0.000 A 
ATOM     24  C   UNL     1       1.633   7.859  20.444  0.00  0.00    +0.000 A 
ENDBRANCH  18  19
ENDBRANCH   6  18
TORSDOF 4
ENDMDL
MODEL 8
REMARK VINA RESULT:      -7.4      2.350      5.014
REMARK  Name = 
REMARK  4 active torsions:
REMARK  status: ('A' for Active; 'I' for Inactive)
REMARK    1  A    between atoms: N_6  and  C_7
REMARK    2  A    between atoms: C_7  and  C_8
REMARK    3  A    between atoms: C_15  and  C_16
REMARK    4  A    between atoms: C_19  and  O_20
REMARK                            x       y       z     vdW  Elec       q    Type
REMARK                         _______ _______ _______ _____ _____    ______ ____
ROOT
ATOM      1  O   UNL     1       2.415   1.924  17.057  0.00  0.00    +0.000 OA
ATOM      2  C   UNL     1       2.246   2.775  17.903  0.00  0.00    +0.000 C 
ATOM      3  N   UNL     1       1.184   2.899  18.749  0.00  0.00    +0.000 N 
ATOM      4  C   UNL     1       1.330   3.970  19.589  0.00  0.00    +0.000 C 
ATOM      5  O   UNL     1       0.533   4.274  20.461  0.00  0.00    +0.000 OA
ATOM      6  N   UNL     1       2.534   4.608  19.274  0.00  0.00    +0.000 N 
ATOM      7  C   UNL     1       3.161   3.911  18.258  0.00  0.00    +0.000 C 
ATOM      8  C   UNL     1       4.322   4.055  17.605  0.00  0.00    +0.000 C 
ATOM      9  H   UNL     1       0.404   2.267  18.777  0.00  0.00    +0.000 HD
ENDROOT
BRANCH   8  10
ATOM     10  C   UNL     1       5.374   5.058  17.770  0.00  0.00    +0.000 A 
ATOM     11  C   UNL     1       5.437   6.172  16.927  0.00  0.00    +0.000 A 
ATOM     12  C   UNL     1       6.446   7.128  17.089  0.00  0.00    +0.000 A 
ATOM     13  C   UNL     1       7.389   6.965  18.099  0.00  0.00    +0.000 A 
ATOM     14  C   UNL     1       7.316   5.885  18.968  0.00  0.00    +0.000 A 
ATOM     15  C   UNL     1       6.300   4.937  18.812  0.00  0.00    +0.000 A 
BRANCH  13  16
ATOM     16  O   UNL     1       8.420   7.841  18.262  0.00  0.00    +0.000 OA
ATOM     17  H   UNL     1       8.113   8.587  18.801  0.00  0.00    +0.000 HD
ENDBRANCH  13  16
ENDBRANCH   8  10
BRANCH   6  18
ATOM     18  C   UNL     1       2.989   5.762  20.015  0.00  0.00    +0.000 C 
BRANCH  18  19
ATOM     19  C   UNL     1       2.396   7.089  19.603  0.00  0.00    +0.000 A 
ATOM     20  C   UNL     1       1.683   7.907  20.493  0.00  0.00    +0.000 A 
ATOM     21  C   UNL     1       1.065   9.076  20.040  0.00  0.00    +0.000 A 
ATOM     22  C   UNL     1       1.191   9.462  18.706  0.00  0.00    +0.000 A 
ATOM     23  C   UNL     1       1.953   8.694  17.829  0.00  0.00    +0.000 A 
ATOM     24  C   UNL     1       2.559   7.519  18.276  0.00  0.00    +0.000 A 
ENDBRANCH  18  19
ENDBRANCH   6  18
TORSDOF 4
ENDMDL
MODEL 9
REMARK VINA RESULT:      -7.3      1.955      2.298
REMARK  Name = 
REMARK  4 active torsions:
REMARK  status: ('A' for Active; 'I' for Inactive)
REMARK    1  A    between atoms: N_6  and  C_7
REMARK    2  A    between atoms: C_7  and  C_8
REMARK    3  A    between atoms: C_15  and  C_16
REMARK    4  A    between atoms: C_19  and  O_20
REMARK                            x       y       z     vdW  Elec       q    Type
REMARK                         _______ _______ _______ _____ _____    ______ ____
ROOT
ATOM      1  O   UNL     1       8.264   4.956  19.471  0.00  0.00    +0.000 OA
ATOM      2  C   UNL     1       7.440   5.563  18.823  0.00  0.00    +0.000 C 
ATOM      3  N   UNL     1       7.615   6.742  18.160  0.00  0.00    +0.000 N 
ATOM      4  C   UNL     1       6.471   7.134  17.517  0.00  0.00    +0.000 C 
ATOM      5  O   UNL     1       6.380   8.135  16.827  0.00  0.00    +0.000 OA
ATOM      6  N   UNL     1       5.477   6.187  17.783  0.00  0.00    +0.000 N 
ATOM      7  C   UNL     1       6.011   5.179  18.565  0.00  0.00    +0.000 C 
ATOM      8  C   UNL     1       5.528   4.039  19.076  0.00  0.00    +0.000 C 
ATOM      9  H   UNL     1       8.482   7.246  18.119  0.00  0.00    +0.000 HD
ENDROOT
BRANCH   8  10
ATOM     10  C   UNL     1       4.195   3.448  18.960  0.00  0.00    +0.000 A 
ATOM     11  C   UNL     1       3.763   2.891  17.753  0.00  0.00    +0.000 A 
ATOM     12  C   UNL     1       2.487   2.328  17.649  0.00  0.00    +0.000 A 
ATOM     13  C   UNL     1       1.646   2.323  18.757  0.00  0.00    +0.000 A 
ATOM     14  C   UNL     1       2.077   2.837  19.973  0.00  0.00    +0.000 A 
ATOM     15  C   UNL     1       3.357   3.389  20.078  0.00  0.00    +0.000 A 
BRANCH  13  16
ATOM     16  O   UNL     1       0.376   1.834  18.690  0.00  0.00    +0.000 OA
ATOM     17  H   UNL     1       0.419   0.870  18.585  0.00  0.00    +0.000 HD
ENDBRANCH  13  16
ENDBRANCH   8  10
BRANCH   6  18
ATOM     18  C   UNL     1       4.155   6.305  17.211  0.00  0.00    +0.000 C 
BRANCH  18  19
ATOM     19  C   UNL     1       3.172   7.150  17.987  0.00  0.00    +0.000 A 
ATOM     20  C   UNL     1       2.631   8.341  17.478  0.00  0.00    +0.000 A 
ATOM     21  C   UNL     1       1.807   9.141  18.272  0.00  0.00    +0.000 A 
ATOM     22  C   UNL     1       1.476   8.739  19.565  0.00  0.00    +0.000 A 
ATOM     23  C   UNL     1       1.950   7.525  20.058  0.00  0.00    +0.000 A 
ATOM     24  C   UNL     1       2.786   6.732  19.271  0.00  0.00    +0.000 A 
ENDBRANCH  18  19
ENDBRANCH   6  18
TORSDOF 4
ENDMDL
