MODEL 1
REMARK VINA RESULT:      -8.0      0.000      0.000
REMARK  Name = 
REMARK  9 active torsions:
REMARK  status: ('A' for Active; 'I' for Inactive)
REMARK    1  A    between atoms: C_1  and  O_2
REMARK    2  A    between atoms: O_2  and  C_3
REMARK    3  A    between atoms: C_6  and  N_7
REMARK    4  A    between atoms: N_7  and  C_8
REMARK    5  A    between atoms: C_11  and  C_12
REMARK    6  A    between atoms: C_12  and  N_13
REMARK    7  A    between atoms: C_17  and  C_18
REMARK    8  A    between atoms: C_23  and  C_24
REMARK    9  A    between atoms: C_26  and  C_27
REMARK                            x       y       z     vdW  Elec       q    Type
REMARK                         _______ _______ _______ _____ _____    ______ ____
ROOT
ATOM      1  C   UNL     1       0.365  12.230  18.728  0.00  0.00    +0.000 A 
ATOM      2  N   UNL     1       1.691  11.936  18.584  0.00  0.00    +0.000 NA
ATOM      3  C   UNL     1       2.078  10.677  18.286  0.00  0.00    +0.000 A 
ATOM      4  C   UNL     1       1.199   9.628  18.148  0.00  0.00    +0.000 A 
ATOM      5  C   UNL     1      -0.156   9.953  18.256  0.00  0.00    +0.000 A 
ATOM      6  C   UNL     1      -0.629  11.274  18.477  0.00  0.00    +0.000 A 
ENDROOT
BRANCH   6   7
ATOM      7  C   UNL     1      -2.081  11.537  18.421  0.00  0.00    +0.000 A 
ATOM      8  N   UNL     1      -2.759  12.040  19.505  0.00  0.00    +0.000 NA
ATOM      9  C   UNL     1      -4.107  12.226  19.410  0.00  0.00    +0.000 A 
ATOM     10  C   UNL     1      -4.846  12.771  20.595  0.00  0.00    +0.000 C 
ATOM     11  N   UNL     1      -4.891  11.968  18.333  0.00  0.00    +0.000 NA
ATOM     12  C   UNL     1      -4.182  11.493  17.307  0.00  0.00    +0.000 A 
ATOM     13  N   UNL     1      -4.666  11.120  16.086  0.00  0.00    +0.000 N 
ATOM     14  C   UNL     1      -3.612  10.679  15.340  0.00  0.00    +0.000 A 
ATOM     15  N   UNL     1      -2.483  10.760  16.006  0.00  0.00    +0.000 NA
ATOM     16  C   UNL     1      -2.821  11.259  17.255  0.00  0.00    +0.000 A 
ATOM     17  H   UNL     1      -5.636  11.148  15.810  0.00  0.00    +0.000 HD
ENDBRANCH   6   7
BRANCH   1  18
ATOM     18  N   UNL     1       0.058  13.561  19.133  0.00  0.00    +0.000 N 
ATOM     19  H   UNL     1      -0.689  13.919  18.533  0.00  0.00    +0.000 HD
BRANCH  18  23
ATOM     20  C   UNL     1      -0.775  14.387  23.146  0.00  0.00    +0.000 A 
ATOM     21  C   UNL     1      -1.240  15.271  22.183  0.00  0.00    +0.000 A 
ATOM     22  C   UNL     1      -0.976  14.998  20.836  0.00  0.00    +0.000 A 
ATOM     23  C   UNL     1      -0.235  13.865  20.492  0.00  0.00    +0.000 A 
ATOM     24  C   UNL     1       0.113  13.012  21.546  0.00  0.00    +0.000 A 
ATOM     25  N   UNL     1      -0.138  13.239  22.857  0.00  0.00    +0.000 NA
BRANCH  20  27
ATOM     26  C   UNL     1      -2.312  15.215  24.678  0.00  0.00    +0.000 C 
ATOM     27  O   UNL     1      -0.991  14.714  24.469  0.00  0.00    +0.000 OA
ENDBRANCH  20  27
ENDBRANCH  18  23
ENDBRANCH   1  18
BRANCH   4  28
ATOM     28  C   UNL     1       1.638   8.227  17.793  0.00  0.00    +0.000 C 
BRANCH  28  29
ATOM     29  N   UNL     1       2.784   7.740  18.572  0.00  0.00    +0.000 NA
ATOM     30  C   UNL     1       2.434   7.269  19.926  0.00  0.00    +0.000 C 
ATOM     31  C   UNL     1       1.704   5.911  20.011  0.00  0.00    +0.000 C 
ATOM     32  N   UNL     1       2.278   4.859  19.169  0.00  0.00    +0.000 N 
ATOM     33  C   UNL     1       1.932   3.514  19.287  0.00  0.00    +0.000 C 
ATOM     34  C   UNL     1       1.068   3.088  20.449  0.00  0.00    +0.000 C 
ATOM     35  O   UNL     1       2.317   2.665  18.479  0.00  0.00    +0.000 OA
ATOM     36  C   UNL     1       2.815   5.278  17.873  0.00  0.00    +0.000 C 
ATOM     37  C   UNL     1       3.507   6.653  17.877  0.00  0.00    +0.000 C 
ENDBRANCH  28  29
ENDBRANCH   4  28
TORSDOF 6
ENDMDL
MODEL 2
REMARK VINA RESULT:      -7.8      1.624      1.783
REMARK  Name = 
REMARK  9 active torsions:
REMARK  status: ('A' for Active; 'I' for Inactive)
REMARK    1  A    between atoms: C_1  and  O_2
REMARK    2  A    between atoms: O_2  and  C_3
REMARK    3  A    between atoms: C_6  and  N_7
REMARK    4  A    between atoms: N_7  and  C_8
REMARK    5  A    between atoms: C_11  and  C_12
REMARK    6  A    between atoms: C_12  and  N_13
REMARK    7  A    between atoms: C_17  and  C_18
REMARK    8  A    between atoms: C_23  and  C_24
REMARK    9  A    between atoms: C_26  and  C_27
REMARK                            x       y       z     vdW  Elec       q    Type
REMARK                         _______ _______ _______ _____ _____    ______ ____
ROOT
ATOM      1  C   UNL     1      -0.506  11.915  19.314  0.00  0.00    +0.000 A 
ATOM      2  N   UNL     1       0.829  11.744  19.546  0.00  0.00    +0.000 NA
ATOM      3  C   UNL     1       1.469  10.661  19.053  0.00  0.00    +0.000 A 
ATOM      4  C   UNL     1       0.837   9.668  18.341  0.00  0.00    +0.000 A 
ATOM      5  C   UNL     1      -0.518   9.879  18.076  0.00  0.00    +0.000 A 
ATOM      6  C   UNL     1      -1.225  11.041  18.487  0.00  0.00    +0.000 A 
ENDROOT
BRANCH   6   7
ATOM      7  C   UNL     1      -2.613  11.240  18.025  0.00  0.00    +0.000 A 
ATOM      8  N   UNL     1      -3.580  11.745  18.861  0.00  0.00    +0.000 NA
ATOM      9  C   UNL     1      -4.855  11.870  18.392  0.00  0.00    +0.000 A 
ATOM     10  C   UNL     1      -5.909  12.419  19.307  0.00  0.00    +0.000 C 
ATOM     11  N   UNL     1      -5.303  11.548  17.153  0.00  0.00    +0.000 NA
ATOM     12  C   UNL     1      -4.324  11.073  16.381  0.00  0.00    +0.000 A 
ATOM     13  N   UNL     1      -4.440  10.644  15.090  0.00  0.00    +0.000 N 
ATOM     14  C   UNL     1      -3.207  10.226  14.680  0.00  0.00    +0.000 A 
ATOM     15  N   UNL     1      -2.309  10.375  15.626  0.00  0.00    +0.000 NA
ATOM     16  C   UNL     1      -2.994  10.896  16.713  0.00  0.00    +0.000 A 
ATOM     17  H   UNL     1      -5.297  10.622  14.558  0.00  0.00    +0.000 HD
ENDBRANCH   6   7
BRANCH   1  18
ATOM     18  N   UNL     1      -1.114  13.036  19.949  0.00  0.00    +0.000 N 
ATOM     19  H   UNL     1      -1.690  13.527  19.261  0.00  0.00    +0.000 HD
BRANCH  18  23
ATOM     20  C   UNL     1      -3.295  12.661  23.497  0.00  0.00    +0.000 A 
ATOM     21  C   UNL     1      -2.251  11.776  23.271  0.00  0.00    +0.000 A 
ATOM     22  C   UNL     1      -1.508  11.900  22.091  0.00  0.00    +0.000 A 
ATOM     23  C   UNL     1      -1.844  12.886  21.162  0.00  0.00    +0.000 A 
ATOM     24  C   UNL     1      -2.868  13.765  21.538  0.00  0.00    +0.000 A 
ATOM     25  N   UNL     1      -3.597  13.681  22.675  0.00  0.00    +0.000 NA
BRANCH  20  27
ATOM     26  C   UNL     1      -5.442  12.695  24.381  0.00  0.00    +0.000 C 
ATOM     27  O   UNL     1      -4.054  12.476  24.635  0.00  0.00    +0.000 OA
ENDBRANCH  20  27
ENDBRANCH  18  23
ENDBRANCH   1  18
BRANCH   4  28
ATOM     28  C   UNL     1       1.564   8.471  17.775  0.00  0.00    +0.000 C 
BRANCH  28  29
ATOM     29  N   UNL     1       2.668   7.986  18.615  0.00  0.00    +0.000 NA
ATOM     30  C   UNL     1       2.238   7.446  19.919  0.00  0.00    +0.000 C 
ATOM     31  C   UNL     1       1.550   6.064  19.893  0.00  0.00    +0.000 C 
ATOM     32  N   UNL     1       2.218   5.067  19.052  0.00  0.00    +0.000 N 
ATOM     33  C   UNL     1       1.910   3.708  19.089  0.00  0.00    +0.000 C 
ATOM     34  C   UNL     1       0.979   3.206  20.167  0.00  0.00    +0.000 C 
ATOM     35  O   UNL     1       2.380   2.908  18.277  0.00  0.00    +0.000 OA
ATOM     36  C   UNL     1       2.831   5.558  17.818  0.00  0.00    +0.000 C 
ATOM     37  C   UNL     1       3.474   6.953  17.929  0.00  0.00    +0.000 C 
ENDBRANCH  28  29
ENDBRANCH   4  28
TORSDOF 6
ENDMDL
MODEL 3
REMARK VINA RESULT:      -7.8      2.134      2.776
REMARK  Name = 
REMARK  9 active torsions:
REMARK  status: ('A' for Active; 'I' for Inactive)
REMARK    1  A    between atoms: C_1  and  O_2
REMARK    2  A    between atoms: O_2  and  C_3
REMARK    3  A    between atoms: C_6  and  N_7
REMARK    4  A    between atoms: N_7  and  C_8
REMARK    5  A    between atoms: C_11  and  C_12
REMARK    6  A    between atoms: C_12  and  N_13
REMARK    7  A    between atoms: C_17  and  C_18
REMARK    8  A    between atoms: C_23  and  C_24
REMARK    9  A    between atoms: C_26  and  C_27
REMARK                            x       y       z     vdW  Elec       q    Type
REMARK                         _______ _______ _______ _____ _____    ______ ____
ROOT
ATOM      1  C   UNL     1       0.128  12.179  19.074  0.00  0.00    +0.000 A 
ATOM      2  N   UNL     1       1.469  11.925  19.056  0.00  0.00    +0.000 NA
ATOM      3  C   UNL     1       1.928  10.724  18.642  0.00  0.00    +0.000 A 
ATOM      4  C   UNL     1       1.103   9.692  18.258  0.00  0.00    +0.000 A 
ATOM      5  C   UNL     1      -0.263   9.980  18.240  0.00  0.00    +0.000 A 
ATOM      6  C   UNL     1      -0.799  11.253  18.576  0.00  0.00    +0.000 A 
ENDROOT
BRANCH   6   7
ATOM      7  C   UNL     1      -2.241  11.501  18.377  0.00  0.00    +0.000 A 
ATOM      8  N   UNL     1      -3.025  12.013  19.383  0.00  0.00    +0.000 NA
ATOM      9  C   UNL     1      -4.359  12.185  19.156  0.00  0.00    +0.000 A 
ATOM     10  C   UNL     1      -5.212  12.742  20.256  0.00  0.00    +0.000 C 
ATOM     11  N   UNL     1      -5.033  11.904  18.012  0.00  0.00    +0.000 NA
ATOM     12  C   UNL     1      -4.225  11.420  17.068  0.00  0.00    +0.000 A 
ATOM     13  N   UNL     1      -4.587  11.024  15.812  0.00  0.00    +0.000 N 
ATOM     14  C   UNL     1      -3.462  10.582  15.178  0.00  0.00    +0.000 A 
ATOM     15  N   UNL     1      -2.403  10.683  15.947  0.00  0.00    +0.000 NA
ATOM     16  C   UNL     1      -2.864  11.198  17.150  0.00  0.00    +0.000 A 
ATOM     17  H   UNL     1      -5.526  11.039  15.444  0.00  0.00    +0.000 HD
ENDBRANCH   6   7
BRANCH   1  18
ATOM     18  N   UNL     1      -0.266  13.437  19.612  0.00  0.00    +0.000 N 
ATOM     19  H   UNL     1      -0.123  13.418  20.624  0.00  0.00    +0.000 HD
BRANCH  18  23
ATOM     20  C   UNL     1       1.306  16.987  18.059  0.00  0.00    +0.000 A 
ATOM     21  C   UNL     1      -0.047  16.945  18.362  0.00  0.00    +0.000 A 
ATOM     22  C   UNL     1      -0.581  15.764  18.893  0.00  0.00    +0.000 A 
ATOM     23  C   UNL     1       0.245  14.655  19.081  0.00  0.00    +0.000 A 
ATOM     24  C   UNL     1       1.605  14.845  18.809  0.00  0.00    +0.000 A 
ATOM     25  N   UNL     1       2.156  15.975  18.308  0.00  0.00    +0.000 NA
BRANCH  20  27
ATOM     26  C   UNL     1       0.916  18.624  16.460  0.00  0.00    +0.000 C 
ATOM     27  O   UNL     1       1.794  18.139  17.476  0.00  0.00    +0.000 OA
ENDBRANCH  20  27
ENDBRANCH  18  23
ENDBRANCH   1  18
BRANCH   4  28
ATOM     28  C   UNL     1       1.624   8.358  17.775  0.00  0.00    +0.000 C 
BRANCH  28  29
ATOM     29  N   UNL     1       2.763   7.842  18.548  0.00  0.00    +0.000 NA
ATOM     30  C   UNL     1       2.405   7.355  19.893  0.00  0.00    +0.000 C 
ATOM     31  C   UNL     1       1.655   6.007  19.956  0.00  0.00    +0.000 C 
ATOM     32  N   UNL     1       2.214   4.960  19.097  0.00  0.00    +0.000 N 
ATOM     33  C   UNL     1       1.848   3.618  19.193  0.00  0.00    +0.000 C 
ATOM     34  C   UNL     1       0.977   3.187  20.349  0.00  0.00    +0.000 C 
ATOM     35  O   UNL     1       2.222   2.777  18.373  0.00  0.00    +0.000 OA
ATOM     36  C   UNL     1       2.758   5.391  17.809  0.00  0.00    +0.000 C 
ATOM     37  C   UNL     1       3.470   6.756  17.836  0.00  0.00    +0.000 C 
ENDBRANCH  28  29
ENDBRANCH   4  28
TORSDOF 6
ENDMDL
MODEL 4
REMARK VINA RESULT:      -7.7      1.672      1.889
REMARK  Name = 
REMARK  9 active torsions:
REMARK  status: ('A' for Active; 'I' for Inactive)
REMARK    1  A    between atoms: C_1  and  O_2
REMARK    2  A    between atoms: O_2  and  C_3
REMARK    3  A    between atoms: C_6  and  N_7
REMARK    4  A    between atoms: N_7  and  C_8
REMARK    5  A    between atoms: C_11  and  C_12
REMARK    6  A    between atoms: C_12  and  N_13
REMARK    7  A    between atoms: C_17  and  C_18
REMARK    8  A    between atoms: C_23  and  C_24
REMARK    9  A    between atoms: C_26  and  C_27
REMARK                            x       y       z     vdW  Elec       q    Type
REMARK                         _______ _______ _______ _____ _____    ______ ____
ROOT
ATOM      1  C   UNL     1       0.496  12.253  18.633  0.00  0.00    +0.000 A 
ATOM      2  N   UNL     1       1.805  11.933  18.418  0.00  0.00    +0.000 NA
ATOM      3  C   UNL     1       2.158  10.655  18.158  0.00  0.00    +0.000 A 
ATOM      4  C   UNL     1       1.260   9.614  18.131  0.00  0.00    +0.000 A 
ATOM      5  C   UNL     1      -0.080   9.962  18.310  0.00  0.00    +0.000 A 
ATOM      6  C   UNL     1      -0.524  11.300  18.495  0.00  0.00    +0.000 A 
ENDROOT
BRANCH   6   7
ATOM      7  C   UNL     1      -1.973  11.580  18.521  0.00  0.00    +0.000 A 
ATOM      8  N   UNL     1      -2.582  12.095  19.640  0.00  0.00    +0.000 NA
ATOM      9  C   UNL     1      -3.931  12.297  19.621  0.00  0.00    +0.000 A 
ATOM     10  C   UNL     1      -4.595  12.857  20.843  0.00  0.00    +0.000 C 
ATOM     11  N   UNL     1      -4.778  12.045  18.591  0.00  0.00    +0.000 NA
ATOM     12  C   UNL     1      -4.135  11.557  17.529  0.00  0.00    +0.000 A 
ATOM     13  N   UNL     1      -4.692  11.185  16.340  0.00  0.00    +0.000 N 
ATOM     14  C   UNL     1      -3.687  10.728  15.537  0.00  0.00    +0.000 A 
ATOM     15  N   UNL     1      -2.521  10.798  16.136  0.00  0.00    +0.000 NA
ATOM     16  C   UNL     1      -2.782  11.306  17.400  0.00  0.00    +0.000 A 
ATOM     17  H   UNL     1      -5.676  11.224  16.119  0.00  0.00    +0.000 HD
ENDBRANCH   6   7
BRANCH   1  18
ATOM     18  N   UNL     1       0.229  13.606  18.990  0.00  0.00    +0.000 N 
ATOM     19  H   UNL     1      -0.753  13.683  19.264  0.00  0.00    +0.000 HD
BRANCH  18  23
ATOM     20  C   UNL     1       2.586  15.576  21.827  0.00  0.00    +0.000 A 
ATOM     21  C   UNL     1       2.664  15.991  20.506  0.00  0.00    +0.000 A 
ATOM     22  C   UNL     1       1.870  15.345  19.550  0.00  0.00    +0.000 A 
ATOM     23  C   UNL     1       1.043  14.289  19.936  0.00  0.00    +0.000 A 
ATOM     24  C   UNL     1       0.996  14.013  21.309  0.00  0.00    +0.000 A 
ATOM     25  N   UNL     1       1.739  14.626  22.260  0.00  0.00    +0.000 NA
BRANCH  20  27
ATOM     26  C   UNL     1       3.690  17.542  22.384  0.00  0.00    +0.000 C 
ATOM     27  O   UNL     1       3.426  16.183  22.738  0.00  0.00    +0.000 OA
ENDBRANCH  20  27
ENDBRANCH  18  23
ENDBRANCH   1  18
BRANCH   4  28
ATOM     28  C   UNL     1       1.660   8.191  17.818  0.00  0.00    +0.000 C 
BRANCH  28  29
ATOM     29  N   UNL     1       2.794   7.697  18.611  0.00  0.00    +0.000 NA
ATOM     30  C   UNL     1       2.420   7.201  19.950  0.00  0.00    +0.000 C 
ATOM     31  C   UNL     1       1.695   5.839  19.997  0.00  0.00    +0.000 C 
ATOM     32  N   UNL     1       2.291   4.804  19.149  0.00  0.00    +0.000 N 
ATOM     33  C   UNL     1       1.950   3.455  19.238  0.00  0.00    +0.000 C 
ATOM     34  C   UNL     1       1.065   3.006  20.376  0.00  0.00    +0.000 C 
ATOM     35  O   UNL     1       2.355   2.621  18.424  0.00  0.00    +0.000 OA
ATOM     36  C   UNL     1       2.851   5.246  17.871  0.00  0.00    +0.000 C 
ATOM     37  C   UNL     1       3.535   6.625  17.912  0.00  0.00    +0.000 C 
ENDBRANCH  28  29
ENDBRANCH   4  28
TORSDOF 6
ENDMDL
MODEL 5
REMARK VINA RESULT:      -7.7      1.143      1.399
REMARK  Name = 
REMARK  9 active torsions:
REMARK  status: ('A' for Active; 'I' for Inactive)
REMARK    1  A    between atoms: C_1  and  O_2
REMARK    2  A    between atoms: O_2  and  C_3
REMARK    3  A    between atoms: C_6  and  N_7
REMARK    4  A    between atoms: N_7  and  C_8
REMARK    5  A    between atoms: C_11  and  C_12
REMARK    6  A    between atoms: C_12  and  N_13
REMARK    7  A    between atoms: C_17  and  C_18
REMARK    8  A    between atoms: C_23  and  C_24
REMARK    9  A    between atoms: C_26  and  C_27
REMARK                            x       y       z     vdW  Elec       q    Type
REMARK                         _______ _______ _______ _____ _____    ______ ____
ROOT
ATOM      1  C   UNL     1       0.087  12.118  18.694  0.00  0.00    +0.000 A 
ATOM      2  N   UNL     1       1.436  11.907  18.694  0.00  0.00    +0.000 NA
ATOM      3  C   UNL     1       1.932  10.686  18.397  0.00  0.00    +0.000 A 
ATOM      4  C   UNL     1       1.140   9.596  18.119  0.00  0.00    +0.000 A 
ATOM      5  C   UNL     1      -0.235   9.838  18.081  0.00  0.00    +0.000 A 
ATOM      6  C   UNL     1      -0.811  11.119  18.294  0.00  0.00    +0.000 A 
ENDROOT
BRANCH   6   7
ATOM      7  C   UNL     1      -2.261  11.301  18.080  0.00  0.00    +0.000 A 
ATOM      8  N   UNL     1      -3.078  11.772  19.079  0.00  0.00    +0.000 NA
ATOM      9  C   UNL     1      -4.416  11.882  18.838  0.00  0.00    +0.000 A 
ATOM     10  C   UNL     1      -5.307  12.394  19.930  0.00  0.00    +0.000 C 
ATOM     11  N   UNL     1      -5.064  11.575  17.686  0.00  0.00    +0.000 NA
ATOM     12  C   UNL     1      -4.224  11.133  16.749  0.00  0.00    +0.000 A 
ATOM     13  N   UNL     1      -4.553  10.726  15.487  0.00  0.00    +0.000 N 
ATOM     14  C   UNL     1      -3.402  10.339  14.864  0.00  0.00    +0.000 A 
ATOM     15  N   UNL     1      -2.358  10.487  15.646  0.00  0.00    +0.000 NA
ATOM     16  C   UNL     1      -2.855  10.974  16.845  0.00  0.00    +0.000 A 
ATOM     17  H   UNL     1      -5.488  10.698  15.109  0.00  0.00    +0.000 HD
ENDBRANCH   6   7
BRANCH   1  18
ATOM     18  N   UNL     1      -0.346  13.410  19.109  0.00  0.00    +0.000 N 
ATOM     19  H   UNL     1      -1.191  13.653  18.587  0.00  0.00    +0.000 HD
BRANCH  18  23
ATOM     20  C   UNL     1      -0.887  14.377  23.142  0.00  0.00    +0.000 A 
ATOM     21  C   UNL     1      -0.759  13.039  22.798  0.00  0.00    +0.000 A 
ATOM     22  C   UNL     1      -0.566  12.705  21.452  0.00  0.00    +0.000 A 
ATOM     23  C   UNL     1      -0.533  13.714  20.487  0.00  0.00    +0.000 A 
ATOM     24  C   UNL     1      -0.598  15.028  20.966  0.00  0.00    +0.000 A 
ATOM     25  N   UNL     1      -0.771  15.386  22.260  0.00  0.00    +0.000 NA
BRANCH  20  27
ATOM     26  C   UNL     1      -0.744  16.007  24.789  0.00  0.00    +0.000 C 
ATOM     27  O   UNL     1      -1.142  14.675  24.464  0.00  0.00    +0.000 OA
ENDBRANCH  20  27
ENDBRANCH  18  23
ENDBRANCH   1  18
BRANCH   4  28
ATOM     28  C   UNL     1       1.702   8.239  17.766  0.00  0.00    +0.000 C 
BRANCH  28  29
ATOM     29  N   UNL     1       2.737   7.757  18.692  0.00  0.00    +0.000 NA
ATOM     30  C   UNL     1       2.337   6.571  19.474  0.00  0.00    +0.000 C 
ATOM     31  C   UNL     1       2.290   5.231  18.709  0.00  0.00    +0.000 C 
ATOM     32  N   UNL     1       3.447   4.984  17.844  0.00  0.00    +0.000 N 
ATOM     33  C   UNL     1       3.720   3.743  17.271  0.00  0.00    +0.000 C 
ATOM     34  C   UNL     1       2.898   2.551  17.700  0.00  0.00    +0.000 C 
ATOM     35  O   UNL     1       4.615   3.589  16.436  0.00  0.00    +0.000 OA
ATOM     36  C   UNL     1       4.018   6.149  17.167  0.00  0.00    +0.000 C 
ATOM     37  C   UNL     1       4.004   7.446  17.996  0.00  0.00    +0.000 C 
ENDBRANCH  28  29
ENDBRANCH   4  28
TORSDOF 6
ENDMDL
MODEL 6
REMARK VINA RESULT:      -7.6      2.070      7.650
REMARK  Name = 
REMARK  9 active torsions:
REMARK  status: ('A' for Active; 'I' for Inactive)
REMARK    1  A    between atoms: C_1  and  O_2
REMARK    2  A    between atoms: O_2  and  C_3
REMARK    3  A    between atoms: C_6  and  N_7
REMARK    4  A    between atoms: N_7  and  C_8
REMARK    5  A    between atoms: C_11  and  C_12
REMARK    6  A    between atoms: C_12  and  N_13
REMARK    7  A    between atoms: C_17  and  C_18
REMARK    8  A    between atoms: C_23  and  C_24
REMARK    9  A    between atoms: C_26  and  C_27
REMARK                            x       y       z     vdW  Elec       q    Type
REMARK                         _______ _______ _______ _____ _____    ______ ____
ROOT
ATOM      1  C   UNL     1      -0.058  11.733  19.218  0.00  0.00    +0.000 A 
ATOM      2  N   UNL     1       0.792  12.097  20.222  0.00  0.00    +0.000 NA
ATOM      3  C   UNL     1       0.403  13.003  21.145  0.00  0.00    +0.000 A 
ATOM      4  C   UNL     1      -0.820  13.630  21.120  0.00  0.00    +0.000 A 
ATOM      5  C   UNL     1      -1.695  13.216  20.113  0.00  0.00    +0.000 A 
ATOM      6  C   UNL     1      -1.378  12.202  19.169  0.00  0.00    +0.000 A 
ENDROOT
BRANCH   6   7
ATOM      7  C   UNL     1      -2.426  11.729  18.243  0.00  0.00    +0.000 A 
ATOM      8  N   UNL     1      -2.109  11.196  17.016  0.00  0.00    +0.000 NA
ATOM      9  C   UNL     1      -3.120  10.811  16.185  0.00  0.00    +0.000 A 
ATOM     10  C   UNL     1      -2.772  10.232  14.846  0.00  0.00    +0.000 C 
ATOM     11  N   UNL     1      -4.452  10.891  16.431  0.00  0.00    +0.000 NA
ATOM     12  C   UNL     1      -4.703  11.405  17.636  0.00  0.00    +0.000 A 
ATOM     13  N   UNL     1      -5.933  11.635  18.183  0.00  0.00    +0.000 N 
ATOM     14  C   UNL     1      -5.740  12.181  19.419  0.00  0.00    +0.000 A 
ATOM     15  N   UNL     1      -4.463  12.302  19.699  0.00  0.00    +0.000 NA
ATOM     16  C   UNL     1      -3.790  11.831  18.581  0.00  0.00    +0.000 A 
ATOM     17  H   UNL     1      -6.815  11.451  17.731  0.00  0.00    +0.000 HD
ENDBRANCH   6   7
BRANCH   1  18
ATOM     18  N   UNL     1       0.470  10.843  18.239  0.00  0.00    +0.000 N 
ATOM     19  H   UNL     1       1.087  11.371  17.617  0.00  0.00    +0.000 HD
BRANCH  18  23
ATOM     20  C   UNL     1       2.313   7.282  19.427  0.00  0.00    +0.000 A 
ATOM     21  C   UNL     1       2.526   7.732  18.133  0.00  0.00    +0.000 A 
ATOM     22  C   UNL     1       1.922   8.929  17.728  0.00  0.00    +0.000 A 
ATOM     23  C   UNL     1       1.105   9.627  18.619  0.00  0.00    +0.000 A 
ATOM     24  C   UNL     1       1.029   9.112  19.919  0.00  0.00    +0.000 A 
ATOM     25  N   UNL     1       1.609   7.967  20.346  0.00  0.00    +0.000 NA
BRANCH  20  27
ATOM     26  C   UNL     1       1.981   5.312  20.610  0.00  0.00    +0.000 C 
ATOM     27  O   UNL     1       2.864   6.068  19.780  0.00  0.00    +0.000 OA
ENDBRANCH  20  27
ENDBRANCH  18  23
ENDBRANCH   1  18
BRANCH   4  28
ATOM     28  C   UNL     1      -1.256  14.626  22.169  0.00  0.00    +0.000 C 
BRANCH  28  29
ATOM     29  N   UNL     1      -1.521  14.034  23.488  0.00  0.00    +0.000 NA
ATOM     30  C   UNL     1      -2.385  14.858  24.354  0.00  0.00    +0.000 C 
ATOM     31  C   UNL     1      -3.884  14.897  23.987  0.00  0.00    +0.000 C 
ATOM     32  N   UNL     1      -4.467  13.590  23.672  0.00  0.00    +0.000 N 
ATOM     33  C   UNL     1      -5.840  13.373  23.565  0.00  0.00    +0.000 C 
ATOM     34  C   UNL     1      -6.782  14.483  23.967  0.00  0.00    +0.000 C 
ATOM     35  O   UNL     1      -6.305  12.304  23.162  0.00  0.00    +0.000 OA
ATOM     36  C   UNL     1      -3.605  12.642  22.966  0.00  0.00    +0.000 C 
ATOM     37  C   UNL     1      -2.123  12.688  23.380  0.00  0.00    +0.000 C 
ENDBRANCH  28  29
ENDBRANCH   4  28
TORSDOF 6
ENDMDL
MODEL 7
REMARK VINA RESULT:      -7.5      2.277      2.829
REMARK  Name = 
REMARK  9 active torsions:
REMARK  status: ('A' for Active; 'I' for Inactive)
REMARK    1  A    between atoms: C_1  and  O_2
REMARK    2  A    between atoms: O_2  and  C_3
REMARK    3  A    between atoms: C_6  and  N_7
REMARK    4  A    between atoms: N_7  and  C_8
REMARK    5  A    between atoms: C_11  and  C_12
REMARK    6  A    between atoms: C_12  and  N_13
REMARK    7  A    between atoms: C_17  and  C_18
REMARK    8  A    between atoms: C_23  and  C_24
REMARK    9  A    between atoms: C_26  and  C_27
REMARK                            x       y       z     vdW  Elec       q    Type
REMARK                         _______ _______ _______ _____ _____    ______ ____
ROOT
ATOM      1  C   UNL     1       0.523  12.274  18.710  0.00  0.00    +0.000 A 
ATOM      2  N   UNL     1       1.836  11.964  18.505  0.00  0.00    +0.000 NA
ATOM      3  C   UNL     1       2.197  10.695  18.215  0.00  0.00    +0.000 A 
ATOM      4  C   UNL     1       1.303   9.653  18.145  0.00  0.00    +0.000 A 
ATOM      5  C   UNL     1      -0.041   9.993  18.314  0.00  0.00    +0.000 A 
ATOM      6  C   UNL     1      -0.491  11.323  18.530  0.00  0.00    +0.000 A 
ENDROOT
BRANCH   6   7
ATOM      7  C   UNL     1      -1.942  11.599  18.541  0.00  0.00    +0.000 A 
ATOM      8  N   UNL     1      -2.564  12.108  19.655  0.00  0.00    +0.000 NA
ATOM      9  C   UNL     1      -3.914  12.306  19.623  0.00  0.00    +0.000 A 
ATOM     10  C   UNL     1      -4.591  12.860  20.841  0.00  0.00    +0.000 C 
ATOM     11  N   UNL     1      -4.749  12.054  18.584  0.00  0.00    +0.000 NA
ATOM     12  C   UNL     1      -4.093  11.572  17.528  0.00  0.00    +0.000 A 
ATOM     13  N   UNL     1      -4.637  11.201  16.331  0.00  0.00    +0.000 N 
ATOM     14  C   UNL     1      -3.623  10.750  15.537  0.00  0.00    +0.000 A 
ATOM     15  N   UNL     1      -2.463  10.822  16.149  0.00  0.00    +0.000 NA
ATOM     16  C   UNL     1      -2.739  11.326  17.412  0.00  0.00    +0.000 A 
ATOM     17  H   UNL     1      -5.619  11.238  16.101  0.00  0.00    +0.000 HD
ENDBRANCH   6   7
BRANCH   1  18
ATOM     18  N   UNL     1       0.247  13.616  19.101  0.00  0.00    +0.000 N 
ATOM     19  H   UNL     1      -0.277  13.599  19.979  0.00  0.00    +0.000 HD
BRANCH  18  23
ATOM     20  C   UNL     1       3.277  16.480  19.417  0.00  0.00    +0.000 A 
ATOM     21  C   UNL     1       3.088  15.856  18.193  0.00  0.00    +0.000 A 
ATOM     22  C   UNL     1       2.069  14.903  18.073  0.00  0.00    +0.000 A 
ATOM     23  C   UNL     1       1.287  14.584  19.185  0.00  0.00    +0.000 A 
ATOM     24  C   UNL     1       1.525  15.335  20.343  0.00  0.00    +0.000 A 
ATOM     25  N   UNL     1       2.491  16.271  20.488  0.00  0.00    +0.000 NA
BRANCH  20  27
ATOM     26  C   UNL     1       5.492  16.886  18.848  0.00  0.00    +0.000 C 
ATOM     27  O   UNL     1       4.330  17.365  19.526  0.00  0.00    +0.000 OA
ENDBRANCH  20  27
ENDBRANCH  18  23
ENDBRANCH   1  18
BRANCH   4  28
ATOM     28  C   UNL     1       1.712   8.240  17.798  0.00  0.00    +0.000 C 
BRANCH  28  29
ATOM     29  N   UNL     1       2.828   7.723  18.602  0.00  0.00    +0.000 NA
ATOM     30  C   UNL     1       2.427   7.205  19.924  0.00  0.00    +0.000 C 
ATOM     31  C   UNL     1       1.692   5.848  19.934  0.00  0.00    +0.000 C 
ATOM     32  N   UNL     1       2.295   4.824  19.076  0.00  0.00    +0.000 N 
ATOM     33  C   UNL     1       1.944   3.476  19.134  0.00  0.00    +0.000 C 
ATOM     34  C   UNL     1       1.036   3.013  20.248  0.00  0.00    +0.000 C 
ATOM     35  O   UNL     1       2.357   2.655  18.312  0.00  0.00    +0.000 OA
ATOM     36  C   UNL     1       2.880   5.287  17.817  0.00  0.00    +0.000 C 
ATOM     37  C   UNL     1       3.574   6.659  17.896  0.00  0.00    +0.000 C 
ENDBRANCH  28  29
ENDBRANCH   4  28
TORSDOF 6
ENDMDL
MODEL 8
REMARK VINA RESULT:      -7.5      1.944      8.269
REMARK  Name = 
REMARK  9 active torsions:
REMARK  status: ('A' for Active; 'I' for Inactive)
REMARK    1  A    between atoms: C_1  and  O_2
REMARK    2  A    between atoms: O_2  and  C_3
REMARK    3  A    between atoms: C_6  and  N_7
REMARK    4  A    between atoms: N_7  and  C_8
REMARK    5  A    between atoms: C_11  and  C_12
REMARK    6  A    between atoms: C_12  and  N_13
REMARK    7  A    between atoms: C_17  and  C_18
REMARK    8  A    between atoms: C_23  and  C_24
REMARK    9  A    between atoms: C_26  and  C_27
REMARK                            x       y       z     vdW  Elec       q    Type
REMARK                         _______ _______ _______ _____ _____    ______ ____
ROOT
ATOM      1  C   UNL     1       0.087  11.942  19.297  0.00  0.00    +0.000 A 
ATOM      2  N   UNL     1       1.010  12.326  20.227  0.00  0.00    +0.000 NA
ATOM      3  C   UNL     1       0.694  13.260  21.151  0.00  0.00    +0.000 A 
ATOM      4  C   UNL     1      -0.524  13.896  21.196  0.00  0.00    +0.000 A 
ATOM      5  C   UNL     1      -1.472  13.462  20.267  0.00  0.00    +0.000 A 
ATOM      6  C   UNL     1      -1.231  12.420  19.331  0.00  0.00    +0.000 A 
ENDROOT
BRANCH   6   7
ATOM      7  C   UNL     1      -2.346  11.930  18.496  0.00  0.00    +0.000 A 
ATOM      8  N   UNL     1      -2.132  11.455  17.224  0.00  0.00    +0.000 NA
ATOM      9  C   UNL     1      -3.204  11.052  16.484  0.00  0.00    +0.000 A 
ATOM     10  C   UNL     1      -2.969  10.535  15.096  0.00  0.00    +0.000 C 
ATOM     11  N   UNL     1      -4.507  11.061  16.864  0.00  0.00    +0.000 NA
ATOM     12  C   UNL     1      -4.656  11.522  18.107  0.00  0.00    +0.000 A 
ATOM     13  N   UNL     1      -5.833  11.675  18.782  0.00  0.00    +0.000 N 
ATOM     14  C   UNL     1      -5.540  12.187  20.013  0.00  0.00    +0.000 A 
ATOM     15  N   UNL     1      -4.247  12.358  20.169  0.00  0.00    +0.000 NA
ATOM     16  C   UNL     1      -3.671  11.957  18.973  0.00  0.00    +0.000 A 
ATOM     17  H   UNL     1      -6.748  11.465  18.414  0.00  0.00    +0.000 HD
ENDBRANCH   6   7
BRANCH   1  18
ATOM     18  N   UNL     1       0.537  11.021  18.308  0.00  0.00    +0.000 N 
ATOM     19  H   UNL     1       1.157  11.515  17.662  0.00  0.00    +0.000 HD
BRANCH  18  23
ATOM     20  C   UNL     1       2.240   7.380  19.460  0.00  0.00    +0.000 A 
ATOM     21  C   UNL     1       2.482   7.840  18.174  0.00  0.00    +0.000 A 
ATOM     22  C   UNL     1       1.925   9.064  17.782  0.00  0.00    +0.000 A 
ATOM     23  C   UNL     1       1.124   9.778  18.676  0.00  0.00    +0.000 A 
ATOM     24  C   UNL     1       1.017   9.247  19.967  0.00  0.00    +0.000 A 
ATOM     25  N   UNL     1       1.552   8.075  20.382  0.00  0.00    +0.000 NA
BRANCH  20  27
ATOM     26  C   UNL     1       1.825   5.404  20.607  0.00  0.00    +0.000 C 
ATOM     27  O   UNL     1       2.744   6.141  19.800  0.00  0.00    +0.000 OA
ENDBRANCH  20  27
ENDBRANCH  18  23
ENDBRANCH   1  18
BRANCH   4  28
ATOM     28  C   UNL     1      -0.877  14.924  22.246  0.00  0.00    +0.000 C 
BRANCH  28  29
ATOM     29  N   UNL     1      -1.274  14.350  23.539  0.00  0.00    +0.000 NA
ATOM     30  C   UNL     1      -1.288  15.323  24.649  0.00  0.00    +0.000 C 
ATOM     31  C   UNL     1      -2.453  16.337  24.655  0.00  0.00    +0.000 C 
ATOM     32  N   UNL     1      -3.769  15.752  24.389  0.00  0.00    +0.000 N 
ATOM     33  C   UNL     1      -4.965  16.438  24.597  0.00  0.00    +0.000 C 
ATOM     34  C   UNL     1      -4.920  17.775  25.298  0.00  0.00    +0.000 C 
ATOM     35  O   UNL     1      -6.053  15.983  24.236  0.00  0.00    +0.000 OA
ATOM     36  C   UNL     1      -3.814  14.652  23.425  0.00  0.00    +0.000 C 
ATOM     37  C   UNL     1      -2.602  13.703  23.475  0.00  0.00    +0.000 C 
ENDBRANCH  28  29
ENDBRANCH   4  28
TORSDOF 6
ENDMDL
MODEL 9
REMARK VINA RESULT:      -7.2      2.255      7.783
REMARK  Name = 
REMARK  9 active torsions:
REMARK  status: ('A' for Active; 'I' for Inactive)
REMARK    1  A    between atoms: C_1  and  O_2
REMARK    2  A    between atoms: O_2  and  C_3
REMARK    3  A    between atoms: C_6  and  N_7
REMARK    4  A    between atoms: N_7  and  C_8
REMARK    5  A    between atoms: C_11  and  C_12
REMARK    6  A    between atoms: C_12  and  N_13
REMARK    7  A    between atoms: C_17  and  C_18
REMARK    8  A    between atoms: C_23  and  C_24
REMARK    9  A    between atoms: C_26  and  C_27
REMARK                            x       y       z     vdW  Elec       q    Type
REMARK                         _______ _______ _______ _____ _____    ______ ____
ROOT
ATOM      1  C   UNL     1      -0.340  12.168  19.343  0.00  0.00    +0.000 A 
ATOM      2  N   UNL     1       0.437  12.646  20.358  0.00  0.00    +0.000 NA
ATOM      3  C   UNL     1      -0.083  13.499  21.267  0.00  0.00    +0.000 A 
ATOM      4  C   UNL     1      -1.378  13.961  21.216  0.00  0.00    +0.000 A 
ATOM      5  C   UNL     1      -2.173  13.430  20.198  0.00  0.00    +0.000 A 
ATOM      6  C   UNL     1      -1.709  12.461  19.267  0.00  0.00    +0.000 A 
ENDROOT
BRANCH   6   7
ATOM      7  C   UNL     1      -2.670  11.849  18.327  0.00  0.00    +0.000 A 
ATOM      8  N   UNL     1      -2.266  11.363  17.107  0.00  0.00    +0.000 NA
ATOM      9  C   UNL     1      -3.203  10.844  16.262  0.00  0.00    +0.000 A 
ATOM     10  C   UNL     1      -2.760  10.317  14.930  0.00  0.00    +0.000 C 
ATOM     11  N   UNL     1      -4.537  10.743  16.489  0.00  0.00    +0.000 NA
ATOM     12  C   UNL     1      -4.872  11.219  17.689  0.00  0.00    +0.000 A 
ATOM     13  N   UNL     1      -6.130  11.279  18.218  0.00  0.00    +0.000 N 
ATOM     14  C   UNL     1      -6.031  11.847  19.455  0.00  0.00    +0.000 A 
ATOM     15  N   UNL     1      -4.787  12.141  19.753  0.00  0.00    +0.000 NA
ATOM     16  C   UNL     1      -4.040  11.765  18.646  0.00  0.00    +0.000 A 
ATOM     17  H   UNL     1      -6.973  10.977  17.754  0.00  0.00    +0.000 HD
ENDBRANCH   6   7
BRANCH   1  18
ATOM     18  N   UNL     1       0.317  11.348  18.381  0.00  0.00    +0.000 N 
ATOM     19  H   UNL     1       0.995  11.922  17.873  0.00  0.00    +0.000 HD
BRANCH  18  23
ATOM     20  C   UNL     1       2.118   7.718  19.414  0.00  0.00    +0.000 A 
ATOM     21  C   UNL     1       1.306   8.339  20.352  0.00  0.00    +0.000 A 
ATOM     22  C   UNL     1       0.689   9.550  20.012  0.00  0.00    +0.000 A 
ATOM     23  C   UNL     1       0.922  10.116  18.757  0.00  0.00    +0.000 A 
ATOM     24  C   UNL     1       1.698   9.358  17.872  0.00  0.00    +0.000 A 
ATOM     25  N   UNL     1       2.297   8.180  18.164  0.00  0.00    +0.000 NA
BRANCH  20  27
ATOM     26  C   UNL     1       3.341   5.887  18.677  0.00  0.00    +0.000 C 
ATOM     27  O   UNL     1       2.766   6.562  19.797  0.00  0.00    +0.000 OA
ENDBRANCH  20  27
ENDBRANCH  18  23
ENDBRANCH   1  18
BRANCH   4  28
ATOM     28  C   UNL     1      -1.959  14.898  22.249  0.00  0.00    +0.000 C 
BRANCH  28  29
ATOM     29  N   UNL     1      -2.126  14.297  23.579  0.00  0.00    +0.000 NA
ATOM     30  C   UNL     1      -3.053  15.034  24.459  0.00  0.00    +0.000 C 
ATOM     31  C   UNL     1      -4.556  14.906  24.129  0.00  0.00    +0.000 C 
ATOM     32  N   UNL     1      -5.001  13.540  23.843  0.00  0.00    +0.000 N 
ATOM     33  C   UNL     1      -6.345  13.174  23.772  0.00  0.00    +0.000 C 
ATOM     34  C   UNL     1      -7.391  14.181  24.187  0.00  0.00    +0.000 C 
ATOM     35  O   UNL     1      -6.701  12.056  23.392  0.00  0.00    +0.000 OA
ATOM     36  C   UNL     1      -4.059  12.682  23.124  0.00  0.00    +0.000 C 
ATOM     37  C   UNL     1      -2.581  12.892  23.501  0.00  0.00    +0.000 C 
ENDBRANCH  28  29
ENDBRANCH   4  28
TORSDOF 6
ENDMDL
