MODEL 1
REMARK VINA RESULT:      -8.9      0.000      0.000
REMARK  Name = 
REMARK  3 active torsions:
REMARK  status: ('A' for Active; 'I' for Inactive)
REMARK    1  A    between atoms: C_1  and  N_2
REMARK    2  A    between atoms: C_9  and  C_10
REMARK    3  A    between atoms: C_13  and  C_14
REMARK                            x       y       z     vdW  Elec       q    Type
REMARK                         _______ _______ _______ _____ _____    ______ ____
ROOT
ATOM      1  C   UNL     1       4.311   1.873  17.546  0.00  0.00    +0.000 C 
ATOM      2  N   UNL     1       3.815   3.248  17.824  0.00  0.00    +0.000 N 
ATOM      3  C   UNL     1       4.257   4.355  17.111  0.00  0.00    +0.000 A 
ATOM      4  C   UNL     1       5.194   4.236  16.041  0.00  0.00    +0.000 A 
ATOM      5  C   UNL     1       5.672   5.343  15.354  0.00  0.00    +0.000 A 
ATOM      6  C   UNL     1       5.267   6.605  15.719  0.00  0.00    +0.000 A 
ATOM      7  C   UNL     1       4.354   6.773  16.747  0.00  0.00    +0.000 A 
ATOM      8  C   UNL     1       3.781   5.669  17.442  0.00  0.00    +0.000 A 
ATOM      9  C   UNL     1       2.788   5.845  18.464  0.00  0.00    +0.000 A 
ATOM     10  C   UNL     1       2.319   4.676  19.144  0.00  0.00    +0.000 A 
ATOM     11  C   UNL     1       1.279   4.728  20.116  0.00  0.00    +0.000 A 
ATOM     12  C   UNL     1       0.862   3.599  20.811  0.00  0.00    +0.000 A 
ATOM     13  C   UNL     1       1.444   2.375  20.555  0.00  0.00    +0.000 A 
ATOM     14  C   UNL     1       2.419   2.266  19.577  0.00  0.00    +0.000 A 
ATOM     15  C   UNL     1       2.874   3.394  18.833  0.00  0.00    +0.000 A 
ENDROOT
BRANCH   9  16
ATOM     16  C   UNL     1       2.251   7.234  18.815  0.00  0.00    +0.000 A 
ATOM     17  C   UNL     1       1.990   7.616  20.151  0.00  0.00    +0.000 A 
ATOM     18  C   UNL     1       1.445   8.866  20.461  0.00  0.00    +0.000 A 
ATOM     19  C   UNL     1       1.188   9.800  19.450  0.00  0.00    +0.000 A 
ATOM     20  C   UNL     1       1.477   9.457  18.124  0.00  0.00    +0.000 A 
ATOM     21  C   UNL     1       1.977   8.190  17.809  0.00  0.00    +0.000 A 
BRANCH  19  22
ATOM     22  C   UNL     1       0.605  11.158  19.753  0.00  0.00    +0.000 C 
ATOM     23  F   UNL     1      -0.766  11.095  19.940  0.00  0.00    +0.000 F 
ATOM     24  F   UNL     1       1.186  11.663  20.901  0.00  0.00    +0.000 F 
ATOM     25  F   UNL     1       0.863  12.018  18.701  0.00  0.00    +0.000 F 
ENDBRANCH  19  22
ENDBRANCH   9  16
TORSDOF 2
ENDMDL
MODEL 2
REMARK VINA RESULT:      -8.8      0.098      3.757
REMARK  Name = 
REMARK  3 active torsions:
REMARK  status: ('A' for Active; 'I' for Inactive)
REMARK    1  A    between atoms: C_1  and  N_2
REMARK    2  A    between atoms: C_9  and  C_10
REMARK    3  A    between atoms: C_13  and  C_14
REMARK                            x       y       z     vdW  Elec       q    Type
REMARK                         _______ _______ _______ _____ _____    ______ ____
ROOT
ATOM      1  C   UNL     1       4.405   1.957  17.499  0.00  0.00    +0.000 C 
ATOM      2  N   UNL     1       3.834   3.279  17.875  0.00  0.00    +0.000 N 
ATOM      3  C   UNL     1       2.909   3.424  18.901  0.00  0.00    +0.000 A 
ATOM      4  C   UNL     1       2.474   2.313  19.684  0.00  0.00    +0.000 A 
ATOM      5  C   UNL     1       1.519   2.444  20.682  0.00  0.00    +0.000 A 
ATOM      6  C   UNL     1       0.938   3.667  20.921  0.00  0.00    +0.000 A 
ATOM      7  C   UNL     1       1.332   4.778  20.192  0.00  0.00    +0.000 A 
ATOM      8  C   UNL     1       2.354   4.714  19.202  0.00  0.00    +0.000 A 
ATOM      9  C   UNL     1       2.803   5.880  18.493  0.00  0.00    +0.000 A 
ATOM     10  C   UNL     1       3.792   5.699  17.476  0.00  0.00    +0.000 A 
ATOM     11  C   UNL     1       4.365   6.796  16.769  0.00  0.00    +0.000 A 
ATOM     12  C   UNL     1       5.287   6.613  15.746  0.00  0.00    +0.000 A 
ATOM     13  C   UNL     1       5.693   5.342  15.399  0.00  0.00    +0.000 A 
ATOM     14  C   UNL     1       5.208   4.248  16.098  0.00  0.00    +0.000 A 
ATOM     15  C   UNL     1       4.265   4.386  17.159  0.00  0.00    +0.000 A 
ENDROOT
BRANCH   9  16
ATOM     16  C   UNL     1       2.240   7.265  18.814  0.00  0.00    +0.000 A 
ATOM     17  C   UNL     1       1.964   7.669  20.141  0.00  0.00    +0.000 A 
ATOM     18  C   UNL     1       1.396   8.915  20.423  0.00  0.00    +0.000 A 
ATOM     19  C   UNL     1       1.129   9.825  19.392  0.00  0.00    +0.000 A 
ATOM     20  C   UNL     1       1.432   9.460  18.075  0.00  0.00    +0.000 A 
ATOM     21  C   UNL     1       1.956   8.197  17.788  0.00  0.00    +0.000 A 
BRANCH  19  22
ATOM     22  C   UNL     1       0.521  11.178  19.666  0.00  0.00    +0.000 C 
ATOM     23  F   UNL     1       0.693  12.042  18.597  0.00  0.00    +0.000 F 
ATOM     24  F   UNL     1      -0.833  11.035  19.905  0.00  0.00    +0.000 F 
ATOM     25  F   UNL     1       1.119  11.738  20.780  0.00  0.00    +0.000 F 
ENDBRANCH  19  22
ENDBRANCH   9  16
TORSDOF 2
ENDMDL
MODEL 3
REMARK VINA RESULT:      -8.8      0.118      1.262
REMARK  Name = 
REMARK  3 active torsions:
REMARK  status: ('A' for Active; 'I' for Inactive)
REMARK    1  A    between atoms: C_1  and  N_2
REMARK    2  A    between atoms: C_9  and  C_10
REMARK    3  A    between atoms: C_13  and  C_14
REMARK                            x       y       z     vdW  Elec       q    Type
REMARK                         _______ _______ _______ _____ _____    ______ ____
ROOT
ATOM      1  C   UNL     1       4.366   1.858  17.690  0.00  0.00    +0.000 C 
ATOM      2  N   UNL     1       3.846   3.233  17.922  0.00  0.00    +0.000 N 
ATOM      3  C   UNL     1       4.280   4.325  17.180  0.00  0.00    +0.000 A 
ATOM      4  C   UNL     1       5.229   4.188  16.124  0.00  0.00    +0.000 A 
ATOM      5  C   UNL     1       5.697   5.281  15.408  0.00  0.00    +0.000 A 
ATOM      6  C   UNL     1       5.271   6.548  15.731  0.00  0.00    +0.000 A 
ATOM      7  C   UNL     1       4.344   6.733  16.745  0.00  0.00    +0.000 A 
ATOM      8  C   UNL     1       3.781   5.642  17.467  0.00  0.00    +0.000 A 
ATOM      9  C   UNL     1       2.775   5.833  18.474  0.00  0.00    +0.000 A 
ATOM     10  C   UNL     1       2.317   4.678  19.184  0.00  0.00    +0.000 A 
ATOM     11  C   UNL     1       1.266   4.743  20.143  0.00  0.00    +0.000 A 
ATOM     12  C   UNL     1       0.859   3.629  20.868  0.00  0.00    +0.000 A 
ATOM     13  C   UNL     1       1.462   2.407  20.655  0.00  0.00    +0.000 A 
ATOM     14  C   UNL     1       2.447   2.283  19.689  0.00  0.00    +0.000 A 
ATOM     15  C   UNL     1       2.894   3.396  18.917  0.00  0.00    +0.000 A 
ENDROOT
BRANCH   9  16
ATOM     16  C   UNL     1       2.214   7.223  18.778  0.00  0.00    +0.000 A 
ATOM     17  C   UNL     1       1.926   8.152  17.752  0.00  0.00    +0.000 A 
ATOM     18  C   UNL     1       1.469   9.441  18.039  0.00  0.00    +0.000 A 
ATOM     19  C   UNL     1       1.235   9.834  19.363  0.00  0.00    +0.000 A 
ATOM     20  C   UNL     1       1.476   8.917  20.392  0.00  0.00    +0.000 A 
ATOM     21  C   UNL     1       1.978   7.643  20.108  0.00  0.00    +0.000 A 
BRANCH  19  22
ATOM     22  C   UNL     1       0.737  11.217  19.704  0.00  0.00    +0.000 C 
ATOM     23  F   UNL     1       1.152  12.154  18.772  0.00  0.00    +0.000 F 
ATOM     24  F   UNL     1      -0.644  11.213  19.745  0.00  0.00    +0.000 F 
ATOM     25  F   UNL     1       1.224  11.591  20.944  0.00  0.00    +0.000 F 
ENDBRANCH  19  22
ENDBRANCH   9  16
TORSDOF 2
ENDMDL
MODEL 4
REMARK VINA RESULT:      -8.8      0.123      3.889
REMARK  Name = 
REMARK  3 active torsions:
REMARK  status: ('A' for Active; 'I' for Inactive)
REMARK    1  A    between atoms: C_1  and  N_2
REMARK    2  A    between atoms: C_9  and  C_10
REMARK    3  A    between atoms: C_13  and  C_14
REMARK                            x       y       z     vdW  Elec       q    Type
REMARK                         _______ _______ _______ _____ _____    ______ ____
ROOT
ATOM      1  C   UNL     1       4.420   1.933  17.549  0.00  0.00    +0.000 C 
ATOM      2  N   UNL     1       3.836   3.253  17.908  0.00  0.00    +0.000 N 
ATOM      3  C   UNL     1       2.906   3.400  18.930  0.00  0.00    +0.000 A 
ATOM      4  C   UNL     1       2.478   2.294  19.723  0.00  0.00    +0.000 A 
ATOM      5  C   UNL     1       1.518   2.427  20.716  0.00  0.00    +0.000 A 
ATOM      6  C   UNL     1       0.925   3.647  20.939  0.00  0.00    +0.000 A 
ATOM      7  C   UNL     1       1.311   4.755  20.200  0.00  0.00    +0.000 A 
ATOM      8  C   UNL     1       2.338   4.689  19.215  0.00  0.00    +0.000 A 
ATOM      9  C   UNL     1       2.779   5.851  18.496  0.00  0.00    +0.000 A 
ATOM     10  C   UNL     1       3.774   5.669  17.484  0.00  0.00    +0.000 A 
ATOM     11  C   UNL     1       4.340   6.763  16.768  0.00  0.00    +0.000 A 
ATOM     12  C   UNL     1       5.268   6.577  15.751  0.00  0.00    +0.000 A 
ATOM     13  C   UNL     1       5.686   5.306  15.418  0.00  0.00    +0.000 A 
ATOM     14  C   UNL     1       5.208   4.216  16.127  0.00  0.00    +0.000 A 
ATOM     15  C   UNL     1       4.260   4.356  17.183  0.00  0.00    +0.000 A 
ENDROOT
BRANCH   9  16
ATOM     16  C   UNL     1       2.203   7.235  18.800  0.00  0.00    +0.000 A 
ATOM     17  C   UNL     1       1.926   8.168  17.775  0.00  0.00    +0.000 A 
ATOM     18  C   UNL     1       1.454   9.452  18.063  0.00  0.00    +0.000 A 
ATOM     19  C   UNL     1       1.194   9.834  19.386  0.00  0.00    +0.000 A 
ATOM     20  C   UNL     1       1.425   8.912  20.412  0.00  0.00    +0.000 A 
ATOM     21  C   UNL     1       1.941   7.644  20.129  0.00  0.00    +0.000 A 
BRANCH  19  22
ATOM     22  C   UNL     1       0.681  11.211  19.728  0.00  0.00    +0.000 C 
ATOM     23  F   UNL     1       1.426  11.799  20.736  0.00  0.00    +0.000 F 
ATOM     24  F   UNL     1       0.740  12.017  18.606  0.00  0.00    +0.000 F 
ATOM     25  F   UNL     1      -0.634  11.123  20.151  0.00  0.00    +0.000 F 
ENDBRANCH  19  22
ENDBRANCH   9  16
TORSDOF 2
ENDMDL
MODEL 5
REMARK VINA RESULT:      -8.1      0.998      1.132
REMARK  Name = 
REMARK  3 active torsions:
REMARK  status: ('A' for Active; 'I' for Inactive)
REMARK    1  A    between atoms: C_1  and  N_2
REMARK    2  A    between atoms: C_9  and  C_10
REMARK    3  A    between atoms: C_13  and  C_14
REMARK                            x       y       z     vdW  Elec       q    Type
REMARK                         _______ _______ _______ _____ _____    ______ ____
ROOT
ATOM      1  C   UNL     1       5.060   2.231  18.872  0.00  0.00    +0.000 C 
ATOM      2  N   UNL     1       4.400   3.564  18.858  0.00  0.00    +0.000 N 
ATOM      3  C   UNL     1       4.958   4.662  18.214  0.00  0.00    +0.000 A 
ATOM      4  C   UNL     1       6.186   4.568  17.494  0.00  0.00    +0.000 A 
ATOM      5  C   UNL     1       6.769   5.670  16.885  0.00  0.00    +0.000 A 
ATOM      6  C   UNL     1       6.178   6.907  16.992  0.00  0.00    +0.000 A 
ATOM      7  C   UNL     1       4.980   7.049  17.675  0.00  0.00    +0.000 A 
ATOM      8  C   UNL     1       4.305   5.941  18.261  0.00  0.00    +0.000 A 
ATOM      9  C   UNL     1       3.033   6.082  18.914  0.00  0.00    +0.000 A 
ATOM     10  C   UNL     1       2.466   4.919  19.524  0.00  0.00    +0.000 A 
ATOM     11  C   UNL     1       1.175   4.929  20.126  0.00  0.00    +0.000 A 
ATOM     12  C   UNL     1       0.649   3.812  20.763  0.00  0.00    +0.000 A 
ATOM     13  C   UNL     1       1.372   2.638  20.810  0.00  0.00    +0.000 A 
ATOM     14  C   UNL     1       2.607   2.563  20.187  0.00  0.00    +0.000 A 
ATOM     15  C   UNL     1       3.185   3.681  19.516  0.00  0.00    +0.000 A 
ENDROOT
BRANCH   9  16
ATOM     16  C   UNL     1       2.312   7.430  18.956  0.00  0.00    +0.000 A 
ATOM     17  C   UNL     1       1.848   7.990  20.168  0.00  0.00    +0.000 A 
ATOM     18  C   UNL     1       1.138   9.194  20.194  0.00  0.00    +0.000 A 
ATOM     19  C   UNL     1       0.909   9.910  19.012  0.00  0.00    +0.000 A 
ATOM     20  C   UNL     1       1.394   9.393  17.805  0.00  0.00    +0.000 A 
ATOM     21  C   UNL     1       2.063   8.166  17.773  0.00  0.00    +0.000 A 
BRANCH  19  22
ATOM     22  C   UNL     1       0.151  11.214  19.008  0.00  0.00    +0.000 C 
ATOM     23  F   UNL     1      -0.288  11.554  20.277  0.00  0.00    +0.000 F 
ATOM     24  F   UNL     1       0.970  12.223  18.538  0.00  0.00    +0.000 F 
ATOM     25  F   UNL     1      -0.952  11.106  18.180  0.00  0.00    +0.000 F 
ENDBRANCH  19  22
ENDBRANCH   9  16
TORSDOF 2
ENDMDL
MODEL 6
REMARK VINA RESULT:      -8.1      1.066      3.702
REMARK  Name = 
REMARK  3 active torsions:
REMARK  status: ('A' for Active; 'I' for Inactive)
REMARK    1  A    between atoms: C_1  and  N_2
REMARK    2  A    between atoms: C_9  and  C_10
REMARK    3  A    between atoms: C_13  and  C_14
REMARK                            x       y       z     vdW  Elec       q    Type
REMARK                         _______ _______ _______ _____ _____    ______ ____
ROOT
ATOM      1  C   UNL     1       5.134   2.266  16.706  0.00  0.00    +0.000 C 
ATOM      2  N   UNL     1       4.421   3.452  17.250  0.00  0.00    +0.000 N 
ATOM      3  C   UNL     1       3.179   3.353  17.866  0.00  0.00    +0.000 A 
ATOM      4  C   UNL     1       2.526   2.098  18.045  0.00  0.00    +0.000 A 
ATOM      5  C   UNL     1       1.267   1.997  18.621  0.00  0.00    +0.000 A 
ATOM      6  C   UNL     1       0.597   3.133  19.010  0.00  0.00    +0.000 A 
ATOM      7  C   UNL     1       1.192   4.377  18.864  0.00  0.00    +0.000 A 
ATOM      8  C   UNL     1       2.508   4.531  18.341  0.00  0.00    +0.000 A 
ATOM      9  C   UNL     1       3.145   5.815  18.250  0.00  0.00    +0.000 A 
ATOM     10  C   UNL     1       4.445   5.872  17.654  0.00  0.00    +0.000 A 
ATOM     11  C   UNL     1       5.198   7.079  17.587  0.00  0.00    +0.000 A 
ATOM     12  C   UNL     1       6.438   7.141  16.961  0.00  0.00    +0.000 A 
ATOM     13  C   UNL     1       6.986   6.008  16.398  0.00  0.00    +0.000 A 
ATOM     14  C   UNL     1       6.317   4.798  16.490  0.00  0.00    +0.000 A 
ATOM     15  C   UNL     1       5.046   4.684  17.128  0.00  0.00    +0.000 A 
ENDROOT
BRANCH   9  16
ATOM     16  C   UNL     1       2.457   7.079  18.770  0.00  0.00    +0.000 A 
ATOM     17  C   UNL     1       2.162   7.256  20.141  0.00  0.00    +0.000 A 
ATOM     18  C   UNL     1       1.481   8.386  20.603  0.00  0.00    +0.000 A 
ATOM     19  C   UNL     1       1.114   9.407  19.716  0.00  0.00    +0.000 A 
ATOM     20  C   UNL     1       1.432   9.269  18.360  0.00  0.00    +0.000 A 
ATOM     21  C   UNL     1       2.070   8.118  17.891  0.00  0.00    +0.000 A 
BRANCH  19  22
ATOM     22  C   UNL     1       0.382  10.640  20.185  0.00  0.00    +0.000 C 
ATOM     23  F   UNL     1       0.693  10.951  21.498  0.00  0.00    +0.000 F 
ATOM     24  F   UNL     1       0.725  11.712  19.383  0.00  0.00    +0.000 F 
ATOM     25  F   UNL     1      -0.982  10.430  20.097  0.00  0.00    +0.000 F 
ENDBRANCH  19  22
ENDBRANCH   9  16
TORSDOF 2
ENDMDL
MODEL 7
REMARK VINA RESULT:      -8.0      1.109      1.427
REMARK  Name = 
REMARK  3 active torsions:
REMARK  status: ('A' for Active; 'I' for Inactive)
REMARK    1  A    between atoms: C_1  and  N_2
REMARK    2  A    between atoms: C_9  and  C_10
REMARK    3  A    between atoms: C_13  and  C_14
REMARK                            x       y       z     vdW  Elec       q    Type
REMARK                         _______ _______ _______ _____ _____    ______ ____
ROOT
ATOM      1  C   UNL     1       5.024   2.176  16.676  0.00  0.00    +0.000 C 
ATOM      2  N   UNL     1       4.413   3.429  17.196  0.00  0.00    +0.000 N 
ATOM      3  C   UNL     1       5.033   4.666  17.066  0.00  0.00    +0.000 A 
ATOM      4  C   UNL     1       6.283   4.815  16.395  0.00  0.00    +0.000 A 
ATOM      5  C   UNL     1       6.927   6.040  16.300  0.00  0.00    +0.000 A 
ATOM      6  C   UNL     1       6.377   7.153  16.891  0.00  0.00    +0.000 A 
ATOM      7  C   UNL     1       5.161   7.062  17.550  0.00  0.00    +0.000 A 
ATOM      8  C   UNL     1       4.425   5.844  17.620  0.00  0.00    +0.000 A 
ATOM      9  C   UNL     1       3.136   5.769  18.248  0.00  0.00    +0.000 A 
ATOM     10  C   UNL     1       2.506   4.486  18.320  0.00  0.00    +0.000 A 
ATOM     11  C   UNL     1       1.194   4.312  18.848  0.00  0.00    +0.000 A 
ATOM     12  C   UNL     1       0.606   3.058  18.963  0.00  0.00    +0.000 A 
ATOM     13  C   UNL     1       1.284   1.935  18.541  0.00  0.00    +0.000 A 
ATOM     14  C   UNL     1       2.538   2.061  17.965  0.00  0.00    +0.000 A 
ATOM     15  C   UNL     1       3.179   3.326  17.821  0.00  0.00    +0.000 A 
ENDROOT
BRANCH   9  16
ATOM     16  C   UNL     1       2.462   7.015  18.824  0.00  0.00    +0.000 A 
ATOM     17  C   UNL     1       2.154   7.129  20.199  0.00  0.00    +0.000 A 
ATOM     18  C   UNL     1       1.486   8.246  20.709  0.00  0.00    +0.000 A 
ATOM     19  C   UNL     1       1.146   9.315  19.871  0.00  0.00    +0.000 A 
ATOM     20  C   UNL     1       1.478   9.241  18.513  0.00  0.00    +0.000 A 
ATOM     21  C   UNL     1       2.103   8.104  17.994  0.00  0.00    +0.000 A 
BRANCH  19  22
ATOM     22  C   UNL     1       0.429  10.536  20.393  0.00  0.00    +0.000 C 
ATOM     23  F   UNL     1       1.014  11.706  19.938  0.00  0.00    +0.000 F 
ATOM     24  F   UNL     1      -0.889  10.509  19.977  0.00  0.00    +0.000 F 
ATOM     25  F   UNL     1       0.466  10.538  21.775  0.00  0.00    +0.000 F 
ENDBRANCH  19  22
ENDBRANCH   9  16
TORSDOF 2
ENDMDL
MODEL 8
REMARK VINA RESULT:      -7.8      4.168      8.516
REMARK  Name = 
REMARK  3 active torsions:
REMARK  status: ('A' for Active; 'I' for Inactive)
REMARK    1  A    between atoms: C_1  and  N_2
REMARK    2  A    between atoms: C_9  and  C_10
REMARK    3  A    between atoms: C_13  and  C_14
REMARK                            x       y       z     vdW  Elec       q    Type
REMARK                         _______ _______ _______ _____ _____    ______ ____
ROOT
ATOM      1  C   UNL     1      -2.885  14.229  20.220  0.00  0.00    +0.000 C 
ATOM      2  N   UNL     1      -1.979  13.090  19.907  0.00  0.00    +0.000 N 
ATOM      3  C   UNL     1      -2.398  11.990  19.169  0.00  0.00    +0.000 A 
ATOM      4  C   UNL     1      -3.718  11.900  18.636  0.00  0.00    +0.000 A 
ATOM      5  C   UNL     1      -4.154  10.784  17.935  0.00  0.00    +0.000 A 
ATOM      6  C   UNL     1      -3.316   9.708  17.764  0.00  0.00    +0.000 A 
ATOM      7  C   UNL     1      -2.021   9.750  18.258  0.00  0.00    +0.000 A 
ATOM      8  C   UNL     1      -1.500  10.895  18.926  0.00  0.00    +0.000 A 
ATOM      9  C   UNL     1      -0.139  10.958  19.381  0.00  0.00    +0.000 A 
ATOM     10  C   UNL     1       0.270  12.128  20.095  0.00  0.00    +0.000 A 
ATOM     11  C   UNL     1       1.615  12.329  20.519  0.00  0.00    +0.000 A 
ATOM     12  C   UNL     1       1.997  13.443  21.257  0.00  0.00    +0.000 A 
ATOM     13  C   UNL     1       1.069  14.408  21.584  0.00  0.00    +0.000 A 
ATOM     14  C   UNL     1      -0.239  14.285  21.143  0.00  0.00    +0.000 A 
ATOM     15  C   UNL     1      -0.677  13.164  20.378  0.00  0.00    +0.000 A 
ENDROOT
BRANCH   9  16
ATOM     16  C   UNL     1       0.838   9.812  19.112  0.00  0.00    +0.000 A 
ATOM     17  C   UNL     1       1.528   9.693  17.884  0.00  0.00    +0.000 A 
ATOM     18  C   UNL     1       2.376   8.612  17.623  0.00  0.00    +0.000 A 
ATOM     19  C   UNL     1       2.604   7.636  18.601  0.00  0.00    +0.000 A 
ATOM     20  C   UNL     1       1.963   7.756  19.838  0.00  0.00    +0.000 A 
ATOM     21  C   UNL     1       1.078   8.811  20.083  0.00  0.00    +0.000 A 
BRANCH  19  22
ATOM     22  C   UNL     1       3.517   6.461  18.350  0.00  0.00    +0.000 C 
ATOM     23  F   UNL     1       3.975   5.908  19.535  0.00  0.00    +0.000 F 
ATOM     24  F   UNL     1       2.834   5.489  17.643  0.00  0.00    +0.000 F 
ATOM     25  F   UNL     1       4.610   6.873  17.609  0.00  0.00    +0.000 F 
ENDBRANCH  19  22
ENDBRANCH   9  16
TORSDOF 2
ENDMDL
MODEL 9
REMARK VINA RESULT:      -7.7      0.885      3.948
REMARK  Name = 
REMARK  3 active torsions:
REMARK  status: ('A' for Active; 'I' for Inactive)
REMARK    1  A    between atoms: C_1  and  N_2
REMARK    2  A    between atoms: C_9  and  C_10
REMARK    3  A    between atoms: C_13  and  C_14
REMARK                            x       y       z     vdW  Elec       q    Type
REMARK                         _______ _______ _______ _____ _____    ______ ____
ROOT
ATOM      1  C   UNL     1       5.099   2.308  18.660  0.00  0.00    +0.000 C 
ATOM      2  N   UNL     1       4.346   3.583  18.801  0.00  0.00    +0.000 N 
ATOM      3  C   UNL     1       3.174   3.675  19.542  0.00  0.00    +0.000 A 
ATOM      4  C   UNL     1       2.637   2.554  20.243  0.00  0.00    +0.000 A 
ATOM      5  C   UNL     1       1.445   2.629  20.949  0.00  0.00    +0.000 A 
ATOM      6  C   UNL     1       0.726   3.801  20.961  0.00  0.00    +0.000 A 
ATOM      7  C   UNL     1       1.209   4.921  20.302  0.00  0.00    +0.000 A 
ATOM      8  C   UNL     1       2.459   4.918  19.618  0.00  0.00    +0.000 A 
ATOM      9  C   UNL     1       2.985   6.098  18.989  0.00  0.00    +0.000 A 
ATOM     10  C   UNL     1       4.219   5.976  18.276  0.00  0.00    +0.000 A 
ATOM     11  C   UNL     1       4.869   7.098  17.685  0.00  0.00    +0.000 A 
ATOM     12  C   UNL     1       6.041   6.968  16.950  0.00  0.00    +0.000 A 
ATOM     13  C   UNL     1       6.624   5.729  16.789  0.00  0.00    +0.000 A 
ATOM     14  C   UNL     1       6.060   4.618  17.395  0.00  0.00    +0.000 A 
ATOM     15  C   UNL     1       4.862   4.702  18.164  0.00  0.00    +0.000 A 
ENDROOT
BRANCH   9  16
ATOM     16  C   UNL     1       2.249   7.436  19.077  0.00  0.00    +0.000 A 
ATOM     17  C   UNL     1       1.995   8.223  17.931  0.00  0.00    +0.000 A 
ATOM     18  C   UNL     1       1.373   9.472  18.024  0.00  0.00    +0.000 A 
ATOM     19  C   UNL     1       0.938   9.959  19.264  0.00  0.00    +0.000 A 
ATOM     20  C   UNL     1       1.145   9.177  20.406  0.00  0.00    +0.000 A 
ATOM     21  C   UNL     1       1.808   7.950  20.319  0.00  0.00    +0.000 A 
BRANCH  19  22
ATOM     22  C   UNL     1       0.261  11.301  19.396  0.00  0.00    +0.000 C 
ATOM     23  F   UNL     1       0.557  12.130  18.327  0.00  0.00    +0.000 F 
ATOM     24  F   UNL     1      -1.108  11.122  19.452  0.00  0.00    +0.000 F 
ATOM     25  F   UNL     1       0.684  11.919  20.559  0.00  0.00    +0.000 F 
ENDBRANCH  19  22
ENDBRANCH   9  16
TORSDOF 2
ENDMDL
