MODEL 1
REMARK VINA RESULT:      -7.0      0.000      0.000
REMARK  Name = 
REMARK  7 active torsions:
REMARK  status: ('A' for Active; 'I' for Inactive)
REMARK    1  A    between atoms: C_1  and  O_2
REMARK    2  A    between atoms: O_2  and  C_3
REMARK    3  A    between atoms: C_12  and  O_13
REMARK    4  A    between atoms: O_13  and  C_14
REMARK    5  A    between atoms: C_14  and  C_15
REMARK    6  A    between atoms: C_15  and  N_16
REMARK    7  A    between atoms: N_19  and  C_20
REMARK                            x       y       z     vdW  Elec       q    Type
REMARK                         _______ _______ _______ _____ _____    ______ ____
ROOT
ATOM      1  C   UNL     1       1.681   6.191  20.600  0.00  0.00    +0.000 C 
ENDROOT
BRANCH   1   2
ATOM      2  O   UNL     1       2.559   5.544  19.685  0.00  0.00    +0.000 OA
BRANCH   2  12
ATOM      3  C   UNL     1       5.496   4.863  16.459  0.00  0.00    +0.000 A 
ATOM      4  C   UNL     1       6.103   6.123  16.444  0.00  0.00    +0.000 A 
ATOM      5  C   UNL     1       5.477   7.214  17.038  0.00  0.00    +0.000 A 
ATOM      6  C   UNL     1       4.224   7.060  17.629  0.00  0.00    +0.000 A 
ATOM      7  C   UNL     1       3.571   5.816  17.610  0.00  0.00    +0.000 A 
ATOM      8  C   UNL     1       4.223   4.699  17.041  0.00  0.00    +0.000 A 
ATOM      9  C   UNL     1       3.556   3.337  17.023  0.00  0.00    +0.000 C 
ATOM     10  C   UNL     1       2.340   3.222  17.942  0.00  0.00    +0.000 C 
ATOM     11  C   UNL     1       1.470   4.461  17.790  0.00  0.00    +0.000 C 
ATOM     12  C   UNL     1       2.233   5.678  18.304  0.00  0.00    +0.000 C 
BRANCH   3  14
ATOM     13  C   UNL     1       6.335   3.814  14.516  0.00  0.00    +0.000 C 
ATOM     14  O   UNL     1       6.071   3.742  15.914  0.00  0.00    +0.000 OA
ENDBRANCH   3  14
ENDBRANCH   2  12
ENDBRANCH   1   2
BRANCH   1  15
ATOM     15  C   UNL     1       1.868   7.711  20.445  0.00  0.00    +0.000 C 
BRANCH  15  16
ATOM     16  N   UNL     1       0.594   8.444  20.427  0.00  0.00    +0.000 NA
ATOM     17  C   UNL     1      -0.032   8.572  21.751  0.00  0.00    +0.000 C 
ATOM     18  C   UNL     1       0.411   9.806  22.575  0.00  0.00    +0.000 C 
ATOM     19  N   UNL     1       0.309  11.105  21.846  0.00  0.00    +0.000 NA
ATOM     20  C   UNL     1       1.140  10.923  20.630  0.00  0.00    +0.000 C 
ATOM     21  C   UNL     1       0.700   9.741  19.735  0.00  0.00    +0.000 C 
BRANCH  19  22
ATOM     22  C   UNL     1      -1.118  11.443  21.560  0.00  0.00    +0.000 C 
ATOM     23  C   UNL     1      -1.866  11.846  22.849  0.00  0.00    +0.000 C 
ATOM     24  C   UNL     1      -1.445  13.216  23.369  0.00  0.00    +0.000 C 
ATOM     25  C   UNL     1      -1.711  14.305  22.339  0.00  0.00    +0.000 C 
ATOM     26  C   UNL     1      -1.157  13.982  20.955  0.00  0.00    +0.000 C 
ATOM     27  C   UNL     1      -1.389  12.543  20.503  0.00  0.00    +0.000 C 
ENDBRANCH  19  22
ENDBRANCH  15  16
ENDBRANCH   1  15
TORSDOF 6
ENDMDL
MODEL 2
REMARK VINA RESULT:      -6.9      1.794      3.391
REMARK  Name = 
REMARK  7 active torsions:
REMARK  status: ('A' for Active; 'I' for Inactive)
REMARK    1  A    between atoms: C_1  and  O_2
REMARK    2  A    between atoms: O_2  and  C_3
REMARK    3  A    between atoms: C_12  and  O_13
REMARK    4  A    between atoms: O_13  and  C_14
REMARK    5  A    between atoms: C_14  and  C_15
REMARK    6  A    between atoms: C_15  and  N_16
REMARK    7  A    between atoms: N_19  and  C_20
REMARK                            x       y       z     vdW  Elec       q    Type
REMARK                         _______ _______ _______ _____ _____    ______ ____
ROOT
ATOM      1  C   UNL     1       2.402   8.688  17.768  0.00  0.00    +0.000 C 
ENDROOT
BRANCH   1   2
ATOM      2  O   UNL     1       2.191   7.309  18.050  0.00  0.00    +0.000 OA
BRANCH   2  12
ATOM      3  C   UNL     1       2.325   2.941  18.682  0.00  0.00    +0.000 A 
ATOM      4  C   UNL     1       1.404   2.842  19.730  0.00  0.00    +0.000 A 
ATOM      5  C   UNL     1       1.052   3.968  20.467  0.00  0.00    +0.000 A 
ATOM      6  C   UNL     1       1.638   5.199  20.181  0.00  0.00    +0.000 A 
ATOM      7  C   UNL     1       2.606   5.313  19.167  0.00  0.00    +0.000 A 
ATOM      8  C   UNL     1       2.935   4.178  18.392  0.00  0.00    +0.000 A 
ATOM      9  C   UNL     1       3.958   4.270  17.276  0.00  0.00    +0.000 C 
ATOM     10  C   UNL     1       4.309   5.700  16.865  0.00  0.00    +0.000 C 
ATOM     11  C   UNL     1       4.509   6.552  18.109  0.00  0.00    +0.000 C 
ATOM     12  C   UNL     1       3.184   6.676  18.853  0.00  0.00    +0.000 C 
BRANCH   3  14
ATOM     13  C   UNL     1       3.721   1.050  18.446  0.00  0.00    +0.000 C 
ATOM     14  O   UNL     1       2.696   1.875  17.901  0.00  0.00    +0.000 OA
ENDBRANCH   3  14
ENDBRANCH   2  12
ENDBRANCH   1   2
BRANCH   1  15
ATOM     15  C   UNL     1       1.117   9.452  18.136  0.00  0.00    +0.000 C 
BRANCH  15  16
ATOM     16  N   UNL     1       1.146   9.992  19.503  0.00  0.00    +0.000 NA
ATOM     17  C   UNL     1       1.402  11.439  19.561  0.00  0.00    +0.000 C 
ATOM     18  C   UNL     1       0.143  12.336  19.470  0.00  0.00    +0.000 C 
ATOM     19  N   UNL     1      -0.940  11.980  20.434  0.00  0.00    +0.000 NA
ATOM     20  C   UNL     1      -1.251  10.559  20.146  0.00  0.00    +0.000 C 
ATOM     21  C   UNL     1      -0.041   9.606  20.286  0.00  0.00    +0.000 C 
BRANCH  19  22
ATOM     22  C   UNL     1      -0.504  12.233  21.841  0.00  0.00    +0.000 C 
ATOM     23  C   UNL     1      -0.385  13.746  22.126  0.00  0.00    +0.000 C 
ATOM     24  C   UNL     1      -1.743  14.434  22.221  0.00  0.00    +0.000 C 
ATOM     25  C   UNL     1      -2.592  13.833  23.333  0.00  0.00    +0.000 C 
ATOM     26  C   UNL     1      -2.682  12.311  23.275  0.00  0.00    +0.000 C 
ATOM     27  C   UNL     1      -1.360  11.613  22.972  0.00  0.00    +0.000 C 
ENDBRANCH  19  22
ENDBRANCH  15  16
ENDBRANCH   1  15
TORSDOF 6
ENDMDL
MODEL 3
REMARK VINA RESULT:      -6.8      1.606      2.980
REMARK  Name = 
REMARK  7 active torsions:
REMARK  status: ('A' for Active; 'I' for Inactive)
REMARK    1  A    between atoms: C_1  and  O_2
REMARK    2  A    between atoms: O_2  and  C_3
REMARK    3  A    between atoms: C_12  and  O_13
REMARK    4  A    between atoms: O_13  and  C_14
REMARK    5  A    between atoms: C_14  and  C_15
REMARK    6  A    between atoms: C_15  and  N_16
REMARK    7  A    between atoms: N_19  and  C_20
REMARK                            x       y       z     vdW  Elec       q    Type
REMARK                         _______ _______ _______ _____ _____    ______ ____
ROOT
ATOM      1  C   UNL     1       1.952   8.683  17.944  0.00  0.00    +0.000 C 
ENDROOT
BRANCH   1   2
ATOM      2  O   UNL     1       2.145   7.278  17.815  0.00  0.00    +0.000 OA
BRANCH   2  12
ATOM      3  C   UNL     1       2.337   2.943  18.631  0.00  0.00    +0.000 A 
ATOM      4  C   UNL     1       1.377   2.867  19.646  0.00  0.00    +0.000 A 
ATOM      5  C   UNL     1       0.975   4.015  20.322  0.00  0.00    +0.000 A 
ATOM      6  C   UNL     1       1.548   5.245  20.008  0.00  0.00    +0.000 A 
ATOM      7  C   UNL     1       2.553   5.338  19.028  0.00  0.00    +0.000 A 
ATOM      8  C   UNL     1       2.934   4.180  18.315  0.00  0.00    +0.000 A 
ATOM      9  C   UNL     1       3.998   4.248  17.236  0.00  0.00    +0.000 C 
ATOM     10  C   UNL     1       4.338   5.667  16.780  0.00  0.00    +0.000 C 
ATOM     11  C   UNL     1       4.473   6.572  17.995  0.00  0.00    +0.000 C 
ATOM     12  C   UNL     1       3.117   6.698  18.682  0.00  0.00    +0.000 C 
BRANCH   3  14
ATOM     13  C   UNL     1       3.809   1.100  18.505  0.00  0.00    +0.000 C 
ATOM     14  O   UNL     1       2.758   1.855  17.909  0.00  0.00    +0.000 OA
ENDBRANCH   3  14
ENDBRANCH   2  12
ENDBRANCH   1   2
BRANCH   1  15
ATOM     15  C   UNL     1       1.599   8.982  19.412  0.00  0.00    +0.000 C 
BRANCH  15  16
ATOM     16  N   UNL     1       0.293   9.642  19.562  0.00  0.00    +0.000 NA
ATOM     17  C   UNL     1      -0.290   9.497  20.904  0.00  0.00    +0.000 C 
ATOM     18  C   UNL     1       0.127  10.585  21.925  0.00  0.00    +0.000 C 
ATOM     19  N   UNL     1      -0.059  11.986  21.446  0.00  0.00    +0.000 NA
ATOM     20  C   UNL     1       0.734  12.067  20.195  0.00  0.00    +0.000 C 
ATOM     21  C   UNL     1       0.316  11.044  19.113  0.00  0.00    +0.000 C 
BRANCH  19  22
ATOM     22  C   UNL     1      -1.509  12.298  21.265  0.00  0.00    +0.000 C 
ATOM     23  C   UNL     1      -2.255  12.295  22.617  0.00  0.00    +0.000 C 
ATOM     24  C   UNL     1      -1.907  13.502  23.482  0.00  0.00    +0.000 C 
ATOM     25  C   UNL     1      -2.257  14.807  22.780  0.00  0.00    +0.000 C 
ATOM     26  C   UNL     1      -1.712  14.899  21.358  0.00  0.00    +0.000 C 
ATOM     27  C   UNL     1      -1.867  13.619  20.540  0.00  0.00    +0.000 C 
ENDBRANCH  19  22
ENDBRANCH  15  16
ENDBRANCH   1  15
TORSDOF 6
ENDMDL
MODEL 4
REMARK VINA RESULT:      -6.7      1.258      2.058
REMARK  Name = 
REMARK  7 active torsions:
REMARK  status: ('A' for Active; 'I' for Inactive)
REMARK    1  A    between atoms: C_1  and  O_2
REMARK    2  A    between atoms: O_2  and  C_3
REMARK    3  A    between atoms: C_12  and  O_13
REMARK    4  A    between atoms: O_13  and  C_14
REMARK    5  A    between atoms: C_14  and  C_15
REMARK    6  A    between atoms: C_15  and  N_16
REMARK    7  A    between atoms: N_19  and  C_20
REMARK                            x       y       z     vdW  Elec       q    Type
REMARK                         _______ _______ _______ _____ _____    ______ ____
ROOT
ATOM      1  C   UNL     1       2.121   5.781  20.976  0.00  0.00    +0.000 C 
ENDROOT
BRANCH   1   2
ATOM      2  O   UNL     1       2.817   5.080  19.951  0.00  0.00    +0.000 OA
BRANCH   2  12
ATOM      3  C   UNL     1       5.183   4.632  16.250  0.00  0.00    +0.000 A 
ATOM      4  C   UNL     1       5.627   5.951  16.111  0.00  0.00    +0.000 A 
ATOM      5  C   UNL     1       4.995   6.983  16.798  0.00  0.00    +0.000 A 
ATOM      6  C   UNL     1       3.897   6.709  17.609  0.00  0.00    +0.000 A 
ATOM      7  C   UNL     1       3.399   5.398  17.723  0.00  0.00    +0.000 A 
ATOM      8  C   UNL     1       4.063   4.344  17.057  0.00  0.00    +0.000 A 
ATOM      9  C   UNL     1       3.567   2.916  17.175  0.00  0.00    +0.000 C 
ATOM     10  C   UNL     1       2.558   2.695  18.302  0.00  0.00    +0.000 C 
ATOM     11  C   UNL     1       1.538   3.823  18.298  0.00  0.00    +0.000 C 
ATOM     12  C   UNL     1       2.234   5.133  18.651  0.00  0.00    +0.000 C 
BRANCH   3  14
ATOM     13  C   UNL     1       6.295   3.839  14.323  0.00  0.00    +0.000 C 
ATOM     14  O   UNL     1       5.776   3.566  15.621  0.00  0.00    +0.000 OA
ENDBRANCH   3  14
ENDBRANCH   2  12
ENDBRANCH   1   2
BRANCH   1  15
ATOM     15  C   UNL     1       1.196   6.812  20.306  0.00  0.00    +0.000 C 
BRANCH  15  16
ATOM     16  N   UNL     1       1.705   8.188  20.407  0.00  0.00    +0.000 NA
ATOM     17  C   UNL     1       1.718   8.908  19.126  0.00  0.00    +0.000 C 
ATOM     18  C   UNL     1       0.407   9.656  18.777  0.00  0.00    +0.000 C 
ATOM     19  N   UNL     1      -0.095  10.559  19.854  0.00  0.00    +0.000 NA
ATOM     20  C   UNL     1      -0.258   9.681  21.038  0.00  0.00    +0.000 C 
ATOM     21  C   UNL     1       1.039   8.958  21.472  0.00  0.00    +0.000 C 
BRANCH  19  22
ATOM     22  C   UNL     1       0.842  11.702  20.070  0.00  0.00    +0.000 C 
ATOM     23  C   UNL     1       1.024  12.529  18.778  0.00  0.00    +0.000 C 
ATOM     24  C   UNL     1      -0.209  13.356  18.433  0.00  0.00    +0.000 C 
ATOM     25  C   UNL     1      -0.549  14.336  19.547  0.00  0.00    +0.000 C 
ATOM     26  C   UNL     1      -0.617  13.689  20.927  0.00  0.00    +0.000 C 
ATOM     27  C   UNL     1       0.504  12.692  21.211  0.00  0.00    +0.000 C 
ENDBRANCH  19  22
ENDBRANCH  15  16
ENDBRANCH   1  15
TORSDOF 6
ENDMDL
MODEL 5
REMARK VINA RESULT:      -6.7      1.851      3.264
REMARK  Name = 
REMARK  7 active torsions:
REMARK  status: ('A' for Active; 'I' for Inactive)
REMARK    1  A    between atoms: C_1  and  O_2
REMARK    2  A    between atoms: O_2  and  C_3
REMARK    3  A    between atoms: C_12  and  O_13
REMARK    4  A    between atoms: O_13  and  C_14
REMARK    5  A    between atoms: C_14  and  C_15
REMARK    6  A    between atoms: C_15  and  N_16
REMARK    7  A    between atoms: N_19  and  C_20
REMARK                            x       y       z     vdW  Elec       q    Type
REMARK                         _______ _______ _______ _____ _____    ______ ____
ROOT
ATOM      1  C   UNL     1       2.312   8.881  18.135  0.00  0.00    +0.000 C 
ENDROOT
BRANCH   1   2
ATOM      2  O   UNL     1       2.128   7.480  18.307  0.00  0.00    +0.000 OA
BRANCH   2  12
ATOM      3  C   UNL     1       2.260   3.086  18.711  0.00  0.00    +0.000 A 
ATOM      4  C   UNL     1       1.361   2.934  19.772  0.00  0.00    +0.000 A 
ATOM      5  C   UNL     1       1.028   4.022  20.573  0.00  0.00    +0.000 A 
ATOM      6  C   UNL     1       1.612   5.264  20.338  0.00  0.00    +0.000 A 
ATOM      7  C   UNL     1       2.558   5.429  19.311  0.00  0.00    +0.000 A 
ATOM      8  C   UNL     1       2.868   4.335  18.473  0.00  0.00    +0.000 A 
ATOM      9  C   UNL     1       3.868   4.482  17.342  0.00  0.00    +0.000 C 
ATOM     10  C   UNL     1       4.215   5.930  16.997  0.00  0.00    +0.000 C 
ATOM     11  C   UNL     1       4.444   6.716  18.279  0.00  0.00    +0.000 C 
ATOM     12  C   UNL     1       3.134   6.804  19.056  0.00  0.00    +0.000 C 
BRANCH   3  14
ATOM     13  C   UNL     1       3.646   1.207  18.348  0.00  0.00    +0.000 C 
ATOM     14  O   UNL     1       2.611   2.061  17.869  0.00  0.00    +0.000 OA
ENDBRANCH   3  14
ENDBRANCH   2  12
ENDBRANCH   1   2
BRANCH   1  15
ATOM     15  C   UNL     1       0.947   9.503  17.789  0.00  0.00    +0.000 C 
BRANCH  15  16
ATOM     16  N   UNL     1       0.076   9.658  18.963  0.00  0.00    +0.000 NA
ATOM     17  C   UNL     1       0.769  10.192  20.145  0.00  0.00    +0.000 C 
ATOM     18  C   UNL     1       0.806  11.737  20.245  0.00  0.00    +0.000 C 
ATOM     19  N   UNL     1      -0.525  12.398  20.104  0.00  0.00    +0.000 NA
ATOM     20  C   UNL     1      -1.036  11.941  18.789  0.00  0.00    +0.000 C 
ATOM     21  C   UNL     1      -1.156  10.405  18.656  0.00  0.00    +0.000 C 
BRANCH  19  22
ATOM     22  C   UNL     1      -1.415  12.053  21.253  0.00  0.00    +0.000 C 
ATOM     23  C   UNL     1      -0.783  12.479  22.597  0.00  0.00    +0.000 C 
ATOM     24  C   UNL     1      -0.790  13.990  22.797  0.00  0.00    +0.000 C 
ATOM     25  C   UNL     1      -2.208  14.546  22.773  0.00  0.00    +0.000 C 
ATOM     26  C   UNL     1      -3.021  14.087  21.566  0.00  0.00    +0.000 C 
ATOM     27  C   UNL     1      -2.860  12.608  21.224  0.00  0.00    +0.000 C 
ENDBRANCH  19  22
ENDBRANCH  15  16
ENDBRANCH   1  15
TORSDOF 6
ENDMDL
MODEL 6
REMARK VINA RESULT:      -6.6      1.792      3.398
REMARK  Name = 
REMARK  7 active torsions:
REMARK  status: ('A' for Active; 'I' for Inactive)
REMARK    1  A    between atoms: C_1  and  O_2
REMARK    2  A    between atoms: O_2  and  C_3
REMARK    3  A    between atoms: C_12  and  O_13
REMARK    4  A    between atoms: O_13  and  C_14
REMARK    5  A    between atoms: C_14  and  C_15
REMARK    6  A    between atoms: C_15  and  N_16
REMARK    7  A    between atoms: N_19  and  C_20
REMARK                            x       y       z     vdW  Elec       q    Type
REMARK                         _______ _______ _______ _____ _____    ______ ____
ROOT
ATOM      1  C   UNL     1       2.231   8.940  18.035  0.00  0.00    +0.000 C 
ENDROOT
BRANCH   1   2
ATOM      2  O   UNL     1       2.334   7.528  17.887  0.00  0.00    +0.000 OA
BRANCH   2  12
ATOM      3  C   UNL     1       2.311   3.191  18.717  0.00  0.00    +0.000 A 
ATOM      4  C   UNL     1       1.434   3.180  19.807  0.00  0.00    +0.000 A 
ATOM      5  C   UNL     1       1.164   4.353  20.505  0.00  0.00    +0.000 A 
ATOM      6  C   UNL     1       1.788   5.543  20.136  0.00  0.00    +0.000 A 
ATOM      7  C   UNL     1       2.713   5.568  19.078  0.00  0.00    +0.000 A 
ATOM      8  C   UNL     1       2.959   4.386  18.344  0.00  0.00    +0.000 A 
ATOM      9  C   UNL     1       3.934   4.382  17.182  0.00  0.00    +0.000 C 
ATOM     10  C   UNL     1       4.327   5.775  16.689  0.00  0.00    +0.000 C 
ATOM     11  C   UNL     1       4.618   6.672  17.882  0.00  0.00    +0.000 C 
ATOM     12  C   UNL     1       3.334   6.888  18.676  0.00  0.00    +0.000 C 
BRANCH   3  14
ATOM     13  C   UNL     1       3.634   1.247  18.495  0.00  0.00    +0.000 C 
ATOM     14  O   UNL     1       2.601   2.076  17.972  0.00  0.00    +0.000 OA
ENDBRANCH   3  14
ENDBRANCH   2  12
ENDBRANCH   1   2
BRANCH   1  15
ATOM     15  C   UNL     1       1.028   9.237  18.949  0.00  0.00    +0.000 C 
BRANCH  15  16
ATOM     16  N   UNL     1       1.004  10.627  19.427  0.00  0.00    +0.000 NA
ATOM     17  C   UNL     1      -0.025  11.455  18.782  0.00  0.00    +0.000 C 
ATOM     18  C   UNL     1      -1.415  11.430  19.464  0.00  0.00    +0.000 C 
ATOM     19  N   UNL     1      -1.390  11.714  20.929  0.00  0.00    +0.000 NA
ATOM     20  C   UNL     1      -0.476  10.693  21.497  0.00  0.00    +0.000 C 
ATOM     21  C   UNL     1       0.949  10.716  20.897  0.00  0.00    +0.000 C 
BRANCH  19  22
ATOM     22  C   UNL     1      -0.963  13.122  21.191  0.00  0.00    +0.000 C 
ATOM     23  C   UNL     1      -1.967  14.131  20.592  0.00  0.00    +0.000 C 
ATOM     24  C   UNL     1      -3.280  14.183  21.365  0.00  0.00    +0.000 C 
ATOM     25  C   UNL     1      -3.053  14.585  22.816  0.00  0.00    +0.000 C 
ATOM     26  C   UNL     1      -1.968  13.768  23.511  0.00  0.00    +0.000 C 
ATOM     27  C   UNL     1      -0.721  13.528  22.665  0.00  0.00    +0.000 C 
ENDBRANCH  19  22
ENDBRANCH  15  16
ENDBRANCH   1  15
TORSDOF 6
ENDMDL
MODEL 7
REMARK VINA RESULT:      -6.6      5.938      9.772
REMARK  Name = 
REMARK  7 active torsions:
REMARK  status: ('A' for Active; 'I' for Inactive)
REMARK    1  A    between atoms: C_1  and  O_2
REMARK    2  A    between atoms: O_2  and  C_3
REMARK    3  A    between atoms: C_12  and  O_13
REMARK    4  A    between atoms: O_13  and  C_14
REMARK    5  A    between atoms: C_14  and  C_15
REMARK    6  A    between atoms: C_15  and  N_16
REMARK    7  A    between atoms: N_19  and  C_20
REMARK                            x       y       z     vdW  Elec       q    Type
REMARK                         _______ _______ _______ _____ _____    ______ ____
ROOT
ATOM      1  C   UNL     1       8.046   9.084  17.662  0.00  0.00    +0.000 C 
ENDROOT
BRANCH   1   2
ATOM      2  O   UNL     1       8.433  10.146  18.527  0.00  0.00    +0.000 OA
BRANCH   2  12
ATOM      3  C   UNL     1       8.280  14.460  19.455  0.00  0.00    +0.000 A 
ATOM      4  C   UNL     1       7.325  14.855  18.513  0.00  0.00    +0.000 A 
ATOM      5  C   UNL     1       7.021  14.033  17.431  0.00  0.00    +0.000 A 
ATOM      6  C   UNL     1       7.690  12.822  17.268  0.00  0.00    +0.000 A 
ATOM      7  C   UNL     1       8.692  12.429  18.173  0.00  0.00    +0.000 A 
ATOM      8  C   UNL     1       8.973  13.243  19.292  0.00  0.00    +0.000 A 
ATOM      9  C   UNL     1      10.032  12.839  20.300  0.00  0.00    +0.000 C 
ATOM     10  C   UNL     1      10.482  11.382  20.186  0.00  0.00    +0.000 C 
ATOM     11  C   UNL     1      10.698  11.031  18.722  0.00  0.00    +0.000 C 
ATOM     12  C   UNL     1       9.361  11.084  17.989  0.00  0.00    +0.000 C 
BRANCH   3  14
ATOM     13  C   UNL     1       8.676  16.616  20.335  0.00  0.00    +0.000 C 
ATOM     14  O   UNL     1       8.608  15.211  20.556  0.00  0.00    +0.000 OA
ENDBRANCH   3  14
ENDBRANCH   2  12
ENDBRANCH   1   2
BRANCH   1  15
ATOM     15  C   UNL     1       8.298   7.755  18.396  0.00  0.00    +0.000 C 
BRANCH  15  16
ATOM     16  N   UNL     1       7.648   6.609  17.744  0.00  0.00    +0.000 NA
ATOM     17  C   UNL     1       7.573   5.411  18.593  0.00  0.00    +0.000 C 
ATOM     18  C   UNL     1       6.321   5.322  19.500  0.00  0.00    +0.000 C 
ATOM     19  N   UNL     1       5.025   5.509  18.784  0.00  0.00    +0.000 NA
ATOM     20  C   UNL     1       5.142   6.836  18.131  0.00  0.00    +0.000 C 
ATOM     21  C   UNL     1       6.341   6.960  17.162  0.00  0.00    +0.000 C 
BRANCH  19  22
ATOM     22  C   UNL     1       4.775   4.385  17.832  0.00  0.00    +0.000 C 
ATOM     23  C   UNL     1       4.649   3.038  18.578  0.00  0.00    +0.000 C 
ATOM     24  C   UNL     1       3.346   2.920  19.360  0.00  0.00    +0.000 C 
ATOM     25  C   UNL     1       2.136   3.038  18.443  0.00  0.00    +0.000 C 
ATOM     26  C   UNL     1       2.187   4.254  17.523  0.00  0.00    +0.000 C 
ATOM     27  C   UNL     1       3.553   4.510  16.891  0.00  0.00    +0.000 C 
ENDBRANCH  19  22
ENDBRANCH  15  16
ENDBRANCH   1  15
TORSDOF 6
ENDMDL
MODEL 8
REMARK VINA RESULT:      -6.5      6.109      9.893
REMARK  Name = 
REMARK  7 active torsions:
REMARK  status: ('A' for Active; 'I' for Inactive)
REMARK    1  A    between atoms: C_1  and  O_2
REMARK    2  A    between atoms: O_2  and  C_3
REMARK    3  A    between atoms: C_12  and  O_13
REMARK    4  A    between atoms: O_13  and  C_14
REMARK    5  A    between atoms: C_14  and  C_15
REMARK    6  A    between atoms: C_15  and  N_16
REMARK    7  A    between atoms: N_19  and  C_20
REMARK                            x       y       z     vdW  Elec       q    Type
REMARK                         _______ _______ _______ _____ _____    ______ ____
ROOT
ATOM      1  C   UNL     1       8.473   8.704  18.447  0.00  0.00    +0.000 C 
ENDROOT
BRANCH   1   2
ATOM      2  O   UNL     1       8.728  10.104  18.488  0.00  0.00    +0.000 OA
BRANCH   2  12
ATOM      3  C   UNL     1      10.215  14.261  18.538  0.00  0.00    +0.000 A 
ATOM      4  C   UNL     1      11.017  14.222  17.392  0.00  0.00    +0.000 A 
ATOM      5  C   UNL     1      11.416  13.003  16.853  0.00  0.00    +0.000 A 
ATOM      6  C   UNL     1      11.040  11.812  17.470  0.00  0.00    +0.000 A 
ATOM      7  C   UNL     1      10.279  11.827  18.652  0.00  0.00    +0.000 A 
ATOM      8  C   UNL     1       9.841  13.063  19.180  0.00  0.00    +0.000 A 
ATOM      9  C   UNL     1       9.001  13.115  20.441  0.00  0.00    +0.000 C 
ATOM     10  C   UNL     1       8.412  11.767  20.857  0.00  0.00    +0.000 C 
ATOM     11  C   UNL     1       9.477  10.688  20.735  0.00  0.00    +0.000 C 
ATOM     12  C   UNL     1       9.850  10.513  19.267  0.00  0.00    +0.000 C 
BRANCH   3  14
ATOM     13  C   UNL     1      10.451  16.606  18.691  0.00  0.00    +0.000 C 
ATOM     14  O   UNL     1       9.768  15.427  19.106  0.00  0.00    +0.000 OA
ENDBRANCH   3  14
ENDBRANCH   2  12
ENDBRANCH   1   2
BRANCH   1  15
ATOM     15  C   UNL     1       7.260   8.467  17.529  0.00  0.00    +0.000 C 
BRANCH  15  16
ATOM     16  N   UNL     1       7.038   7.045  17.231  0.00  0.00    +0.000 NA
ATOM     17  C   UNL     1       7.279   6.158  18.379  0.00  0.00    +0.000 C 
ATOM     18  C   UNL     1       6.057   5.927  19.302  0.00  0.00    +0.000 C 
ATOM     19  N   UNL     1       4.816   5.500  18.591  0.00  0.00    +0.000 NA
ATOM     20  C   UNL     1       4.563   6.570  17.595  0.00  0.00    +0.000 C 
ATOM     21  C   UNL     1       5.728   6.799  16.604  0.00  0.00    +0.000 C 
BRANCH  19  22
ATOM     22  C   UNL     1       4.987   4.142  17.991  0.00  0.00    +0.000 C 
ATOM     23  C   UNL     1       4.853   3.037  19.062  0.00  0.00    +0.000 C 
ATOM     24  C   UNL     1       3.417   2.855  19.541  0.00  0.00    +0.000 C 
ATOM     25  C   UNL     1       2.493   2.479  18.390  0.00  0.00    +0.000 C 
ATOM     26  C   UNL     1       2.620   3.401  17.181  0.00  0.00    +0.000 C 
ATOM     27  C   UNL     1       4.056   3.763  16.814  0.00  0.00    +0.000 C 
ENDBRANCH  19  22
ENDBRANCH  15  16
ENDBRANCH   1  15
TORSDOF 6
ENDMDL
MODEL 9
REMARK VINA RESULT:      -6.5      3.365      9.172
REMARK  Name = 
REMARK  7 active torsions:
REMARK  status: ('A' for Active; 'I' for Inactive)
REMARK    1  A    between atoms: C_1  and  O_2
REMARK    2  A    between atoms: O_2  and  C_3
REMARK    3  A    between atoms: C_12  and  O_13
REMARK    4  A    between atoms: O_13  and  C_14
REMARK    5  A    between atoms: C_14  and  C_15
REMARK    6  A    between atoms: C_15  and  N_16
REMARK    7  A    between atoms: N_19  and  C_20
REMARK                            x       y       z     vdW  Elec       q    Type
REMARK                         _______ _______ _______ _____ _____    ______ ____
ROOT
ATOM      1  C   UNL     1       0.452   9.405  20.733  0.00  0.00    +0.000 C 
ENDROOT
BRANCH   1   2
ATOM      2  O   UNL     1      -0.665   9.690  19.898  0.00  0.00    +0.000 OA
BRANCH   2  12
ATOM      3  C   UNL     1      -4.118  11.510  17.835  0.00  0.00    +0.000 A 
ATOM      4  C   UNL     1      -4.154  10.692  16.701  0.00  0.00    +0.000 A 
ATOM      5  C   UNL     1      -3.048   9.922  16.353  0.00  0.00    +0.000 A 
ATOM      6  C   UNL     1      -1.887   9.985  17.120  0.00  0.00    +0.000 A 
ATOM      7  C   UNL     1      -1.809  10.840  18.233  0.00  0.00    +0.000 A 
ATOM      8  C   UNL     1      -2.944  11.592  18.610  0.00  0.00    +0.000 A 
ATOM      9  C   UNL     1      -2.902  12.508  19.818  0.00  0.00    +0.000 C 
ATOM     10  C   UNL     1      -1.703  12.277  20.738  0.00  0.00    +0.000 C 
ATOM     11  C   UNL     1      -0.444  12.119  19.900  0.00  0.00    +0.000 C 
ATOM     12  C   UNL     1      -0.548  10.844  19.070  0.00  0.00    +0.000 C 
BRANCH   3  14
ATOM     13  C   UNL     1      -6.459  11.825  17.806  0.00  0.00    +0.000 C 
ATOM     14  O   UNL     1      -5.181  12.274  18.247  0.00  0.00    +0.000 OA
ENDBRANCH   3  14
ENDBRANCH   2  12
ENDBRANCH   1   2
BRANCH   1  15
ATOM     15  C   UNL     1       0.644   7.878  20.768  0.00  0.00    +0.000 C 
BRANCH  15  16
ATOM     16  N   UNL     1       2.028   7.469  20.489  0.00  0.00    +0.000 NA
ATOM     17  C   UNL     1       2.228   6.013  20.502  0.00  0.00    +0.000 C 
ATOM     18  C   UNL     1       1.980   5.301  19.149  0.00  0.00    +0.000 C 
ATOM     19  N   UNL     1       2.714   5.896  17.994  0.00  0.00    +0.000 NA
ATOM     20  C   UNL     1       2.281   7.315  17.961  0.00  0.00    +0.000 C 
ATOM     21  C   UNL     1       2.564   8.093  19.267  0.00  0.00    +0.000 C 
BRANCH  19  22
ATOM     22  C   UNL     1       4.189   5.716  18.151  0.00  0.00    +0.000 C 
ATOM     23  C   UNL     1       4.602   4.248  17.907  0.00  0.00    +0.000 C 
ATOM     24  C   UNL     1       4.517   3.851  16.437  0.00  0.00    +0.000 C 
ATOM     25  C   UNL     1       5.422   4.721  15.575  0.00  0.00    +0.000 C 
ATOM     26  C   UNL     1       5.237   6.216  15.814  0.00  0.00    +0.000 C 
ATOM     27  C   UNL     1       5.110   6.608  17.283  0.00  0.00    +0.000 C 
ENDBRANCH  19  22
ENDBRANCH  15  16
ENDBRANCH   1  15
TORSDOF 6
ENDMDL
