MODEL 1
REMARK VINA RESULT:      -9.1      0.000      0.000
REMARK  Name = 
REMARK  6 active torsions:
REMARK  status: ('A' for Active; 'I' for Inactive)
REMARK    1  A    between atoms: C_2  and  C_3
REMARK    2  A    between atoms: N_5  and  C_6
REMARK    3  A    between atoms: C_11  and  N_12
REMARK    4  A    between atoms: N_12  and  C_13
REMARK    5  A    between atoms: N_16  and  C_17
REMARK    6  A    between atoms: C_25  and  C_26
REMARK                            x       y       z     vdW  Elec       q    Type
REMARK                         _______ _______ _______ _____ _____    ______ ____
ROOT
ATOM      1  C   UNL     1       3.107   4.921  19.833  0.00  0.00    +0.000 A 
ATOM      2  N   UNL     1       4.368   4.948  19.329  0.00  0.00    +0.000 NA
ATOM      3  C   UNL     1       4.977   3.796  19.045  0.00  0.00    +0.000 A 
ATOM      4  N   UNL     1       6.279   3.758  18.629  0.00  0.00    +0.000 N 
ATOM      5  N   UNL     1       4.390   2.605  19.195  0.00  0.00    +0.000 NA
ATOM      6  C   UNL     1       3.149   2.593  19.705  0.00  0.00    +0.000 A 
ATOM      7  C   UNL     1       2.458   3.729  20.077  0.00  0.00    +0.000 A 
ATOM      8  H   UNL     1       6.483   2.822  18.285  0.00  0.00    +0.000 HD
ENDROOT
BRANCH   4   9
ATOM      9  C   UNL     1       6.910   4.871  17.930  0.00  0.00    +0.000 C 
ATOM     10  C   UNL     1       7.442   5.922  18.908  0.00  0.00    +0.000 C 
ATOM     11  C   UNL     1       7.820   7.203  18.179  0.00  0.00    +0.000 C 
ATOM     12  O   UNL     1       6.708   7.708  17.449  0.00  0.00    +0.000 OA
ATOM     13  C   UNL     1       6.303   6.815  16.416  0.00  0.00    +0.000 C 
ATOM     14  C   UNL     1       5.853   5.487  16.999  0.00  0.00    +0.000 C 
ENDBRANCH   4   9
BRANCH   7  15
ATOM     15  C   UNL     1       1.104   3.569  20.660  0.00  0.00    +0.000 C 
ATOM     16  F   UNL     1       0.390   4.727  20.733  0.00  0.00    +0.000 F 
ATOM     17  F   UNL     1       0.329   2.710  19.940  0.00  0.00    +0.000 F 
ATOM     18  F   UNL     1       1.131   3.067  21.924  0.00  0.00    +0.000 F 
ENDBRANCH   7  15
BRANCH   1  19
ATOM     19  N   UNL     1       2.530   6.163  20.226  0.00  0.00    +0.000 N 
ATOM     20  H   UNL     1       1.583   6.038  20.592  0.00  0.00    +0.000 HD
BRANCH  19  26
ATOM     21  C   UNL     1       1.676   8.423  19.804  0.00  0.00    +0.000 A 
ATOM     22  C   UNL     1       1.457   9.501  18.938  0.00  0.00    +0.000 A 
ATOM     23  C   UNL     1       2.001   9.498  17.656  0.00  0.00    +0.000 A 
ATOM     24  C   UNL     1       2.747   8.405  17.227  0.00  0.00    +0.000 A 
ATOM     25  C   UNL     1       2.966   7.325  18.086  0.00  0.00    +0.000 A 
ATOM     26  C   UNL     1       2.466   7.329  19.398  0.00  0.00    +0.000 A 
BRANCH  21  29
ATOM     27  C   UNL     1      -0.035   9.094  21.419  0.00  0.00    +0.000 C 
ATOM     28  O   UNL     1      -0.873   9.478  20.609  0.00  0.00    +0.000 OA
ATOM     29  N   UNL     1       1.143   8.451  21.110  0.00  0.00    +0.000 N 
ATOM     30  H   UNL     1       1.543   7.802  21.778  0.00  0.00    +0.000 HD
BRANCH  27  32
ATOM     31  C   UNL     1      -0.913  10.315  23.347  0.00  0.00    +0.000 C 
ATOM     32  C   UNL     1      -0.243   9.255  22.879  0.00  0.00    +0.000 C 
ENDBRANCH  27  32
ENDBRANCH  21  29
ENDBRANCH  19  26
ENDBRANCH   1  19
TORSDOF 6
ENDMDL
MODEL 2
REMARK VINA RESULT:      -8.8      2.237      6.921
REMARK  Name = 
REMARK  6 active torsions:
REMARK  status: ('A' for Active; 'I' for Inactive)
REMARK    1  A    between atoms: C_2  and  C_3
REMARK    2  A    between atoms: N_5  and  C_6
REMARK    3  A    between atoms: C_11  and  N_12
REMARK    4  A    between atoms: N_12  and  C_13
REMARK    5  A    between atoms: N_16  and  C_17
REMARK    6  A    between atoms: C_25  and  C_26
REMARK                            x       y       z     vdW  Elec       q    Type
REMARK                         _______ _______ _______ _____ _____    ______ ____
ROOT
ATOM      1  C   UNL     1       3.215   4.814  18.893  0.00  0.00    +0.000 A 
ATOM      2  N   UNL     1       2.578   5.920  19.358  0.00  0.00    +0.000 NA
ATOM      3  C   UNL     1       1.583   5.774  20.234  0.00  0.00    +0.000 A 
ATOM      4  N   UNL     1       0.842   6.841  20.660  0.00  0.00    +0.000 N 
ATOM      5  N   UNL     1       1.204   4.586  20.715  0.00  0.00    +0.000 NA
ATOM      6  C   UNL     1       1.834   3.502  20.238  0.00  0.00    +0.000 A 
ATOM      7  C   UNL     1       2.839   3.549  19.292  0.00  0.00    +0.000 A 
ATOM      8  H   UNL     1       0.279   6.549  21.455  0.00  0.00    +0.000 HD
ENDROOT
BRANCH   4   9
ATOM      9  C   UNL     1       1.370   8.200  20.688  0.00  0.00    +0.000 C 
ATOM     10  C   UNL     1       0.731   9.030  21.804  0.00  0.00    +0.000 C 
ATOM     11  C   UNL     1       1.055  10.508  21.638  0.00  0.00    +0.000 C 
ATOM     12  O   UNL     1       0.634  10.970  20.360  0.00  0.00    +0.000 OA
ATOM     13  C   UNL     1       1.343  10.328  19.305  0.00  0.00    +0.000 C 
ATOM     14  C   UNL     1       1.083   8.831  19.315  0.00  0.00    +0.000 C 
ENDBRANCH   4   9
BRANCH   7  15
ATOM     15  C   UNL     1       3.428   2.270  18.827  0.00  0.00    +0.000 C 
ATOM     16  F   UNL     1       4.606   1.948  19.432  0.00  0.00    +0.000 F 
ATOM     17  F   UNL     1       2.603   1.208  19.053  0.00  0.00    +0.000 F 
ATOM     18  F   UNL     1       3.680   2.261  17.491  0.00  0.00    +0.000 F 
ENDBRANCH   7  15
BRANCH   1  19
ATOM     19  N   UNL     1       4.199   5.000  17.879  0.00  0.00    +0.000 N 
ATOM     20  H   UNL     1       4.118   4.295  17.142  0.00  0.00    +0.000 HD
BRANCH  19  26
ATOM     21  C   UNL     1       6.518   4.503  17.257  0.00  0.00    +0.000 A 
ATOM     22  C   UNL     1       7.883   4.474  17.567  0.00  0.00    +0.000 A 
ATOM     23  C   UNL     1       8.353   5.054  18.742  0.00  0.00    +0.000 A 
ATOM     24  C   UNL     1       7.454   5.645  19.625  0.00  0.00    +0.000 A 
ATOM     25  C   UNL     1       6.091   5.674  19.323  0.00  0.00    +0.000 A 
ATOM     26  C   UNL     1       5.603   5.136  18.121  0.00  0.00    +0.000 A 
BRANCH  21  29
ATOM     27  C   UNL     1       6.420   4.425  14.813  0.00  0.00    +0.000 C 
ATOM     28  O   UNL     1       7.345   5.201  14.595  0.00  0.00    +0.000 OA
ATOM     29  N   UNL     1       6.059   3.936  16.049  0.00  0.00    +0.000 N 
ATOM     30  H   UNL     1       5.622   3.023  16.113  0.00  0.00    +0.000 HD
BRANCH  27  32
ATOM     31  C   UNL     1       6.168   3.518  12.557  0.00  0.00    +0.000 C 
ATOM     32  C   UNL     1       5.592   3.880  13.709  0.00  0.00    +0.000 C 
ENDBRANCH  27  32
ENDBRANCH  21  29
ENDBRANCH  19  26
ENDBRANCH   1  19
TORSDOF 6
ENDMDL
MODEL 3
REMARK VINA RESULT:      -8.5      3.102      6.772
REMARK  Name = 
REMARK  6 active torsions:
REMARK  status: ('A' for Active; 'I' for Inactive)
REMARK    1  A    between atoms: C_2  and  C_3
REMARK    2  A    between atoms: N_5  and  C_6
REMARK    3  A    between atoms: C_11  and  N_12
REMARK    4  A    between atoms: N_12  and  C_13
REMARK    5  A    between atoms: N_16  and  C_17
REMARK    6  A    between atoms: C_25  and  C_26
REMARK                            x       y       z     vdW  Elec       q    Type
REMARK                         _______ _______ _______ _____ _____    ______ ____
ROOT
ATOM      1  C   UNL     1       4.098   4.886  16.649  0.00  0.00    +0.000 A 
ATOM      2  N   UNL     1       3.515   5.947  17.266  0.00  0.00    +0.000 NA
ATOM      3  C   UNL     1       3.956   7.176  16.995  0.00  0.00    +0.000 A 
ATOM      4  N   UNL     1       3.475   8.271  17.658  0.00  0.00    +0.000 N 
ATOM      5  N   UNL     1       4.924   7.424  16.108  0.00  0.00    +0.000 NA
ATOM      6  C   UNL     1       5.498   6.367  15.515  0.00  0.00    +0.000 A 
ATOM      7  C   UNL     1       5.146   5.056  15.770  0.00  0.00    +0.000 A 
ATOM      8  H   UNL     1       3.791   9.108  17.174  0.00  0.00    +0.000 HD
ENDROOT
BRANCH   4   9
ATOM      9  C   UNL     1       2.140   8.310  18.241  0.00  0.00    +0.000 C 
ATOM     10  C   UNL     1       1.505   9.696  18.105  0.00  0.00    +0.000 C 
ATOM     11  C   UNL     1       0.258   9.812  18.970  0.00  0.00    +0.000 C 
ATOM     12  O   UNL     1       0.566   9.528  20.330  0.00  0.00    +0.000 OA
ATOM     13  C   UNL     1       0.999   8.182  20.504  0.00  0.00    +0.000 C 
ATOM     14  C   UNL     1       2.274   7.922  19.723  0.00  0.00    +0.000 C 
ENDBRANCH   4   9
BRANCH   7  15
ATOM     15  C   UNL     1       5.887   3.980  15.068  0.00  0.00    +0.000 C 
ATOM     16  F   UNL     1       5.908   2.792  15.736  0.00  0.00    +0.000 F 
ATOM     17  F   UNL     1       5.357   3.699  13.844  0.00  0.00    +0.000 F 
ATOM     18  F   UNL     1       7.189   4.301  14.839  0.00  0.00    +0.000 F 
ENDBRANCH   7  15
BRANCH   1  19
ATOM     19  N   UNL     1       3.676   3.584  17.043  0.00  0.00    +0.000 N 
ATOM     20  H   UNL     1       2.951   3.219  16.420  0.00  0.00    +0.000 HD
BRANCH  19  26
ATOM     21  C   UNL     1       4.222   3.052  19.374  0.00  0.00    +0.000 A 
ATOM     22  C   UNL     1       3.856   2.538  20.624  0.00  0.00    +0.000 A 
ATOM     23  C   UNL     1       2.537   2.175  20.880  0.00  0.00    +0.000 A 
ATOM     24  C   UNL     1       1.581   2.302  19.877  0.00  0.00    +0.000 A 
ATOM     25  C   UNL     1       1.940   2.812  18.627  0.00  0.00    +0.000 A 
ATOM     26  C   UNL     1       3.255   3.228  18.364  0.00  0.00    +0.000 A 
BRANCH  21  29
ATOM     27  C   UNL     1       5.988   4.742  19.281  0.00  0.00    +0.000 C 
ATOM     28  O   UNL     1       5.379   5.638  19.858  0.00  0.00    +0.000 OA
ATOM     29  N   UNL     1       5.557   3.443  19.137  0.00  0.00    +0.000 N 
ATOM     30  H   UNL     1       6.241   2.698  19.062  0.00  0.00    +0.000 HD
BRANCH  27  32
ATOM     31  C   UNL     1       7.758   6.226  18.480  0.00  0.00    +0.000 C 
ATOM     32  C   UNL     1       7.330   4.977  18.693  0.00  0.00    +0.000 C 
ENDBRANCH  27  32
ENDBRANCH  21  29
ENDBRANCH  19  26
ENDBRANCH   1  19
TORSDOF 6
ENDMDL
MODEL 4
REMARK VINA RESULT:      -8.5      4.265      6.205
REMARK  Name = 
REMARK  6 active torsions:
REMARK  status: ('A' for Active; 'I' for Inactive)
REMARK    1  A    between atoms: C_2  and  C_3
REMARK    2  A    between atoms: N_5  and  C_6
REMARK    3  A    between atoms: C_11  and  N_12
REMARK    4  A    between atoms: N_12  and  C_13
REMARK    5  A    between atoms: N_16  and  C_17
REMARK    6  A    between atoms: C_25  and  C_26
REMARK                            x       y       z     vdW  Elec       q    Type
REMARK                         _______ _______ _______ _____ _____    ______ ____
ROOT
ATOM      1  C   UNL     1       6.160   4.374  17.180  0.00  0.00    +0.000 A 
ATOM      2  N   UNL     1       5.843   4.137  15.880  0.00  0.00    +0.000 NA
ATOM      3  C   UNL     1       6.421   4.869  14.929  0.00  0.00    +0.000 A 
ATOM      4  N   UNL     1       6.069   4.743  13.614  0.00  0.00    +0.000 N 
ATOM      5  N   UNL     1       7.338   5.807  15.187  0.00  0.00    +0.000 NA
ATOM      6  C   UNL     1       7.632   6.038  16.475  0.00  0.00    +0.000 A 
ATOM      7  C   UNL     1       7.047   5.368  17.532  0.00  0.00    +0.000 A 
ATOM      8  H   UNL     1       6.752   5.238  13.045  0.00  0.00    +0.000 HD
ENDROOT
BRANCH   4   9
ATOM      9  C   UNL     1       5.523   3.508  13.065  0.00  0.00    +0.000 C 
ATOM     10  C   UNL     1       6.584   2.712  12.302  0.00  0.00    +0.000 C 
ATOM     11  C   UNL     1       5.948   1.595  11.486  0.00  0.00    +0.000 C 
ATOM     12  O   UNL     1       4.974   2.123  10.594  0.00  0.00    +0.000 OA
ATOM     13  C   UNL     1       3.886   2.721  11.292  0.00  0.00    +0.000 C 
ATOM     14  C   UNL     1       4.364   3.894  12.131  0.00  0.00    +0.000 C 
ENDBRANCH   4   9
BRANCH   7  15
ATOM     15  C   UNL     1       7.441   5.747  18.910  0.00  0.00    +0.000 C 
ATOM     16  F   UNL     1       8.360   4.914  19.475  0.00  0.00    +0.000 F 
ATOM     17  F   UNL     1       7.997   6.991  18.966  0.00  0.00    +0.000 F 
ATOM     18  F   UNL     1       6.388   5.777  19.769  0.00  0.00    +0.000 F 
ENDBRANCH   7  15
BRANCH   1  19
ATOM     19  N   UNL     1       5.443   3.647  18.174  0.00  0.00    +0.000 N 
ATOM     20  H   UNL     1       5.953   2.812  18.471  0.00  0.00    +0.000 HD
BRANCH  19  26
ATOM     21  C   UNL     1       3.072   4.209  17.892  0.00  0.00    +0.000 A 
ATOM     22  C   UNL     1       1.720   3.850  17.949  0.00  0.00    +0.000 A 
ATOM     23  C   UNL     1       1.349   2.529  18.186  0.00  0.00    +0.000 A 
ATOM     24  C   UNL     1       2.331   1.565  18.393  0.00  0.00    +0.000 A 
ATOM     25  C   UNL     1       3.682   1.918  18.341  0.00  0.00    +0.000 A 
ATOM     26  C   UNL     1       4.077   3.235  18.056  0.00  0.00    +0.000 A 
BRANCH  21  29
ATOM     27  C   UNL     1       3.067   6.594  18.436  0.00  0.00    +0.000 C 
ATOM     28  O   UNL     1       2.632   6.493  19.580  0.00  0.00    +0.000 OA
ATOM     29  N   UNL     1       3.434   5.546  17.623  0.00  0.00    +0.000 N 
ATOM     30  H   UNL     1       4.155   5.689  16.924  0.00  0.00    +0.000 HD
BRANCH  27  32
ATOM     31  C   UNL     1       2.307   8.829  17.800  0.00  0.00    +0.000 C 
ATOM     32  C   UNL     1       3.289   7.921  17.809  0.00  0.00    +0.000 C 
ENDBRANCH  27  32
ENDBRANCH  21  29
ENDBRANCH  19  26
ENDBRANCH   1  19
TORSDOF 6
ENDMDL
MODEL 5
REMARK VINA RESULT:      -8.4      1.347      1.880
REMARK  Name = 
REMARK  6 active torsions:
REMARK  status: ('A' for Active; 'I' for Inactive)
REMARK    1  A    between atoms: C_2  and  C_3
REMARK    2  A    between atoms: N_5  and  C_6
REMARK    3  A    between atoms: C_11  and  N_12
REMARK    4  A    between atoms: N_12  and  C_13
REMARK    5  A    between atoms: N_16  and  C_17
REMARK    6  A    between atoms: C_25  and  C_26
REMARK                            x       y       z     vdW  Elec       q    Type
REMARK                         _______ _______ _______ _____ _____    ______ ____
ROOT
ATOM      1  C   UNL     1       2.999   4.665  19.427  0.00  0.00    +0.000 A 
ATOM      2  N   UNL     1       3.911   4.568  18.426  0.00  0.00    +0.000 NA
ATOM      3  C   UNL     1       4.209   3.365  17.935  0.00  0.00    +0.000 A 
ATOM      4  N   UNL     1       5.190   3.196  16.997  0.00  0.00    +0.000 N 
ATOM      5  N   UNL     1       3.619   2.241  18.354  0.00  0.00    +0.000 NA
ATOM      6  C   UNL     1       2.729   2.351  19.351  0.00  0.00    +0.000 A 
ATOM      7  C   UNL     1       2.395   3.546  19.957  0.00  0.00    +0.000 A 
ATOM      8  H   UNL     1       5.122   2.253  16.623  0.00  0.00    +0.000 HD
ENDROOT
BRANCH   4   9
ATOM      9  C   UNL     1       5.572   4.251  16.067  0.00  0.00    +0.000 C 
ATOM     10  C   UNL     1       6.106   3.677  14.752  0.00  0.00    +0.000 C 
ATOM     11  C   UNL     1       6.778   4.758  13.917  0.00  0.00    +0.000 C 
ATOM     12  O   UNL     1       7.821   5.382  14.656  0.00  0.00    +0.000 OA
ATOM     13  C   UNL     1       7.321   6.071  15.798  0.00  0.00    +0.000 C 
ATOM     14  C   UNL     1       6.649   5.104  16.758  0.00  0.00    +0.000 C 
ENDBRANCH   4   9
BRANCH   7  15
ATOM     15  C   UNL     1       1.418   3.519  21.073  0.00  0.00    +0.000 C 
ATOM     16  F   UNL     1       0.822   2.308  21.261  0.00  0.00    +0.000 F 
ATOM     17  F   UNL     1       1.990   3.830  22.270  0.00  0.00    +0.000 F 
ATOM     18  F   UNL     1       0.405   4.411  20.907  0.00  0.00    +0.000 F 
ENDBRANCH   7  15
BRANCH   1  19
ATOM     19  N   UNL     1       2.786   5.953  20.000  0.00  0.00    +0.000 N 
ATOM     20  H   UNL     1       1.982   5.955  20.633  0.00  0.00    +0.000 HD
BRANCH  19  26
ATOM     21  C   UNL     1       1.851   8.204  19.727  0.00  0.00    +0.000 A 
ATOM     22  C   UNL     1       1.597   9.330  18.934  0.00  0.00    +0.000 A 
ATOM     23  C   UNL     1       2.147   9.434  17.659  0.00  0.00    +0.000 A 
ATOM     24  C   UNL     1       2.934   8.401  17.162  0.00  0.00    +0.000 A 
ATOM     25  C   UNL     1       3.188   7.273  17.947  0.00  0.00    +0.000 A 
ATOM     26  C   UNL     1       2.683   7.170  19.253  0.00  0.00    +0.000 A 
BRANCH  21  29
ATOM     27  C   UNL     1       0.173   8.801  21.404  0.00  0.00    +0.000 C 
ATOM     28  O   UNL     1      -0.634   9.322  20.640  0.00  0.00    +0.000 OA
ATOM     29  N   UNL     1       1.311   8.123  21.028  0.00  0.00    +0.000 N 
ATOM     30  H   UNL     1       1.666   7.382  21.622  0.00  0.00    +0.000 HD
BRANCH  27  32
ATOM     31  C   UNL     1      -0.555   9.897  23.465  0.00  0.00    +0.000 C 
ATOM     32  C   UNL     1      -0.035   8.815  22.873  0.00  0.00    +0.000 C 
ENDBRANCH  27  32
ENDBRANCH  21  29
ENDBRANCH  19  26
ENDBRANCH   1  19
TORSDOF 6
ENDMDL
MODEL 6
REMARK VINA RESULT:      -8.4      3.378      6.369
REMARK  Name = 
REMARK  6 active torsions:
REMARK  status: ('A' for Active; 'I' for Inactive)
REMARK    1  A    between atoms: C_2  and  C_3
REMARK    2  A    between atoms: N_5  and  C_6
REMARK    3  A    between atoms: C_11  and  N_12
REMARK    4  A    between atoms: N_12  and  C_13
REMARK    5  A    between atoms: N_16  and  C_17
REMARK    6  A    between atoms: C_25  and  C_26
REMARK                            x       y       z     vdW  Elec       q    Type
REMARK                         _______ _______ _______ _____ _____    ______ ____
ROOT
ATOM      1  C   UNL     1       2.920   6.977  18.594  0.00  0.00    +0.000 A 
ATOM      2  N   UNL     1       2.922   5.852  19.355  0.00  0.00    +0.000 NA
ATOM      3  C   UNL     1       2.200   5.827  20.475  0.00  0.00    +0.000 A 
ATOM      4  N   UNL     1       2.242   4.760  21.330  0.00  0.00    +0.000 N 
ATOM      5  N   UNL     1       1.432   6.847  20.871  0.00  0.00    +0.000 NA
ATOM      6  C   UNL     1       1.449   7.955  20.115  0.00  0.00    +0.000 A 
ATOM      7  C   UNL     1       2.205   8.095  18.968  0.00  0.00    +0.000 A 
ATOM      8  H   UNL     1       1.486   4.855  22.004  0.00  0.00    +0.000 HD
ENDROOT
BRANCH   4   9
ATOM      9  C   UNL     1       2.563   3.411  20.883  0.00  0.00    +0.000 C 
ATOM     10  C   UNL     1       3.940   3.351  20.216  0.00  0.00    +0.000 C 
ATOM     11  C   UNL     1       4.138   2.027  19.491  0.00  0.00    +0.000 C 
ATOM     12  O   UNL     1       3.104   1.824  18.535  0.00  0.00    +0.000 OA
ATOM     13  C   UNL     1       1.827   1.705  19.154  0.00  0.00    +0.000 C 
ATOM     14  C   UNL     1       1.467   2.982  19.893  0.00  0.00    +0.000 C 
ENDBRANCH   4   9
BRANCH   7  15
ATOM     15  C   UNL     1       2.155   9.389  18.247  0.00  0.00    +0.000 C 
ATOM     16  F   UNL     1       3.370   9.834  17.817  0.00  0.00    +0.000 F 
ATOM     17  F   UNL     1       1.376   9.329  17.129  0.00  0.00    +0.000 F 
ATOM     18  F   UNL     1       1.636  10.394  19.002  0.00  0.00    +0.000 F 
ENDBRANCH   7  15
BRANCH   1  19
ATOM     19  N   UNL     1       3.787   7.008  17.463  0.00  0.00    +0.000 N 
ATOM     20  H   UNL     1       3.313   7.378  16.635  0.00  0.00    +0.000 HD
BRANCH  19  26
ATOM     21  C   UNL     1       5.851   6.111  16.489  0.00  0.00    +0.000 A 
ATOM     22  C   UNL     1       6.553   5.071  15.866  0.00  0.00    +0.000 A 
ATOM     23  C   UNL     1       5.972   3.815  15.720  0.00  0.00    +0.000 A 
ATOM     24  C   UNL     1       4.675   3.599  16.175  0.00  0.00    +0.000 A 
ATOM     25  C   UNL     1       3.968   4.633  16.795  0.00  0.00    +0.000 A 
ATOM     26  C   UNL     1       4.554   5.894  16.994  0.00  0.00    +0.000 A 
BRANCH  21  29
ATOM     27  C   UNL     1       7.413   7.616  17.620  0.00  0.00    +0.000 C 
ATOM     28  O   UNL     1       8.022   6.760  18.255  0.00  0.00    +0.000 OA
ATOM     29  N   UNL     1       6.462   7.372  16.655  0.00  0.00    +0.000 N 
ATOM     30  H   UNL     1       6.335   8.040  15.904  0.00  0.00    +0.000 HD
BRANCH  27  32
ATOM     31  C   UNL     1       8.728   9.451  18.559  0.00  0.00    +0.000 C 
ATOM     32  C   UNL     1       7.688   9.061  17.812  0.00  0.00    +0.000 C 
ENDBRANCH  27  32
ENDBRANCH  21  29
ENDBRANCH  19  26
ENDBRANCH   1  19
TORSDOF 6
ENDMDL
MODEL 7
REMARK VINA RESULT:      -8.3      7.259      9.727
REMARK  Name = 
REMARK  6 active torsions:
REMARK  status: ('A' for Active; 'I' for Inactive)
REMARK    1  A    between atoms: C_2  and  C_3
REMARK    2  A    between atoms: N_5  and  C_6
REMARK    3  A    between atoms: C_11  and  N_12
REMARK    4  A    between atoms: N_12  and  C_13
REMARK    5  A    between atoms: N_16  and  C_17
REMARK    6  A    between atoms: C_25  and  C_26
REMARK                            x       y       z     vdW  Elec       q    Type
REMARK                         _______ _______ _______ _____ _____    ______ ____
ROOT
ATOM      1  C   UNL     1      -2.775  11.882  18.980  0.00  0.00    +0.000 A 
ATOM      2  N   UNL     1      -2.235  12.471  20.080  0.00  0.00    +0.000 NA
ATOM      3  C   UNL     1      -1.073  12.019  20.552  0.00  0.00    +0.000 A 
ATOM      4  N   UNL     1      -0.533  12.506  21.709  0.00  0.00    +0.000 N 
ATOM      5  N   UNL     1      -0.383  11.034  19.969  0.00  0.00    +0.000 NA
ATOM      6  C   UNL     1      -0.934  10.454  18.891  0.00  0.00    +0.000 A 
ATOM      7  C   UNL     1      -2.156  10.817  18.361  0.00  0.00    +0.000 A 
ATOM      8  H   UNL     1       0.427  12.177  21.783  0.00  0.00    +0.000 HD
ENDROOT
BRANCH   4   9
ATOM      9  C   UNL     1      -0.809  13.852  22.197  0.00  0.00    +0.000 C 
ATOM     10  C   UNL     1       0.423  14.753  22.091  0.00  0.00    +0.000 C 
ATOM     11  C   UNL     1       0.222  16.046  22.870  0.00  0.00    +0.000 C 
ATOM     12  O   UNL     1      -0.083  15.765  24.231  0.00  0.00    +0.000 OA
ATOM     13  C   UNL     1      -1.320  15.071  24.363  0.00  0.00    +0.000 C 
ATOM     14  C   UNL     1      -1.259  13.725  23.662  0.00  0.00    +0.000 C 
ENDBRANCH   4   9
BRANCH   7  15
ATOM     15  C   UNL     1      -2.662  10.069  17.185  0.00  0.00    +0.000 C 
ATOM     16  F   UNL     1      -3.372  10.830  16.305  0.00  0.00    +0.000 F 
ATOM     17  F   UNL     1      -1.656   9.513  16.453  0.00  0.00    +0.000 F 
ATOM     18  F   UNL     1      -3.479   9.038  17.529  0.00  0.00    +0.000 F 
ENDBRANCH   7  15
BRANCH   1  19
ATOM     19  N   UNL     1      -4.068  12.318  18.569  0.00  0.00    +0.000 N 
ATOM     20  H   UNL     1      -4.161  13.334  18.638  0.00  0.00    +0.000 HD
BRANCH  19  26
ATOM     21  C   UNL     1      -5.846  12.305  20.258  0.00  0.00    +0.000 A 
ATOM     22  C   UNL     1      -6.954  11.691  20.855  0.00  0.00    +0.000 A 
ATOM     23  C   UNL     1      -7.522  10.553  20.289  0.00  0.00    +0.000 A 
ATOM     24  C   UNL     1      -6.967  10.009  19.135  0.00  0.00    +0.000 A 
ATOM     25  C   UNL     1      -5.860  10.614  18.536  0.00  0.00    +0.000 A 
ATOM     26  C   UNL     1      -5.302  11.789  19.064  0.00  0.00    +0.000 A 
BRANCH  21  29
ATOM     27  C   UNL     1      -4.764  13.505  22.095  0.00  0.00    +0.000 C 
ATOM     28  O   UNL     1      -4.463  12.523  22.767  0.00  0.00    +0.000 OA
ATOM     29  N   UNL     1      -5.298  13.474  20.826  0.00  0.00    +0.000 N 
ATOM     30  H   UNL     1      -5.115  14.243  20.192  0.00  0.00    +0.000 HD
BRANCH  27  32
ATOM     31  C   UNL     1      -5.025  15.258  23.779  0.00  0.00    +0.000 C 
ATOM     32  C   UNL     1      -4.531  14.883  22.593  0.00  0.00    +0.000 C 
ENDBRANCH  27  32
ENDBRANCH  21  29
ENDBRANCH  19  26
ENDBRANCH   1  19
TORSDOF 6
ENDMDL
MODEL 8
REMARK VINA RESULT:      -8.2      1.972      6.056
REMARK  Name = 
REMARK  6 active torsions:
REMARK  status: ('A' for Active; 'I' for Inactive)
REMARK    1  A    between atoms: C_2  and  C_3
REMARK    2  A    between atoms: N_5  and  C_6
REMARK    3  A    between atoms: C_11  and  N_12
REMARK    4  A    between atoms: N_12  and  C_13
REMARK    5  A    between atoms: N_16  and  C_17
REMARK    6  A    between atoms: C_25  and  C_26
REMARK                            x       y       z     vdW  Elec       q    Type
REMARK                         _______ _______ _______ _____ _____    ______ ____
ROOT
ATOM      1  C   UNL     1       3.969   5.015  19.640  0.00  0.00    +0.000 A 
ATOM      2  N   UNL     1       3.244   6.159  19.538  0.00  0.00    +0.000 NA
ATOM      3  C   UNL     1       1.966   6.151  19.916  0.00  0.00    +0.000 A 
ATOM      4  N   UNL     1       1.161   7.243  19.744  0.00  0.00    +0.000 N 
ATOM      5  N   UNL     1       1.366   5.075  20.435  0.00  0.00    +0.000 NA
ATOM      6  C   UNL     1       2.091   3.949  20.519  0.00  0.00    +0.000 A 
ATOM      7  C   UNL     1       3.404   3.846  20.104  0.00  0.00    +0.000 A 
ATOM      8  H   UNL     1       0.301   7.098  20.267  0.00  0.00    +0.000 HD
ENDROOT
BRANCH   4   9
ATOM      9  C   UNL     1       1.686   8.602  19.699  0.00  0.00    +0.000 C 
ATOM     10  C   UNL     1       0.813   9.571  20.500  0.00  0.00    +0.000 C 
ATOM     11  C   UNL     1       1.187  11.016  20.204  0.00  0.00    +0.000 C 
ATOM     12  O   UNL     1       1.086  11.280  18.809  0.00  0.00    +0.000 OA
ATOM     13  C   UNL     1       2.016  10.508  18.055  0.00  0.00    +0.000 C 
ATOM     14  C   UNL     1       1.741   9.024  18.221  0.00  0.00    +0.000 C 
ENDBRANCH   4   9
BRANCH   7  15
ATOM     15  C   UNL     1       4.078   2.531  20.224  0.00  0.00    +0.000 C 
ATOM     16  F   UNL     1       5.436   2.591  20.130  0.00  0.00    +0.000 F 
ATOM     17  F   UNL     1       3.823   1.925  21.418  0.00  0.00    +0.000 F 
ATOM     18  F   UNL     1       3.677   1.646  19.271  0.00  0.00    +0.000 F 
ENDBRANCH   7  15
BRANCH   1  19
ATOM     19  N   UNL     1       5.299   5.031  19.126  0.00  0.00    +0.000 N 
ATOM     20  H   UNL     1       5.787   5.895  19.374  0.00  0.00    +0.000 HD
BRANCH  19  26
ATOM     21  C   UNL     1       6.652   5.552  17.149  0.00  0.00    +0.000 A 
ATOM     22  C   UNL     1       6.893   5.443  15.773  0.00  0.00    +0.000 A 
ATOM     23  C   UNL     1       6.130   4.581  14.990  0.00  0.00    +0.000 A 
ATOM     24  C   UNL     1       5.106   3.842  15.574  0.00  0.00    +0.000 A 
ATOM     25  C   UNL     1       4.860   3.949  16.945  0.00  0.00    +0.000 A 
ATOM     26  C   UNL     1       5.648   4.776  17.762  0.00  0.00    +0.000 A 
BRANCH  21  29
ATOM     27  C   UNL     1       7.516   7.767  17.727  0.00  0.00    +0.000 C 
ATOM     28  O   UNL     1       6.733   8.422  17.046  0.00  0.00    +0.000 OA
ATOM     29  N   UNL     1       7.451   6.407  17.937  0.00  0.00    +0.000 N 
ATOM     30  H   UNL     1       7.815   6.021  18.800  0.00  0.00    +0.000 HD
BRANCH  27  32
ATOM     31  C   UNL     1       8.749   9.747  18.458  0.00  0.00    +0.000 C 
ATOM     32  C   UNL     1       8.632   8.414  18.458  0.00  0.00    +0.000 C 
ENDBRANCH  27  32
ENDBRANCH  21  29
ENDBRANCH  19  26
ENDBRANCH   1  19
TORSDOF 6
ENDMDL
MODEL 9
REMARK VINA RESULT:      -8.1      6.983     10.934
REMARK  Name = 
REMARK  6 active torsions:
REMARK  status: ('A' for Active; 'I' for Inactive)
REMARK    1  A    between atoms: C_2  and  C_3
REMARK    2  A    between atoms: N_5  and  C_6
REMARK    3  A    between atoms: C_11  and  N_12
REMARK    4  A    between atoms: N_12  and  C_13
REMARK    5  A    between atoms: N_16  and  C_17
REMARK    6  A    between atoms: C_25  and  C_26
REMARK                            x       y       z     vdW  Elec       q    Type
REMARK                         _______ _______ _______ _____ _____    ______ ____
ROOT
ATOM      1  C   UNL     1      -3.734  11.960  18.780  0.00  0.00    +0.000 A 
ATOM      2  N   UNL     1      -4.593  12.475  19.698  0.00  0.00    +0.000 NA
ATOM      3  C   UNL     1      -5.905  12.315  19.519  0.00  0.00    +0.000 A 
ATOM      4  N   UNL     1      -6.817  12.896  20.355  0.00  0.00    +0.000 N 
ATOM      5  N   UNL     1      -6.422  11.631  18.494  0.00  0.00    +0.000 NA
ATOM      6  C   UNL     1      -5.563  11.138  17.590  0.00  0.00    +0.000 A 
ATOM      7  C   UNL     1      -4.193  11.297  17.662  0.00  0.00    +0.000 A 
ATOM      8  H   UNL     1      -7.733  12.496  20.165  0.00  0.00    +0.000 HD
ENDROOT
BRANCH   4   9
ATOM      9  C   UNL     1      -6.513  13.217  21.744  0.00  0.00    +0.000 C 
ATOM     10  C   UNL     1      -7.212  12.257  22.711  0.00  0.00    +0.000 C 
ATOM     11  C   UNL     1      -7.139  12.774  24.141  0.00  0.00    +0.000 C 
ATOM     12  O   UNL     1      -7.701  14.078  24.229  0.00  0.00    +0.000 OA
ATOM     13  C   UNL     1      -6.959  15.026  23.467  0.00  0.00    +0.000 C 
ATOM     14  C   UNL     1      -6.975  14.662  21.993  0.00  0.00    +0.000 C 
ENDBRANCH   4   9
BRANCH   7  15
ATOM     15  C   UNL     1      -3.361  10.728  16.575  0.00  0.00    +0.000 C 
ATOM     16  F   UNL     1      -2.290  11.499  16.232  0.00  0.00    +0.000 F 
ATOM     17  F   UNL     1      -2.841   9.512  16.903  0.00  0.00    +0.000 F 
ATOM     18  F   UNL     1      -4.061  10.530  15.425  0.00  0.00    +0.000 F 
ENDBRANCH   7  15
BRANCH   1  19
ATOM     19  N   UNL     1      -2.347  12.243  18.946  0.00  0.00    +0.000 N 
ATOM     20  H   UNL     1      -1.897  12.456  18.053  0.00  0.00    +0.000 HD
BRANCH  19  26
ATOM     21  C   UNL     1      -1.036  11.743  20.958  0.00  0.00    +0.000 A 
ATOM     22  C   UNL     1      -0.007  11.041  21.598  0.00  0.00    +0.000 A 
ATOM     23  C   UNL     1       0.661  10.012  20.941  0.00  0.00    +0.000 A 
ATOM     24  C   UNL     1       0.319   9.696  19.630  0.00  0.00    +0.000 A 
ATOM     25  C   UNL     1      -0.704  10.394  18.985  0.00  0.00    +0.000 A 
ATOM     26  C   UNL     1      -1.423  11.403  19.646  0.00  0.00    +0.000 A 
BRANCH  21  29
ATOM     27  C   UNL     1      -2.480  12.525  22.771  0.00  0.00    +0.000 C 
ATOM     28  O   UNL     1      -2.447  11.504  23.450  0.00  0.00    +0.000 OA
ATOM     29  N   UNL     1      -1.724  12.765  21.645  0.00  0.00    +0.000 N 
ATOM     30  H   UNL     1      -1.475  13.718  21.409  0.00  0.00    +0.000 HD
BRANCH  27  32
ATOM     31  C   UNL     1      -3.588  13.938  24.430  0.00  0.00    +0.000 C 
ATOM     32  C   UNL     1      -3.348  13.671  23.141  0.00  0.00    +0.000 C 
ENDBRANCH  27  32
ENDBRANCH  21  29
ENDBRANCH  19  26
ENDBRANCH   1  19
TORSDOF 6
ENDMDL
