MODEL 1
REMARK VINA RESULT:      -7.9      0.000      0.000
REMARK  Name = 
REMARK  6 active torsions:
REMARK  status: ('A' for Active; 'I' for Inactive)
REMARK    1  A    between atoms: N_3  and  C_4
REMARK    2  A    between atoms: C_4  and  C_5
REMARK    3  A    between atoms: C_5  and  C_6
REMARK    4  A    between atoms: C_6  and  C_7
REMARK    5  A    between atoms: N_13  and  C_14
REMARK    6  A    between atoms: C_14  and  C_15
REMARK                            x       y       z     vdW  Elec       q    Type
REMARK                         _______ _______ _______ _____ _____    ______ ____
ROOT
ATOM      1  O   UNL     1       8.374   7.131  18.799  0.00  0.00    +0.000 OA
ATOM      2  C   UNL     1       7.922   7.898  17.951  0.00  0.00    +0.000 C 
ATOM      3  N   UNL     1       7.094   7.494  16.934  0.00  0.00    +0.000 N 
ATOM      4  N   UNL     1       8.204   9.228  17.914  0.00  0.00    +0.000 N 
ATOM      5  H   UNL     1       6.713   8.176  16.299  0.00  0.00    +0.000 HD
ATOM      6  H   UNL     1       7.680   9.804  17.276  0.00  0.00    +0.000 HD
ENDROOT
BRANCH   3   7
ATOM      7  C   UNL     1       6.668   6.107  16.818  0.00  0.00    +0.000 C 
BRANCH   7   8
ATOM      8  C   UNL     1       5.561   5.772  17.812  0.00  0.00    +0.000 C 
BRANCH   8   9
ATOM      9  C   UNL     1       4.179   5.819  17.155  0.00  0.00    +0.000 C 
BRANCH   9  10
ATOM     10  C   UNL     1       3.371   4.592  17.504  0.00  0.00    +0.000 A 
ATOM     11  C   UNL     1       2.030   4.706  17.899  0.00  0.00    +0.000 A 
ATOM     12  C   UNL     1       1.311   3.576  18.292  0.00  0.00    +0.000 A 
ATOM     13  C   UNL     1       1.923   2.324  18.295  0.00  0.00    +0.000 A 
ATOM     14  C   UNL     1       3.250   2.198  17.889  0.00  0.00    +0.000 A 
ATOM     15  C   UNL     1       3.970   3.326  17.494  0.00  0.00    +0.000 A 
ENDBRANCH   9  10
ENDBRANCH   8   9
ENDBRANCH   7   8
ENDBRANCH   3   7
BRANCH   4  16
ATOM     16  C   UNL     1       9.069   9.897  18.885  0.00  0.00    +0.000 C 
BRANCH  16  17
ATOM     17  C   UNL     1       9.279  11.399  18.575  0.00  0.00    +0.000 C 
ATOM     18  C   UNL     1       9.298  12.234  19.867  0.00  0.00    +0.000 C 
ATOM     19  C   UNL     1      10.530  11.943  20.722  0.00  0.00    +0.000 C 
ATOM     20  C   UNL     1      11.819  12.178  19.941  0.00  0.00    +0.000 C 
ATOM     21  C   UNL     1      11.846  11.421  18.614  0.00  0.00    +0.000 C 
ATOM     22  C   UNL     1      10.581  11.661  17.788  0.00  0.00    +0.000 C 
ENDBRANCH  16  17
ENDBRANCH   4  16
TORSDOF 6
ENDMDL
MODEL 2
REMARK VINA RESULT:      -7.8      0.915      1.227
REMARK  Name = 
REMARK  6 active torsions:
REMARK  status: ('A' for Active; 'I' for Inactive)
REMARK    1  A    between atoms: N_3  and  C_4
REMARK    2  A    between atoms: C_4  and  C_5
REMARK    3  A    between atoms: C_5  and  C_6
REMARK    4  A    between atoms: C_6  and  C_7
REMARK    5  A    between atoms: N_13  and  C_14
REMARK    6  A    between atoms: C_14  and  C_15
REMARK                            x       y       z     vdW  Elec       q    Type
REMARK                         _______ _______ _______ _____ _____    ______ ____
ROOT
ATOM      1  O   UNL     1       8.299   7.086  18.762  0.00  0.00    +0.000 OA
ATOM      2  C   UNL     1       7.806   7.877  17.960  0.00  0.00    +0.000 C 
ATOM      3  N   UNL     1       6.862   7.519  17.031  0.00  0.00    +0.000 N 
ATOM      4  N   UNL     1       8.151   9.191  17.893  0.00  0.00    +0.000 N 
ATOM      5  H   UNL     1       6.456   8.221  16.435  0.00  0.00    +0.000 HD
ATOM      6  H   UNL     1       7.596   9.795  17.308  0.00  0.00    +0.000 HD
ENDROOT
BRANCH   3   7
ATOM      7  C   UNL     1       6.356   6.156  16.960  0.00  0.00    +0.000 C 
BRANCH   7   8
ATOM      8  C   UNL     1       5.195   5.935  17.924  0.00  0.00    +0.000 C 
BRANCH   8   9
ATOM      9  C   UNL     1       3.998   5.284  17.226  0.00  0.00    +0.000 C 
BRANCH   9  10
ATOM     10  C   UNL     1       2.950   4.862  18.228  0.00  0.00    +0.000 A 
ATOM     11  C   UNL     1       2.884   5.466  19.492  0.00  0.00    +0.000 A 
ATOM     12  C   UNL     1       1.962   5.020  20.441  0.00  0.00    +0.000 A 
ATOM     13  C   UNL     1       1.099   3.968  20.137  0.00  0.00    +0.000 A 
ATOM     14  C   UNL     1       1.146   3.372  18.878  0.00  0.00    +0.000 A 
ATOM     15  C   UNL     1       2.065   3.817  17.928  0.00  0.00    +0.000 A 
ENDBRANCH   9  10
ENDBRANCH   8   9
ENDBRANCH   7   8
ENDBRANCH   3   7
BRANCH   4  16
ATOM     16  C   UNL     1       9.140   9.812  18.773  0.00  0.00    +0.000 C 
BRANCH  16  17
ATOM     17  C   UNL     1       9.307  11.330  18.521  0.00  0.00    +0.000 C 
ATOM     18  C   UNL     1       9.277  12.118  19.842  0.00  0.00    +0.000 C 
ATOM     19  C   UNL     1      10.504  11.835  20.707  0.00  0.00    +0.000 C 
ATOM     20  C   UNL     1      11.798  12.139  19.957  0.00  0.00    +0.000 C 
ATOM     21  C   UNL     1      11.871  11.432  18.605  0.00  0.00    +0.000 C 
ATOM     22  C   UNL     1      10.612  11.662  17.766  0.00  0.00    +0.000 C 
ENDBRANCH  16  17
ENDBRANCH   4  16
TORSDOF 6
ENDMDL
MODEL 3
REMARK VINA RESULT:      -7.7      0.663      1.335
REMARK  Name = 
REMARK  6 active torsions:
REMARK  status: ('A' for Active; 'I' for Inactive)
REMARK    1  A    between atoms: N_3  and  C_4
REMARK    2  A    between atoms: C_4  and  C_5
REMARK    3  A    between atoms: C_5  and  C_6
REMARK    4  A    between atoms: C_6  and  C_7
REMARK    5  A    between atoms: N_13  and  C_14
REMARK    6  A    between atoms: C_14  and  C_15
REMARK                            x       y       z     vdW  Elec       q    Type
REMARK                         _______ _______ _______ _____ _____    ______ ____
ROOT
ATOM      1  O   UNL     1       8.418   7.197  18.850  0.00  0.00    +0.000 OA
ATOM      2  C   UNL     1       8.030   8.030  18.031  0.00  0.00    +0.000 C 
ATOM      3  N   UNL     1       7.252   7.714  16.946  0.00  0.00    +0.000 N 
ATOM      4  N   UNL     1       8.342   9.351  18.100  0.00  0.00    +0.000 N 
ATOM      5  H   UNL     1       6.921   8.446  16.338  0.00  0.00    +0.000 HD
ATOM      6  H   UNL     1       7.866   9.981  17.474  0.00  0.00    +0.000 HD
ENDROOT
BRANCH   3   7
ATOM      7  C   UNL     1       6.804   6.349  16.714  0.00  0.00    +0.000 C 
BRANCH   7   8
ATOM      8  C   UNL     1       5.373   6.307  16.188  0.00  0.00    +0.000 C 
BRANCH   8   9
ATOM      9  C   UNL     1       4.352   6.489  17.314  0.00  0.00    +0.000 C 
BRANCH   9  10
ATOM     10  C   UNL     1       3.598   5.206  17.575  0.00  0.00    +0.000 A 
ATOM     11  C   UNL     1       4.223   3.962  17.407  0.00  0.00    +0.000 A 
ATOM     12  C   UNL     1       3.500   2.780  17.577  0.00  0.00    +0.000 A 
ATOM     13  C   UNL     1       2.149   2.829  17.914  0.00  0.00    +0.000 A 
ATOM     14  C   UNL     1       1.522   4.060  18.098  0.00  0.00    +0.000 A 
ATOM     15  C   UNL     1       2.244   5.243  17.931  0.00  0.00    +0.000 A 
ENDBRANCH   9  10
ENDBRANCH   8   9
ENDBRANCH   7   8
ENDBRANCH   3   7
BRANCH   4  16
ATOM     16  C   UNL     1       9.165   9.934  19.159  0.00  0.00    +0.000 C 
BRANCH  16  17
ATOM     17  C   UNL     1       9.175  11.481  19.138  0.00  0.00    +0.000 C 
ATOM     18  C   UNL     1      10.003  12.046  20.304  0.00  0.00    +0.000 C 
ATOM     19  C   UNL     1      11.494  11.748  20.149  0.00  0.00    +0.000 C 
ATOM     20  C   UNL     1      12.035  12.286  18.828  0.00  0.00    +0.000 C 
ATOM     21  C   UNL     1      11.223  11.809  17.625  0.00  0.00    +0.000 C 
ATOM     22  C   UNL     1       9.723  12.048  17.811  0.00  0.00    +0.000 C 
ENDBRANCH  16  17
ENDBRANCH   4  16
TORSDOF 6
ENDMDL
MODEL 4
REMARK VINA RESULT:      -7.5      0.809      1.361
REMARK  Name = 
REMARK  6 active torsions:
REMARK  status: ('A' for Active; 'I' for Inactive)
REMARK    1  A    between atoms: N_3  and  C_4
REMARK    2  A    between atoms: C_4  and  C_5
REMARK    3  A    between atoms: C_5  and  C_6
REMARK    4  A    between atoms: C_6  and  C_7
REMARK    5  A    between atoms: N_13  and  C_14
REMARK    6  A    between atoms: C_14  and  C_15
REMARK                            x       y       z     vdW  Elec       q    Type
REMARK                         _______ _______ _______ _____ _____    ______ ____
ROOT
ATOM      1  O   UNL     1       8.443   7.324  18.795  0.00  0.00    +0.000 OA
ATOM      2  C   UNL     1       7.927   8.014  17.917  0.00  0.00    +0.000 C 
ATOM      3  N   UNL     1       7.103   7.504  16.945  0.00  0.00    +0.000 N 
ATOM      4  N   UNL     1       8.127   9.354  17.801  0.00  0.00    +0.000 N 
ATOM      5  H   UNL     1       6.668   8.125  16.283  0.00  0.00    +0.000 HD
ATOM      6  H   UNL     1       7.554   9.860  17.145  0.00  0.00    +0.000 HD
ENDROOT
BRANCH   3   7
ATOM      7  C   UNL     1       6.760   6.090  16.916  0.00  0.00    +0.000 C 
BRANCH   7   8
ATOM      8  C   UNL     1       5.500   5.832  16.097  0.00  0.00    +0.000 C 
BRANCH   8   9
ATOM      9  C   UNL     1       5.053   4.371  16.194  0.00  0.00    +0.000 C 
BRANCH   9  10
ATOM     10  C   UNL     1       3.846   4.231  17.090  0.00  0.00    +0.000 A 
ATOM     11  C   UNL     1       3.226   2.986  17.266  0.00  0.00    +0.000 A 
ATOM     12  C   UNL     1       2.066   2.877  18.035  0.00  0.00    +0.000 A 
ATOM     13  C   UNL     1       1.514   4.009  18.633  0.00  0.00    +0.000 A 
ATOM     14  C   UNL     1       2.131   5.248  18.476  0.00  0.00    +0.000 A 
ATOM     15  C   UNL     1       3.292   5.359  17.709  0.00  0.00    +0.000 A 
ENDBRANCH   9  10
ENDBRANCH   8   9
ENDBRANCH   7   8
ENDBRANCH   3   7
BRANCH   4  16
ATOM     16  C   UNL     1       8.969  10.127  18.711  0.00  0.00    +0.000 C 
BRANCH  16  17
ATOM     17  C   UNL     1       9.501  11.437  18.081  0.00  0.00    +0.000 C 
ATOM     18  C   UNL     1       9.010  12.667  18.862  0.00  0.00    +0.000 C 
ATOM     19  C   UNL     1       9.630  12.748  20.256  0.00  0.00    +0.000 C 
ATOM     20  C   UNL     1      11.155  12.759  20.188  0.00  0.00    +0.000 C 
ATOM     21  C   UNL     1      11.712  11.592  19.376  0.00  0.00    +0.000 C 
ATOM     22  C   UNL     1      11.042  11.471  18.005  0.00  0.00    +0.000 C 
ENDBRANCH  16  17
ENDBRANCH   4  16
TORSDOF 6
ENDMDL
MODEL 5
REMARK VINA RESULT:      -7.5      1.294      1.956
REMARK  Name = 
REMARK  6 active torsions:
REMARK  status: ('A' for Active; 'I' for Inactive)
REMARK    1  A    between atoms: N_3  and  C_4
REMARK    2  A    between atoms: C_4  and  C_5
REMARK    3  A    between atoms: C_5  and  C_6
REMARK    4  A    between atoms: C_6  and  C_7
REMARK    5  A    between atoms: N_13  and  C_14
REMARK    6  A    between atoms: C_14  and  C_15
REMARK                            x       y       z     vdW  Elec       q    Type
REMARK                         _______ _______ _______ _____ _____    ______ ____
ROOT
ATOM      1  O   UNL     1       8.275   7.120  18.877  0.00  0.00    +0.000 OA
ATOM      2  C   UNL     1       7.923   7.861  17.961  0.00  0.00    +0.000 C 
ATOM      3  N   UNL     1       7.173   7.436  16.893  0.00  0.00    +0.000 N 
ATOM      4  N   UNL     1       8.249   9.180  17.895  0.00  0.00    +0.000 N 
ATOM      5  H   UNL     1       6.870   8.100  16.200  0.00  0.00    +0.000 HD
ATOM      6  H   UNL     1       7.800   9.741  17.190  0.00  0.00    +0.000 HD
ENDROOT
BRANCH   3   7
ATOM      7  C   UNL     1       6.714   6.058  16.798  0.00  0.00    +0.000 C 
BRANCH   7   8
ATOM      8  C   UNL     1       5.356   5.962  16.111  0.00  0.00    +0.000 C 
BRANCH   8   9
ATOM      9  C   UNL     1       4.471   4.892  16.756  0.00  0.00    +0.000 C 
BRANCH   9  10
ATOM     10  C   UNL     1       3.714   5.454  17.935  0.00  0.00    +0.000 A 
ATOM     11  C   UNL     1       3.455   4.663  19.063  0.00  0.00    +0.000 A 
ATOM     12  C   UNL     1       2.689   5.164  20.118  0.00  0.00    +0.000 A 
ATOM     13  C   UNL     1       2.175   6.458  20.055  0.00  0.00    +0.000 A 
ATOM     14  C   UNL     1       2.439   7.258  18.945  0.00  0.00    +0.000 A 
ATOM     15  C   UNL     1       3.206   6.760  17.891  0.00  0.00    +0.000 A 
ENDBRANCH   9  10
ENDBRANCH   8   9
ENDBRANCH   7   8
ENDBRANCH   3   7
BRANCH   4  16
ATOM     16  C   UNL     1       9.048   9.866  18.909  0.00  0.00    +0.000 C 
BRANCH  16  17
ATOM     17  C   UNL     1       9.211  11.380  18.630  0.00  0.00    +0.000 C 
ATOM     18  C   UNL     1       9.308  12.178  19.941  0.00  0.00    +0.000 C 
ATOM     19  C   UNL     1      10.603  11.885  20.698  0.00  0.00    +0.000 C 
ATOM     20  C   UNL     1      11.829  12.166  19.835  0.00  0.00    +0.000 C 
ATOM     21  C   UNL     1      11.774  11.448  18.488  0.00  0.00    +0.000 C 
ATOM     22  C   UNL     1      10.449  11.688  17.760  0.00  0.00    +0.000 C 
ENDBRANCH  16  17
ENDBRANCH   4  16
TORSDOF 6
ENDMDL
MODEL 6
REMARK VINA RESULT:      -7.5      0.916      1.377
REMARK  Name = 
REMARK  6 active torsions:
REMARK  status: ('A' for Active; 'I' for Inactive)
REMARK    1  A    between atoms: N_3  and  C_4
REMARK    2  A    between atoms: C_4  and  C_5
REMARK    3  A    between atoms: C_5  and  C_6
REMARK    4  A    between atoms: C_6  and  C_7
REMARK    5  A    between atoms: N_13  and  C_14
REMARK    6  A    between atoms: C_14  and  C_15
REMARK                            x       y       z     vdW  Elec       q    Type
REMARK                         _______ _______ _______ _____ _____    ______ ____
ROOT
ATOM      1  O   UNL     1       8.456   7.273  18.747  0.00  0.00    +0.000 OA
ATOM      2  C   UNL     1       7.929   8.014  17.918  0.00  0.00    +0.000 C 
ATOM      3  N   UNL     1       7.083   7.564  16.936  0.00  0.00    +0.000 N 
ATOM      4  N   UNL     1       8.139   9.356  17.871  0.00  0.00    +0.000 N 
ATOM      5  H   UNL     1       6.640   8.224  16.318  0.00  0.00    +0.000 HD
ATOM      6  H   UNL     1       7.559   9.903  17.255  0.00  0.00    +0.000 HD
ENDROOT
BRANCH   3   7
ATOM      7  C   UNL     1       6.726   6.157  16.837  0.00  0.00    +0.000 C 
BRANCH   7   8
ATOM      8  C   UNL     1       5.334   5.968  16.245  0.00  0.00    +0.000 C 
BRANCH   8   9
ATOM      9  C   UNL     1       4.853   4.521  16.383  0.00  0.00    +0.000 C 
BRANCH   9  10
ATOM     10  C   UNL     1       3.652   4.433  17.294  0.00  0.00    +0.000 A 
ATOM     11  C   UNL     1       3.356   5.470  18.190  0.00  0.00    +0.000 A 
ATOM     12  C   UNL     1       2.289   5.350  19.082  0.00  0.00    +0.000 A 
ATOM     13  C   UNL     1       1.510   4.194  19.089  0.00  0.00    +0.000 A 
ATOM     14  C   UNL     1       1.786   3.164  18.192  0.00  0.00    +0.000 A 
ATOM     15  C   UNL     1       2.851   3.283  17.298  0.00  0.00    +0.000 A 
ENDBRANCH   9  10
ENDBRANCH   8   9
ENDBRANCH   7   8
ENDBRANCH   3   7
BRANCH   4  16
ATOM     16  C   UNL     1       9.006  10.072  18.806  0.00  0.00    +0.000 C 
BRANCH  16  17
ATOM     17  C   UNL     1       9.824  11.200  18.132  0.00  0.00    +0.000 C 
ATOM     18  C   UNL     1       9.073  12.542  18.194  0.00  0.00    +0.000 C 
ATOM     19  C   UNL     1       8.970  13.077  19.621  0.00  0.00    +0.000 C 
ATOM     20  C   UNL     1      10.346  13.229  20.261  0.00  0.00    +0.000 C 
ATOM     21  C   UNL     1      11.172  11.947  20.185  0.00  0.00    +0.000 C 
ATOM     22  C   UNL     1      11.220  11.375  18.766  0.00  0.00    +0.000 C 
ENDBRANCH  16  17
ENDBRANCH   4  16
TORSDOF 6
ENDMDL
MODEL 7
REMARK VINA RESULT:      -7.5      4.638      8.170
REMARK  Name = 
REMARK  6 active torsions:
REMARK  status: ('A' for Active; 'I' for Inactive)
REMARK    1  A    between atoms: N_3  and  C_4
REMARK    2  A    between atoms: C_4  and  C_5
REMARK    3  A    between atoms: C_5  and  C_6
REMARK    4  A    between atoms: C_6  and  C_7
REMARK    5  A    between atoms: N_13  and  C_14
REMARK    6  A    between atoms: C_14  and  C_15
REMARK                            x       y       z     vdW  Elec       q    Type
REMARK                         _______ _______ _______ _____ _____    ______ ____
ROOT
ATOM      1  O   UNL     1       5.510   3.714  19.621  0.00  0.00    +0.000 OA
ATOM      2  C   UNL     1       5.258   4.883  19.336  0.00  0.00    +0.000 C 
ATOM      3  N   UNL     1       6.148   5.713  18.701  0.00  0.00    +0.000 N 
ATOM      4  N   UNL     1       4.077   5.490  19.631  0.00  0.00    +0.000 N 
ATOM      5  H   UNL     1       5.867   6.645  18.446  0.00  0.00    +0.000 HD
ATOM      6  H   UNL     1       3.902   6.399  19.234  0.00  0.00    +0.000 HD
ENDROOT
BRANCH   3   7
ATOM      7  C   UNL     1       7.460   5.235  18.292  0.00  0.00    +0.000 C 
BRANCH   7   8
ATOM      8  C   UNL     1       7.417   4.580  16.915  0.00  0.00    +0.000 C 
BRANCH   8   9
ATOM      9  C   UNL     1       6.968   5.566  15.834  0.00  0.00    +0.000 C 
BRANCH   9  10
ATOM     10  C   UNL     1       6.807   4.873  14.502  0.00  0.00    +0.000 A 
ATOM     11  C   UNL     1       7.668   5.163  13.435  0.00  0.00    +0.000 A 
ATOM     12  C   UNL     1       7.467   4.576  12.184  0.00  0.00    +0.000 A 
ATOM     13  C   UNL     1       6.405   3.696  11.988  0.00  0.00    +0.000 A 
ATOM     14  C   UNL     1       5.552   3.388  13.046  0.00  0.00    +0.000 A 
ATOM     15  C   UNL     1       5.752   3.973  14.298  0.00  0.00    +0.000 A 
ENDBRANCH   9  10
ENDBRANCH   8   9
ENDBRANCH   7   8
ENDBRANCH   3   7
BRANCH   4  16
ATOM     16  C   UNL     1       2.971   4.818  20.312  0.00  0.00    +0.000 C 
BRANCH  16  17
ATOM     17  C   UNL     1       1.697   4.710  19.439  0.00  0.00    +0.000 C 
ATOM     18  C   UNL     1       2.049   4.718  17.942  0.00  0.00    +0.000 C 
ATOM     19  C   UNL     1       2.792   3.452  17.520  0.00  0.00    +0.000 C 
ATOM     20  C   UNL     1       1.991   2.197  17.852  0.00  0.00    +0.000 C 
ATOM     21  C   UNL     1       1.558   2.150  19.316  0.00  0.00    +0.000 C 
ATOM     22  C   UNL     1       0.871   3.445  19.756  0.00  0.00    +0.000 C 
ENDBRANCH  16  17
ENDBRANCH   4  16
TORSDOF 6
ENDMDL
MODEL 8
REMARK VINA RESULT:      -7.4      1.445      2.040
REMARK  Name = 
REMARK  6 active torsions:
REMARK  status: ('A' for Active; 'I' for Inactive)
REMARK    1  A    between atoms: N_3  and  C_4
REMARK    2  A    between atoms: C_4  and  C_5
REMARK    3  A    between atoms: C_5  and  C_6
REMARK    4  A    between atoms: C_6  and  C_7
REMARK    5  A    between atoms: N_13  and  C_14
REMARK    6  A    between atoms: C_14  and  C_15
REMARK                            x       y       z     vdW  Elec       q    Type
REMARK                         _______ _______ _______ _____ _____    ______ ____
ROOT
ATOM      1  O   UNL     1       7.654   7.976  17.146  0.00  0.00    +0.000 OA
ATOM      2  C   UNL     1       8.179   7.897  18.255  0.00  0.00    +0.000 C 
ATOM      3  N   UNL     1       8.183   6.749  19.007  0.00  0.00    +0.000 N 
ATOM      4  N   UNL     1       8.800   8.940  18.869  0.00  0.00    +0.000 N 
ATOM      5  H   UNL     1       8.674   6.729  19.886  0.00  0.00    +0.000 HD
ATOM      6  H   UNL     1       9.324   8.750  19.707  0.00  0.00    +0.000 HD
ENDROOT
BRANCH   3   7
ATOM      7  C   UNL     1       7.580   5.522  18.509  0.00  0.00    +0.000 C 
BRANCH   7   8
ATOM      8  C   UNL     1       6.214   5.268  19.138  0.00  0.00    +0.000 C 
BRANCH   8   9
ATOM      9  C   UNL     1       5.079   5.778  18.246  0.00  0.00    +0.000 C 
BRANCH   9  10
ATOM     10  C   UNL     1       3.780   5.080  18.572  0.00  0.00    +0.000 A 
ATOM     11  C   UNL     1       3.128   4.296  17.610  0.00  0.00    +0.000 A 
ATOM     12  C   UNL     1       1.890   3.715  17.893  0.00  0.00    +0.000 A 
ATOM     13  C   UNL     1       1.292   3.914  19.136  0.00  0.00    +0.000 A 
ATOM     14  C   UNL     1       1.939   4.679  20.105  0.00  0.00    +0.000 A 
ATOM     15  C   UNL     1       3.177   5.258  19.825  0.00  0.00    +0.000 A 
ENDBRANCH   9  10
ENDBRANCH   8   9
ENDBRANCH   7   8
ENDBRANCH   3   7
BRANCH   4  16
ATOM     16  C   UNL     1       8.920  10.271  18.275  0.00  0.00    +0.000 C 
BRANCH  16  17
ATOM     17  C   UNL     1       9.449  11.333  19.269  0.00  0.00    +0.000 C 
ATOM     18  C   UNL     1      10.982  11.277  19.376  0.00  0.00    +0.000 C 
ATOM     19  C   UNL     1      11.666  11.727  18.086  0.00  0.00    +0.000 C 
ATOM     20  C   UNL     1      11.231  13.134  17.686  0.00  0.00    +0.000 C 
ATOM     21  C   UNL     1       9.712  13.279  17.614  0.00  0.00    +0.000 C 
ATOM     22  C   UNL     1       9.023  12.766  18.881  0.00  0.00    +0.000 C 
ENDBRANCH  16  17
ENDBRANCH   4  16
TORSDOF 6
ENDMDL
MODEL 9
REMARK VINA RESULT:      -7.4      1.195      9.569
REMARK  Name = 
REMARK  6 active torsions:
REMARK  status: ('A' for Active; 'I' for Inactive)
REMARK    1  A    between atoms: N_3  and  C_4
REMARK    2  A    between atoms: C_4  and  C_5
REMARK    3  A    between atoms: C_5  and  C_6
REMARK    4  A    between atoms: C_6  and  C_7
REMARK    5  A    between atoms: N_13  and  C_14
REMARK    6  A    between atoms: C_14  and  C_15
REMARK                            x       y       z     vdW  Elec       q    Type
REMARK                         _______ _______ _______ _____ _____    ______ ____
ROOT
ATOM      1  O   UNL     1       7.645   5.814  17.239  0.00  0.00    +0.000 OA
ATOM      2  C   UNL     1       6.775   6.683  17.227  0.00  0.00    +0.000 C 
ATOM      3  N   UNL     1       7.031   8.010  17.469  0.00  0.00    +0.000 N 
ATOM      4  N   UNL     1       5.461   6.427  16.988  0.00  0.00    +0.000 N 
ATOM      5  H   UNL     1       6.288   8.684  17.393  0.00  0.00    +0.000 HD
ATOM      6  H   UNL     1       4.845   7.212  16.854  0.00  0.00    +0.000 HD
ENDROOT
BRANCH   3   7
ATOM      7  C   UNL     1       8.384   8.479  17.728  0.00  0.00    +0.000 C 
BRANCH   7   8
ATOM      8  C   UNL     1       8.409   9.961  18.083  0.00  0.00    +0.000 C 
BRANCH   8   9
ATOM      9  C   UNL     1       9.265  10.231  19.324  0.00  0.00    +0.000 C 
BRANCH   9  10
ATOM     10  C   UNL     1      10.353  11.234  19.024  0.00  0.00    +0.000 A 
ATOM     11  C   UNL     1      11.123  11.785  20.058  0.00  0.00    +0.000 A 
ATOM     12  C   UNL     1      12.076  12.768  19.782  0.00  0.00    +0.000 A 
ATOM     13  C   UNL     1      12.268  13.208  18.474  0.00  0.00    +0.000 A 
ATOM     14  C   UNL     1      11.519  12.655  17.437  0.00  0.00    +0.000 A 
ATOM     15  C   UNL     1      10.567  11.672  17.710  0.00  0.00    +0.000 A 
ENDBRANCH   9  10
ENDBRANCH   8   9
ENDBRANCH   7   8
ENDBRANCH   3   7
BRANCH   4  16
ATOM     16  C   UNL     1       4.936   5.091  16.711  0.00  0.00    +0.000 C 
BRANCH  16  17
ATOM     17  C   UNL     1       4.544   4.316  17.992  0.00  0.00    +0.000 C 
ATOM     18  C   UNL     1       3.668   5.178  18.916  0.00  0.00    +0.000 C 
ATOM     19  C   UNL     1       2.290   5.450  18.313  0.00  0.00    +0.000 C 
ATOM     20  C   UNL     1       1.561   4.152  17.981  0.00  0.00    +0.000 C 
ATOM     21  C   UNL     1       2.398   3.217  17.109  0.00  0.00    +0.000 C 
ATOM     22  C   UNL     1       3.801   2.999  17.679  0.00  0.00    +0.000 C 
ENDBRANCH  16  17
ENDBRANCH   4  16
TORSDOF 6
ENDMDL
