MODEL 1
REMARK VINA RESULT:      -8.3      0.000      0.000
REMARK  Name = 
REMARK  6 active torsions:
REMARK  status: ('A' for Active; 'I' for Inactive)
REMARK    1  A    between atoms: N_1  and  S_2
REMARK    2  A    between atoms: S_2  and  N_5
REMARK    3  A    between atoms: N_5  and  C_6
REMARK    4  A    between atoms: C_9  and  N_10
REMARK    5  A    between atoms: N_13  and  C_14
REMARK    6  A    between atoms: C_19  and  C_20
REMARK                            x       y       z     vdW  Elec       q    Type
REMARK                         _______ _______ _______ _____ _____    ______ ____
ROOT
ATOM      1  N   UNL     1       2.214   7.281  20.630  0.00  0.00    +0.000 N 
ATOM      2  C   UNL     1       2.338   6.175  19.799  0.00  0.00    +0.000 C 
ATOM      3  O   UNL     1       1.735   6.018  18.739  0.00  0.00    +0.000 OA
ATOM      4  N   UNL     1       3.291   5.265  20.235  0.00  0.00    +0.000 N 
ATOM      5  H   UNL     1       2.856   7.349  21.404  0.00  0.00    +0.000 HD
ATOM      6  H   UNL     1       3.429   5.182  21.232  0.00  0.00    +0.000 HD
ENDROOT
BRANCH   1  10
ATOM      7  C   UNL     1      -0.336  10.557  19.777  0.00  0.00    +0.000 A 
ATOM      8  C   UNL     1      -0.470   9.875  20.976  0.00  0.00    +0.000 A 
ATOM      9  C   UNL     1       0.385   8.818  21.276  0.00  0.00    +0.000 A 
ATOM     10  C   UNL     1       1.378   8.402  20.378  0.00  0.00    +0.000 A 
ATOM     11  C   UNL     1       1.530   9.124  19.188  0.00  0.00    +0.000 A 
ATOM     12  C   UNL     1       0.685  10.212  18.894  0.00  0.00    +0.000 A 
BRANCH   7  13
ATOM     13  N   UNL     1      -1.207  11.647  19.509  0.00  0.00    +0.000 N 
ATOM     14  H   UNL     1      -0.733  12.517  19.254  0.00  0.00    +0.000 HD
BRANCH  13  15
ATOM     15  S   UNL     1      -2.474  11.412  18.430  0.00  0.00    +0.000 S 
ATOM     16  O   UNL     1      -3.594  12.200  18.866  0.00  0.00    +0.000 OA
ATOM     17  O   UNL     1      -2.572  10.022  18.084  0.00  0.00    +0.000 OA
BRANCH  15  18
ATOM     18  N   UNL     1      -1.849  12.175  17.086  0.00  0.00    +0.000 NA
ATOM     19  H   UNL     1      -2.014  11.587  16.266  0.00  0.00    +0.000 HD
ATOM     20  H   UNL     1      -0.848  12.320  17.221  0.00  0.00    +0.000 HD
ENDBRANCH  15  18
ENDBRANCH  13  15
ENDBRANCH   7  13
ENDBRANCH   1  10
BRANCH   4  21
ATOM     21  C   UNL     1       3.470   4.057  19.502  0.00  0.00    +0.000 A 
ATOM     22  C   UNL     1       2.608   2.984  19.797  0.00  0.00    +0.000 A 
ATOM     23  C   UNL     1       2.671   1.795  19.078  0.00  0.00    +0.000 A 
ATOM     24  C   UNL     1       3.590   1.667  18.049  0.00  0.00    +0.000 A 
ATOM     25  C   UNL     1       4.455   2.725  17.754  0.00  0.00    +0.000 A 
ATOM     26  C   UNL     1       4.445   3.941  18.479  0.00  0.00    +0.000 A 
BRANCH  26  27
ATOM     27  C   UNL     1       5.432   5.004  18.130  0.00  0.00    +0.000 A 
ATOM     28  C   UNL     1       5.187   5.981  17.150  0.00  0.00    +0.000 A 
ATOM     29  C   UNL     1       6.095   7.012  16.889  0.00  0.00    +0.000 A 
ATOM     30  C   UNL     1       7.305   7.063  17.569  0.00  0.00    +0.000 A 
ATOM     31  C   UNL     1       7.608   6.081  18.504  0.00  0.00    +0.000 A 
ATOM     32  C   UNL     1       6.680   5.073  18.786  0.00  0.00    +0.000 A 
ENDBRANCH  26  27
ENDBRANCH   4  21
TORSDOF 6
ENDMDL
MODEL 2
REMARK VINA RESULT:      -8.1      0.282      1.336
REMARK  Name = 
REMARK  6 active torsions:
REMARK  status: ('A' for Active; 'I' for Inactive)
REMARK    1  A    between atoms: N_1  and  S_2
REMARK    2  A    between atoms: S_2  and  N_5
REMARK    3  A    between atoms: N_5  and  C_6
REMARK    4  A    between atoms: C_9  and  N_10
REMARK    5  A    between atoms: N_13  and  C_14
REMARK    6  A    between atoms: C_19  and  C_20
REMARK                            x       y       z     vdW  Elec       q    Type
REMARK                         _______ _______ _______ _____ _____    ______ ____
ROOT
ATOM      1  N   UNL     1       2.178   7.178  20.724  0.00  0.00    +0.000 N 
ATOM      2  C   UNL     1       2.333   6.110  19.850  0.00  0.00    +0.000 C 
ATOM      3  O   UNL     1       1.790   6.013  18.751  0.00  0.00    +0.000 OA
ATOM      4  N   UNL     1       3.244   5.163  20.298  0.00  0.00    +0.000 N 
ATOM      5  H   UNL     1       2.774   7.198  21.537  0.00  0.00    +0.000 HD
ATOM      6  H   UNL     1       3.321   5.031  21.296  0.00  0.00    +0.000 HD
ENDROOT
BRANCH   1  10
ATOM      7  C   UNL     1      -0.150  10.662  20.093  0.00  0.00    +0.000 A 
ATOM      8  C   UNL     1       0.766  10.265  19.133  0.00  0.00    +0.000 A 
ATOM      9  C   UNL     1       1.512   9.104  19.320  0.00  0.00    +0.000 A 
ATOM     10  C   UNL     1       1.377   8.325  20.477  0.00  0.00    +0.000 A 
ATOM     11  C   UNL     1       0.419   8.715  21.422  0.00  0.00    +0.000 A 
ATOM     12  C   UNL     1      -0.356   9.874  21.222  0.00  0.00    +0.000 A 
BRANCH   7  13
ATOM     13  N   UNL     1      -0.914  11.839  19.863  0.00  0.00    +0.000 N 
ATOM     14  H   UNL     1      -0.360  12.667  19.630  0.00  0.00    +0.000 HD
BRANCH  13  15
ATOM     15  S   UNL     1      -2.204  11.758  18.788  0.00  0.00    +0.000 S 
ATOM     16  O   UNL     1      -3.264  12.590  19.287  0.00  0.00    +0.000 OA
ATOM     17  O   UNL     1      -2.399  10.402  18.358  0.00  0.00    +0.000 OA
BRANCH  15  18
ATOM     18  N   UNL     1      -1.540  12.560  17.487  0.00  0.00    +0.000 NA
ATOM     19  H   UNL     1      -2.239  12.618  16.743  0.00  0.00    +0.000 HD
ATOM     20  H   UNL     1      -0.720  12.047  17.163  0.00  0.00    +0.000 HD
ENDBRANCH  15  18
ENDBRANCH  13  15
ENDBRANCH   7  13
ENDBRANCH   1  10
BRANCH   4  21
ATOM     21  C   UNL     1       3.445   3.986  19.520  0.00  0.00    +0.000 A 
ATOM     22  C   UNL     1       2.584   2.897  19.753  0.00  0.00    +0.000 A 
ATOM     23  C   UNL     1       2.669   1.739  18.987  0.00  0.00    +0.000 A 
ATOM     24  C   UNL     1       3.610   1.658  17.974  0.00  0.00    +0.000 A 
ATOM     25  C   UNL     1       4.475   2.732  17.741  0.00  0.00    +0.000 A 
ATOM     26  C   UNL     1       4.443   3.918  18.514  0.00  0.00    +0.000 A 
BRANCH  26  27
ATOM     27  C   UNL     1       5.430   4.999  18.230  0.00  0.00    +0.000 A 
ATOM     28  C   UNL     1       6.656   5.111  18.908  0.00  0.00    +0.000 A 
ATOM     29  C   UNL     1       7.600   6.087  18.575  0.00  0.00    +0.000 A 
ATOM     30  C   UNL     1       7.318   7.019  17.584  0.00  0.00    +0.000 A 
ATOM     31  C   UNL     1       6.092   6.976  16.931  0.00  0.00    +0.000 A 
ATOM     32  C   UNL     1       5.168   5.974  17.244  0.00  0.00    +0.000 A 
ENDBRANCH  26  27
ENDBRANCH   4  21
TORSDOF 6
ENDMDL
MODEL 3
REMARK VINA RESULT:      -7.9      0.729      1.271
REMARK  Name = 
REMARK  6 active torsions:
REMARK  status: ('A' for Active; 'I' for Inactive)
REMARK    1  A    between atoms: N_1  and  S_2
REMARK    2  A    between atoms: S_2  and  N_5
REMARK    3  A    between atoms: N_5  and  C_6
REMARK    4  A    between atoms: C_9  and  N_10
REMARK    5  A    between atoms: N_13  and  C_14
REMARK    6  A    between atoms: C_19  and  C_20
REMARK                            x       y       z     vdW  Elec       q    Type
REMARK                         _______ _______ _______ _____ _____    ______ ____
ROOT
ATOM      1  N   UNL     1       2.146   7.181  20.840  0.00  0.00    +0.000 N 
ATOM      2  C   UNL     1       2.270   6.137  19.933  0.00  0.00    +0.000 C 
ATOM      3  O   UNL     1       1.680   6.064  18.857  0.00  0.00    +0.000 OA
ATOM      4  N   UNL     1       3.207   5.186  20.315  0.00  0.00    +0.000 N 
ATOM      5  H   UNL     1       2.777   7.185  21.627  0.00  0.00    +0.000 HD
ATOM      6  H   UNL     1       3.329   5.029  21.305  0.00  0.00    +0.000 HD
ENDROOT
BRANCH   1  10
ATOM      7  C   UNL     1      -0.361  10.537  20.198  0.00  0.00    +0.000 A 
ATOM      8  C   UNL     1      -0.472   9.811  21.373  0.00  0.00    +0.000 A 
ATOM      9  C   UNL     1       0.370   8.725  21.604  0.00  0.00    +0.000 A 
ATOM     10  C   UNL     1       1.326   8.327  20.660  0.00  0.00    +0.000 A 
ATOM     11  C   UNL     1       1.457   9.093  19.495  0.00  0.00    +0.000 A 
ATOM     12  C   UNL     1       0.625  10.208  19.271  0.00  0.00    +0.000 A 
BRANCH   7  13
ATOM     13  N   UNL     1      -1.217  11.654  20.001  0.00  0.00    +0.000 N 
ATOM     14  H   UNL     1      -0.772  12.563  20.153  0.00  0.00    +0.000 HD
BRANCH  13  15
ATOM     15  S   UNL     1      -2.102  11.742  18.574  0.00  0.00    +0.000 S 
ATOM     16  O   UNL     1      -2.627  10.437  18.285  0.00  0.00    +0.000 OA
ATOM     17  O   UNL     1      -1.400  12.544  17.611  0.00  0.00    +0.000 OA
BRANCH  15  18
ATOM     18  N   UNL     1      -3.386  12.669  19.093  0.00  0.00    +0.000 NA
ATOM     19  H   UNL     1      -3.139  13.657  19.000  0.00  0.00    +0.000 HD
ATOM     20  H   UNL     1      -3.587  12.445  20.068  0.00  0.00    +0.000 HD
ENDBRANCH  15  18
ENDBRANCH  13  15
ENDBRANCH   7  13
ENDBRANCH   1  10
BRANCH   4  21
ATOM     21  C   UNL     1       3.382   4.032  19.498  0.00  0.00    +0.000 A 
ATOM     22  C   UNL     1       2.501   2.953  19.699  0.00  0.00    +0.000 A 
ATOM     23  C   UNL     1       2.561   1.819  18.895  0.00  0.00    +0.000 A 
ATOM     24  C   UNL     1       3.497   1.753  17.877  0.00  0.00    +0.000 A 
ATOM     25  C   UNL     1       4.382   2.817  17.675  0.00  0.00    +0.000 A 
ATOM     26  C   UNL     1       4.375   3.977  18.487  0.00  0.00    +0.000 A 
BRANCH  26  27
ATOM     27  C   UNL     1       5.382   5.048  18.234  0.00  0.00    +0.000 A 
ATOM     28  C   UNL     1       6.613   5.113  18.909  0.00  0.00    +0.000 A 
ATOM     29  C   UNL     1       7.574   6.081  18.604  0.00  0.00    +0.000 A 
ATOM     30  C   UNL     1       7.307   7.051  17.646  0.00  0.00    +0.000 A 
ATOM     31  C   UNL     1       6.078   7.053  16.998  0.00  0.00    +0.000 A 
ATOM     32  C   UNL     1       5.136   6.060  17.282  0.00  0.00    +0.000 A 
ENDBRANCH  26  27
ENDBRANCH   4  21
TORSDOF 6
ENDMDL
MODEL 4
REMARK VINA RESULT:      -7.9      1.377      1.787
REMARK  Name = 
REMARK  6 active torsions:
REMARK  status: ('A' for Active; 'I' for Inactive)
REMARK    1  A    between atoms: N_1  and  S_2
REMARK    2  A    between atoms: S_2  and  N_5
REMARK    3  A    between atoms: N_5  and  C_6
REMARK    4  A    between atoms: C_9  and  N_10
REMARK    5  A    between atoms: N_13  and  C_14
REMARK    6  A    between atoms: C_19  and  C_20
REMARK                            x       y       z     vdW  Elec       q    Type
REMARK                         _______ _______ _______ _____ _____    ______ ____
ROOT
ATOM      1  N   UNL     1       2.126   7.389  20.733  0.00  0.00    +0.000 N 
ATOM      2  C   UNL     1       2.257   6.310  19.869  0.00  0.00    +0.000 C 
ATOM      3  O   UNL     1       1.673   6.193  18.794  0.00  0.00    +0.000 OA
ATOM      4  N   UNL     1       3.194   5.378  20.294  0.00  0.00    +0.000 N 
ATOM      5  H   UNL     1       2.754   7.427  21.522  0.00  0.00    +0.000 HD
ATOM      6  H   UNL     1       3.312   5.261  21.290  0.00  0.00    +0.000 HD
ENDROOT
BRANCH   1  10
ATOM      7  C   UNL     1      -0.392  10.707  19.951  0.00  0.00    +0.000 A 
ATOM      8  C   UNL     1      -0.431  10.092  21.192  0.00  0.00    +0.000 A 
ATOM      9  C   UNL     1       0.416   9.021  21.466  0.00  0.00    +0.000 A 
ATOM     10  C   UNL     1       1.305   8.525  20.502  0.00  0.00    +0.000 A 
ATOM     11  C   UNL     1       1.365   9.181  19.266  0.00  0.00    +0.000 A 
ATOM     12  C   UNL     1       0.528  10.282  18.996  0.00  0.00    +0.000 A 
BRANCH   7  13
ATOM     13  N   UNL     1      -1.251  11.814  19.708  0.00  0.00    +0.000 N 
ATOM     14  H   UNL     1      -2.041  11.887  20.354  0.00  0.00    +0.000 HD
BRANCH  13  15
ATOM     15  S   UNL     1      -0.565  13.340  19.554  0.00  0.00    +0.000 S 
ATOM     16  O   UNL     1      -0.352  13.603  18.157  0.00  0.00    +0.000 OA
ATOM     17  O   UNL     1       0.446  13.527  20.556  0.00  0.00    +0.000 OA
BRANCH  15  18
ATOM     18  N   UNL     1      -1.857  14.282  20.025  0.00  0.00    +0.000 NA
ATOM     19  H   UNL     1      -2.583  13.676  20.411  0.00  0.00    +0.000 HD
ATOM     20  H   UNL     1      -2.212  14.789  19.215  0.00  0.00    +0.000 HD
ENDBRANCH  15  18
ENDBRANCH  13  15
ENDBRANCH   7  13
ENDBRANCH   1  10
BRANCH   4  21
ATOM     21  C   UNL     1       3.376   4.192  19.525  0.00  0.00    +0.000 A 
ATOM     22  C   UNL     1       2.470   3.136  19.734  0.00  0.00    +0.000 A 
ATOM     23  C   UNL     1       2.536   1.973  18.975  0.00  0.00    +0.000 A 
ATOM     24  C   UNL     1       3.504   1.854  17.991  0.00  0.00    +0.000 A 
ATOM     25  C   UNL     1       4.414   2.895  17.782  0.00  0.00    +0.000 A 
ATOM     26  C   UNL     1       4.401   4.084  18.552  0.00  0.00    +0.000 A 
BRANCH  26  27
ATOM     27  C   UNL     1       5.435   5.128  18.295  0.00  0.00    +0.000 A 
ATOM     28  C   UNL     1       6.654   5.183  18.993  0.00  0.00    +0.000 A 
ATOM     29  C   UNL     1       7.641   6.124  18.686  0.00  0.00    +0.000 A 
ATOM     30  C   UNL     1       7.413   7.078  17.702  0.00  0.00    +0.000 A 
ATOM     31  C   UNL     1       6.197   7.090  17.029  0.00  0.00    +0.000 A 
ATOM     32  C   UNL     1       5.229   6.123  17.316  0.00  0.00    +0.000 A 
ENDBRANCH  26  27
ENDBRANCH   4  21
TORSDOF 6
ENDMDL
MODEL 5
REMARK VINA RESULT:      -7.9      1.502      2.109
REMARK  Name = 
REMARK  6 active torsions:
REMARK  status: ('A' for Active; 'I' for Inactive)
REMARK    1  A    between atoms: N_1  and  S_2
REMARK    2  A    between atoms: S_2  and  N_5
REMARK    3  A    between atoms: N_5  and  C_6
REMARK    4  A    between atoms: C_9  and  N_10
REMARK    5  A    between atoms: N_13  and  C_14
REMARK    6  A    between atoms: C_19  and  C_20
REMARK                            x       y       z     vdW  Elec       q    Type
REMARK                         _______ _______ _______ _____ _____    ______ ____
ROOT
ATOM      1  N   UNL     1       2.086   7.584  20.467  0.00  0.00    +0.000 N 
ATOM      2  C   UNL     1       2.265   6.454  19.681  0.00  0.00    +0.000 C 
ATOM      3  O   UNL     1       1.790   6.293  18.558  0.00  0.00    +0.000 OA
ATOM      4  N   UNL     1       3.120   5.520  20.250  0.00  0.00    +0.000 N 
ATOM      5  H   UNL     1       2.631   7.648  21.313  0.00  0.00    +0.000 HD
ATOM      6  H   UNL     1       3.132   5.457  21.257  0.00  0.00    +0.000 HD
ENDROOT
BRANCH   1  10
ATOM      7  C   UNL     1      -0.101  11.069  19.450  0.00  0.00    +0.000 A 
ATOM      8  C   UNL     1       0.869  10.590  18.585  0.00  0.00    +0.000 A 
ATOM      9  C   UNL     1       1.570   9.428  18.899  0.00  0.00    +0.000 A 
ATOM     10  C   UNL     1       1.334   8.730  20.091  0.00  0.00    +0.000 A 
ATOM     11  C   UNL     1       0.323   9.201  20.938  0.00  0.00    +0.000 A 
ATOM     12  C   UNL     1      -0.406  10.361  20.610  0.00  0.00    +0.000 A 
BRANCH   7  13
ATOM     13  N   UNL     1      -0.817  12.244  19.092  0.00  0.00    +0.000 N 
ATOM     14  H   UNL     1      -1.832  12.127  19.050  0.00  0.00    +0.000 HD
BRANCH  13  15
ATOM     15  S   UNL     1      -0.494  13.664  19.932  0.00  0.00    +0.000 S 
ATOM     16  O   UNL     1       0.877  13.636  20.361  0.00  0.00    +0.000 OA
ATOM     17  O   UNL     1      -1.590  13.977  20.805  0.00  0.00    +0.000 OA
BRANCH  15  18
ATOM     18  N   UNL     1      -0.580  14.761  18.679  0.00  0.00    +0.000 NA
ATOM     19  H   UNL     1       0.172  15.444  18.787  0.00  0.00    +0.000 HD
ATOM     20  H   UNL     1      -1.487  15.225  18.705  0.00  0.00    +0.000 HD
ENDBRANCH  15  18
ENDBRANCH  13  15
ENDBRANCH   7  13
ENDBRANCH   1  10
BRANCH   4  21
ATOM     21  C   UNL     1       3.337   4.287  19.569  0.00  0.00    +0.000 A 
ATOM     22  C   UNL     1       2.422   3.244  19.805  0.00  0.00    +0.000 A 
ATOM     23  C   UNL     1       2.522   2.034  19.127  0.00  0.00    +0.000 A 
ATOM     24  C   UNL     1       3.534   1.855  18.198  0.00  0.00    +0.000 A 
ATOM     25  C   UNL     1       4.452   2.883  17.962  0.00  0.00    +0.000 A 
ATOM     26  C   UNL     1       4.404   4.119  18.651  0.00  0.00    +0.000 A 
BRANCH  26  27
ATOM     27  C   UNL     1       5.449   5.146  18.374  0.00  0.00    +0.000 A 
ATOM     28  C   UNL     1       6.662   5.212  19.081  0.00  0.00    +0.000 A 
ATOM     29  C   UNL     1       7.660   6.136  18.755  0.00  0.00    +0.000 A 
ATOM     30  C   UNL     1       7.447   7.063  17.742  0.00  0.00    +0.000 A 
ATOM     31  C   UNL     1       6.237   7.066  17.059  0.00  0.00    +0.000 A 
ATOM     32  C   UNL     1       5.258   6.115  17.366  0.00  0.00    +0.000 A 
ENDBRANCH  26  27
ENDBRANCH   4  21
TORSDOF 6
ENDMDL
MODEL 6
REMARK VINA RESULT:      -7.8      0.974      1.108
REMARK  Name = 
REMARK  6 active torsions:
REMARK  status: ('A' for Active; 'I' for Inactive)
REMARK    1  A    between atoms: N_1  and  S_2
REMARK    2  A    between atoms: S_2  and  N_5
REMARK    3  A    between atoms: N_5  and  C_6
REMARK    4  A    between atoms: C_9  and  N_10
REMARK    5  A    between atoms: N_13  and  C_14
REMARK    6  A    between atoms: C_19  and  C_20
REMARK                            x       y       z     vdW  Elec       q    Type
REMARK                         _______ _______ _______ _____ _____    ______ ____
ROOT
ATOM      1  N   UNL     1       2.081   7.826  20.256  0.00  0.00    +0.000 N 
ATOM      2  C   UNL     1       2.278   6.572  19.692  0.00  0.00    +0.000 C 
ATOM      3  O   UNL     1       1.693   6.145  18.699  0.00  0.00    +0.000 OA
ATOM      4  N   UNL     1       3.283   5.843  20.314  0.00  0.00    +0.000 N 
ATOM      5  H   UNL     1       2.713   8.105  20.991  0.00  0.00    +0.000 HD
ATOM      6  H   UNL     1       3.419   5.994  21.303  0.00  0.00    +0.000 HD
ENDROOT
BRANCH   1  10
ATOM      7  C   UNL     1      -0.663  10.664  18.715  0.00  0.00    +0.000 A 
ATOM      8  C   UNL     1      -0.724  10.305  20.051  0.00  0.00    +0.000 A 
ATOM      9  C   UNL     1       0.195   9.396  20.571  0.00  0.00    +0.000 A 
ATOM     10  C   UNL     1       1.180   8.809  19.766  0.00  0.00    +0.000 A 
ATOM     11  C   UNL     1       1.257   9.210  18.426  0.00  0.00    +0.000 A 
ATOM     12  C   UNL     1       0.346  10.150  17.904  0.00  0.00    +0.000 A 
BRANCH   7  13
ATOM     13  N   UNL     1      -1.599  11.612  18.218  0.00  0.00    +0.000 N 
ATOM     14  H   UNL     1      -1.178  12.427  17.765  0.00  0.00    +0.000 HD
BRANCH  13  15
ATOM     15  S   UNL     1      -2.850  11.063  17.239  0.00  0.00    +0.000 S 
ATOM     16  O   UNL     1      -3.303   9.798  17.748  0.00  0.00    +0.000 OA
ATOM     17  O   UNL     1      -2.528  11.291  15.858  0.00  0.00    +0.000 OA
BRANCH  15  18
ATOM     18  N   UNL     1      -4.025  12.181  17.625  0.00  0.00    +0.000 NA
ATOM     19  H   UNL     1      -3.866  13.029  17.078  0.00  0.00    +0.000 HD
ATOM     20  H   UNL     1      -3.972  12.389  18.623  0.00  0.00    +0.000 HD
ENDBRANCH  15  18
ENDBRANCH  13  15
ENDBRANCH   7  13
ENDBRANCH   1  10
BRANCH   4  21
ATOM     21  C   UNL     1       3.540   4.514  19.869  0.00  0.00    +0.000 A 
ATOM     22  C   UNL     1       2.670   3.500  20.312  0.00  0.00    +0.000 A 
ATOM     23  C   UNL     1       2.810   2.190  19.867  0.00  0.00    +0.000 A 
ATOM     24  C   UNL     1       3.816   1.879  18.967  0.00  0.00    +0.000 A 
ATOM     25  C   UNL     1       4.690   2.878  18.527  0.00  0.00    +0.000 A 
ATOM     26  C   UNL     1       4.601   4.218  18.977  0.00  0.00    +0.000 A 
BRANCH  26  27
ATOM     27  C   UNL     1       5.601   5.214  18.494  0.00  0.00    +0.000 A 
ATOM     28  C   UNL     1       5.365   6.062  17.398  0.00  0.00    +0.000 A 
ATOM     29  C   UNL     1       6.285   7.040  17.007  0.00  0.00    +0.000 A 
ATOM     30  C   UNL     1       7.499   7.160  17.672  0.00  0.00    +0.000 A 
ATOM     31  C   UNL     1       7.792   6.301  18.725  0.00  0.00    +0.000 A 
ATOM     32  C   UNL     1       6.851   5.350  19.133  0.00  0.00    +0.000 A 
ENDBRANCH  26  27
ENDBRANCH   4  21
TORSDOF 6
ENDMDL
MODEL 7
REMARK VINA RESULT:      -7.8      0.765      1.308
REMARK  Name = 
REMARK  6 active torsions:
REMARK  status: ('A' for Active; 'I' for Inactive)
REMARK    1  A    between atoms: N_1  and  S_2
REMARK    2  A    between atoms: S_2  and  N_5
REMARK    3  A    between atoms: N_5  and  C_6
REMARK    4  A    between atoms: C_9  and  N_10
REMARK    5  A    between atoms: N_13  and  C_14
REMARK    6  A    between atoms: C_19  and  C_20
REMARK                            x       y       z     vdW  Elec       q    Type
REMARK                         _______ _______ _______ _____ _____    ______ ____
ROOT
ATOM      1  N   UNL     1       2.213   7.198  20.765  0.00  0.00    +0.000 N 
ATOM      2  C   UNL     1       2.308   6.134  19.878  0.00  0.00    +0.000 C 
ATOM      3  O   UNL     1       1.665   6.024  18.837  0.00  0.00    +0.000 OA
ATOM      4  N   UNL     1       3.281   5.209  20.234  0.00  0.00    +0.000 N 
ATOM      5  H   UNL     1       2.884   7.233  21.517  0.00  0.00    +0.000 HD
ATOM      6  H   UNL     1       3.457   5.080  21.220  0.00  0.00    +0.000 HD
ENDROOT
BRANCH   1  10
ATOM      7  C   UNL     1      -0.257  10.620  20.378  0.00  0.00    +0.000 A 
ATOM      8  C   UNL     1       0.659  10.318  19.383  0.00  0.00    +0.000 A 
ATOM      9  C   UNL     1       1.452   9.178  19.489  0.00  0.00    +0.000 A 
ATOM     10  C   UNL     1       1.364   8.326  20.599  0.00  0.00    +0.000 A 
ATOM     11  C   UNL     1       0.407   8.620  21.577  0.00  0.00    +0.000 A 
ATOM     12  C   UNL     1      -0.416   9.757  21.459  0.00  0.00    +0.000 A 
BRANCH   7  13
ATOM     13  N   UNL     1      -1.070  11.777  20.230  0.00  0.00    +0.000 N 
ATOM     14  H   UNL     1      -0.591  12.660  20.421  0.00  0.00    +0.000 HD
BRANCH  13  15
ATOM     15  S   UNL     1      -1.949  11.961  18.809  0.00  0.00    +0.000 S 
ATOM     16  O   UNL     1      -2.529  10.692  18.466  0.00  0.00    +0.000 OA
ATOM     17  O   UNL     1      -1.214  12.771  17.879  0.00  0.00    +0.000 OA
BRANCH  15  18
ATOM     18  N   UNL     1      -3.194  12.919  19.367  0.00  0.00    +0.000 NA
ATOM     19  H   UNL     1      -2.950  13.900  19.212  0.00  0.00    +0.000 HD
ATOM     20  H   UNL     1      -3.331  12.741  20.362  0.00  0.00    +0.000 HD
ENDBRANCH  15  18
ENDBRANCH  13  15
ENDBRANCH   7  13
ENDBRANCH   1  10
BRANCH   4  21
ATOM     21  C   UNL     1       3.435   4.038  19.438  0.00  0.00    +0.000 A 
ATOM     22  C   UNL     1       2.551   2.968  19.677  0.00  0.00    +0.000 A 
ATOM     23  C   UNL     1       2.590   1.818  18.896  0.00  0.00    +0.000 A 
ATOM     24  C   UNL     1       3.506   1.726  17.862  0.00  0.00    +0.000 A 
ATOM     25  C   UNL     1       4.393   2.780  17.622  0.00  0.00    +0.000 A 
ATOM     26  C   UNL     1       4.408   3.956  18.410  0.00  0.00    +0.000 A 
BRANCH  26  27
ATOM     27  C   UNL     1       5.416   5.015  18.116  0.00  0.00    +0.000 A 
ATOM     28  C   UNL     1       5.198   6.038  17.177  0.00  0.00    +0.000 A 
ATOM     29  C   UNL     1       6.125   7.063  16.970  0.00  0.00    +0.000 A 
ATOM     30  C   UNL     1       7.330   7.064  17.662  0.00  0.00    +0.000 A 
ATOM     31  C   UNL     1       7.606   6.037  18.557  0.00  0.00    +0.000 A 
ATOM     32  C   UNL     1       6.658   5.035  18.786  0.00  0.00    +0.000 A 
ENDBRANCH  26  27
ENDBRANCH   4  21
TORSDOF 6
ENDMDL
MODEL 8
REMARK VINA RESULT:      -7.7      1.404      1.799
REMARK  Name = 
REMARK  6 active torsions:
REMARK  status: ('A' for Active; 'I' for Inactive)
REMARK    1  A    between atoms: N_1  and  S_2
REMARK    2  A    between atoms: S_2  and  N_5
REMARK    3  A    between atoms: N_5  and  C_6
REMARK    4  A    between atoms: C_9  and  N_10
REMARK    5  A    between atoms: N_13  and  C_14
REMARK    6  A    between atoms: C_19  and  C_20
REMARK                            x       y       z     vdW  Elec       q    Type
REMARK                         _______ _______ _______ _____ _____    ______ ____
ROOT
ATOM      1  N   UNL     1       2.167   7.429  20.695  0.00  0.00    +0.000 N 
ATOM      2  C   UNL     1       2.263   6.325  19.858  0.00  0.00    +0.000 C 
ATOM      3  O   UNL     1       1.605   6.157  18.833  0.00  0.00    +0.000 OA
ATOM      4  N   UNL     1       3.254   5.431  20.240  0.00  0.00    +0.000 N 
ATOM      5  H   UNL     1       2.850   7.508  21.433  0.00  0.00    +0.000 HD
ATOM      6  H   UNL     1       3.448   5.350  21.228  0.00  0.00    +0.000 HD
ENDROOT
BRANCH   1  10
ATOM      7  C   UNL     1      -0.346  10.801  20.177  0.00  0.00    +0.000 A 
ATOM      8  C   UNL     1       0.465  10.382  19.135  0.00  0.00    +0.000 A 
ATOM      9  C   UNL     1       1.270   9.256  19.288  0.00  0.00    +0.000 A 
ATOM     10  C   UNL     1       1.301   8.536  20.490  0.00  0.00    +0.000 A 
ATOM     11  C   UNL     1       0.447   8.945  21.521  0.00  0.00    +0.000 A 
ATOM     12  C   UNL     1      -0.389  10.067  21.360  0.00  0.00    +0.000 A 
BRANCH   7  13
ATOM     13  N   UNL     1      -1.175  11.940  19.983  0.00  0.00    +0.000 N 
ATOM     14  H   UNL     1      -1.786  12.160  20.774  0.00  0.00    +0.000 HD
BRANCH  13  15
ATOM     15  S   UNL     1      -0.461  13.370  19.465  0.00  0.00    +0.000 S 
ATOM     16  O   UNL     1      -0.460  13.382  18.028  0.00  0.00    +0.000 OA
ATOM     17  O   UNL     1       0.701  13.653  20.260  0.00  0.00    +0.000 OA
BRANCH  15  18
ATOM     18  N   UNL     1      -1.624  14.461  19.950  0.00  0.00    +0.000 NA
ATOM     19  H   UNL     1      -2.036  14.895  19.122  0.00  0.00    +0.000 HD
ATOM     20  H   UNL     1      -1.190  15.169  20.542  0.00  0.00    +0.000 HD
ENDBRANCH  15  18
ENDBRANCH  13  15
ENDBRANCH   7  13
ENDBRANCH   1  10
BRANCH   4  21
ATOM     21  C   UNL     1       3.412   4.225  19.498  0.00  0.00    +0.000 A 
ATOM     22  C   UNL     1       2.512   3.176  19.763  0.00  0.00    +0.000 A 
ATOM     23  C   UNL     1       2.553   1.993  19.032  0.00  0.00    +0.000 A 
ATOM     24  C   UNL     1       3.490   1.848  18.022  0.00  0.00    +0.000 A 
ATOM     25  C   UNL     1       4.393   2.882  17.757  0.00  0.00    +0.000 A 
ATOM     26  C   UNL     1       4.405   4.090  18.495  0.00  0.00    +0.000 A 
BRANCH  26  27
ATOM     27  C   UNL     1       5.431   5.125  18.178  0.00  0.00    +0.000 A 
ATOM     28  C   UNL     1       5.229   6.130  17.217  0.00  0.00    +0.000 A 
ATOM     29  C   UNL     1       6.174   7.135  16.987  0.00  0.00    +0.000 A 
ATOM     30  C   UNL     1       7.379   7.130  17.680  0.00  0.00    +0.000 A 
ATOM     31  C   UNL     1       7.638   6.119  18.597  0.00  0.00    +0.000 A 
ATOM     32  C   UNL     1       6.673   5.138  18.847  0.00  0.00    +0.000 A 
ENDBRANCH  26  27
ENDBRANCH   4  21
TORSDOF 6
ENDMDL
MODEL 9
REMARK VINA RESULT:      -7.7      2.144      3.918
REMARK  Name = 
REMARK  6 active torsions:
REMARK  status: ('A' for Active; 'I' for Inactive)
REMARK    1  A    between atoms: N_1  and  S_2
REMARK    2  A    between atoms: S_2  and  N_5
REMARK    3  A    between atoms: N_5  and  C_6
REMARK    4  A    between atoms: C_9  and  N_10
REMARK    5  A    between atoms: N_13  and  C_14
REMARK    6  A    between atoms: C_19  and  C_20
REMARK                            x       y       z     vdW  Elec       q    Type
REMARK                         _______ _______ _______ _____ _____    ______ ____
ROOT
ATOM      1  N   UNL     1       1.482   8.846  19.660  0.00  0.00    +0.000 N 
ATOM      2  C   UNL     1       2.100   8.224  18.583  0.00  0.00    +0.000 C 
ATOM      3  O   UNL     1       1.949   8.540  17.405  0.00  0.00    +0.000 OA
ATOM      4  N   UNL     1       2.996   7.233  18.961  0.00  0.00    +0.000 N 
ATOM      5  H   UNL     1       1.786   8.577  20.583  0.00  0.00    +0.000 HD
ATOM      6  H   UNL     1       2.789   6.721  19.806  0.00  0.00    +0.000 HD
ENDROOT
BRANCH   1  10
ATOM      7  C   UNL     1      -1.271  12.061  19.457  0.00  0.00    +0.000 A 
ATOM      8  C   UNL     1      -0.050  12.240  20.088  0.00  0.00    +0.000 A 
ATOM      9  C   UNL     1       0.871  11.197  20.131  0.00  0.00    +0.000 A 
ATOM     10  C   UNL     1       0.589   9.946  19.565  0.00  0.00    +0.000 A 
ATOM     11  C   UNL     1      -0.631   9.790  18.895  0.00  0.00    +0.000 A 
ATOM     12  C   UNL     1      -1.554  10.852  18.826  0.00  0.00    +0.000 A 
BRANCH   7  13
ATOM     13  N   UNL     1      -2.182  13.151  19.408  0.00  0.00    +0.000 N 
ATOM     14  H   UNL     1      -2.442  13.445  18.463  0.00  0.00    +0.000 HD
BRANCH  13  15
ATOM     15  S   UNL     1      -3.585  13.063  20.329  0.00  0.00    +0.000 S 
ATOM     16  O   UNL     1      -3.238  12.590  21.640  0.00  0.00    +0.000 OA
ATOM     17  O   UNL     1      -4.652  12.509  19.544  0.00  0.00    +0.000 OA
BRANCH  15  18
ATOM     18  N   UNL     1      -3.926  14.688  20.483  0.00  0.00    +0.000 NA
ATOM     19  H   UNL     1      -4.897  14.794  20.786  0.00  0.00    +0.000 HD
ATOM     20  H   UNL     1      -3.785  15.145  19.582  0.00  0.00    +0.000 HD
ENDBRANCH  15  18
ENDBRANCH  13  15
ENDBRANCH   7  13
ENDBRANCH   1  10
BRANCH   4  21
ATOM     21  C   UNL     1       3.649   6.477  17.946  0.00  0.00    +0.000 A 
ATOM     22  C   UNL     1       4.455   7.179  17.029  0.00  0.00    +0.000 A 
ATOM     23  C   UNL     1       5.182   6.507  16.052  0.00  0.00    +0.000 A 
ATOM     24  C   UNL     1       5.119   5.125  15.985  0.00  0.00    +0.000 A 
ATOM     25  C   UNL     1       4.316   4.420  16.886  0.00  0.00    +0.000 A 
ATOM     26  C   UNL     1       3.537   5.066  17.877  0.00  0.00    +0.000 A 
BRANCH  26  27
ATOM     27  C   UNL     1       2.671   4.243  18.771  0.00  0.00    +0.000 A 
ATOM     28  C   UNL     1       1.471   3.653  18.338  0.00  0.00    +0.000 A 
ATOM     29  C   UNL     1       0.711   2.824  19.170  0.00  0.00    +0.000 A 
ATOM     30  C   UNL     1       1.106   2.607  20.485  0.00  0.00    +0.000 A 
ATOM     31  C   UNL     1       2.257   3.220  20.965  0.00  0.00    +0.000 A 
ATOM     32  C   UNL     1       3.031   4.018  20.116  0.00  0.00    +0.000 A 
ENDBRANCH  26  27
ENDBRANCH   4  21
TORSDOF 6
ENDMDL
