MODEL 1
REMARK VINA RESULT:      -7.7      0.000      0.000
REMARK  Name = 
REMARK  8 active torsions:
REMARK  status: ('A' for Active; 'I' for Inactive)
REMARK    1  A    between atoms: C_1  and  O_2
REMARK    2  A    between atoms: O_2  and  C_3
REMARK    3  A    between atoms: C_6  and  C_7
REMARK    4  A    between atoms: C_8  and  C_9
REMARK    5  A    between atoms: C_12  and  C_13
REMARK    6  A    between atoms: C_17  and  C_18
REMARK    7  A    between atoms: C_27  and  O_28
REMARK    8  A    between atoms: O_28  and  C_29
REMARK                            x       y       z     vdW  Elec       q    Type
REMARK                         _______ _______ _______ _____ _____    ______ ____
ROOT
ATOM      1  C   UNL     1       4.130   4.618  19.948  0.00  0.00    +0.000 C 
ATOM      2  C   UNL     1       3.616   3.246  20.387  0.00  0.00    +0.000 C 
ATOM      3  C   UNL     1       2.367   3.123  20.914  0.00  0.00    +0.000 C 
ATOM      4  C   UNL     1       1.725   1.853  21.421  0.00  0.00    +0.000 C 
ATOM      5  N   UNL     1       1.542   4.243  21.035  0.00  0.00    +0.000 N 
ATOM      6  C   UNL     1       1.859   5.459  20.566  0.00  0.00    +0.000 A 
ATOM      7  N   UNL     1       1.156   6.558  20.465  0.00  0.00    +0.000 NA
ATOM      8  C   UNL     1       2.024   7.442  19.845  0.00  0.00    +0.000 A 
ATOM      9  N   UNL     1       3.255   6.940  19.631  0.00  0.00    +0.000 NA
ATOM     10  N   UNL     1       3.103   5.667  20.057  0.00  0.00    +0.000 N 
ATOM     11  H   UNL     1       0.597   4.089  21.378  0.00  0.00    +0.000 HD
ENDROOT
BRANCH   1  15
ATOM     12  C   UNL     1       5.599   5.157  15.928  0.00  0.00    +0.000 A 
ATOM     13  C   UNL     1       4.446   4.389  16.153  0.00  0.00    +0.000 A 
ATOM     14  C   UNL     1       3.983   4.159  17.445  0.00  0.00    +0.000 A 
ATOM     15  C   UNL     1       4.700   4.654  18.537  0.00  0.00    +0.000 A 
ATOM     16  C   UNL     1       5.933   5.287  18.308  0.00  0.00    +0.000 A 
ATOM     17  C   UNL     1       6.398   5.540  17.013  0.00  0.00    +0.000 A 
BRANCH  12  19
ATOM     18  C   UNL     1       6.651   4.509  13.933  0.00  0.00    +0.000 C 
ATOM     19  O   UNL     1       5.937   5.522  14.652  0.00  0.00    +0.000 OA
ENDBRANCH  12  19
BRANCH  17  20
ATOM     20  O   UNL     1       7.607   6.177  17.024  0.00  0.00    +0.000 OA
ATOM     21  C   UNL     1       7.699   7.459  17.619  0.00  0.00    +0.000 C 
ENDBRANCH  17  20
ENDBRANCH   1  15
BRANCH   8  22
ATOM     22  C   UNL     1       1.607   8.785  19.434  0.00  0.00    +0.000 A 
ATOM     23  C   UNL     1       2.023   9.310  18.202  0.00  0.00    +0.000 A 
ATOM     24  C   UNL     1       1.635  10.595  17.805  0.00  0.00    +0.000 A 
ATOM     25  C   UNL     1       0.829  11.369  18.638  0.00  0.00    +0.000 A 
ATOM     26  C   UNL     1       0.411  10.861  19.867  0.00  0.00    +0.000 A 
ATOM     27  C   UNL     1       0.797   9.576  20.263  0.00  0.00    +0.000 A 
ENDBRANCH   8  22
BRANCH   2  28
ATOM     28  C   UNL     1       4.499   2.062  20.157  0.00  0.00    +0.000 C 
ATOM     29  N   UNL     1       4.319   1.345  19.016  0.00  0.00    +0.000 N 
ATOM     30  O   UNL     1       5.332   1.678  20.968  0.00  0.00    +0.000 OA
ATOM     31  H   UNL     1       3.557   1.446  18.364  0.00  0.00    +0.000 HD
ATOM     32  H   UNL     1       4.851   0.484  18.953  0.00  0.00    +0.000 HD
ENDBRANCH   2  28
TORSDOF 5
ENDMDL
MODEL 2
REMARK VINA RESULT:      -7.2      0.719      1.149
REMARK  Name = 
REMARK  8 active torsions:
REMARK  status: ('A' for Active; 'I' for Inactive)
REMARK    1  A    between atoms: C_1  and  O_2
REMARK    2  A    between atoms: O_2  and  C_3
REMARK    3  A    between atoms: C_6  and  C_7
REMARK    4  A    between atoms: C_8  and  C_9
REMARK    5  A    between atoms: C_12  and  C_13
REMARK    6  A    between atoms: C_17  and  C_18
REMARK    7  A    between atoms: C_27  and  O_28
REMARK    8  A    between atoms: O_28  and  C_29
REMARK                            x       y       z     vdW  Elec       q    Type
REMARK                         _______ _______ _______ _____ _____    ______ ____
ROOT
ATOM      1  C   UNL     1       3.937   4.569  19.681  0.00  0.00    +0.000 C 
ATOM      2  C   UNL     1       3.291   3.204  19.929  0.00  0.00    +0.000 C 
ATOM      3  C   UNL     1       1.989   3.128  20.320  0.00  0.00    +0.000 C 
ATOM      4  C   UNL     1       1.216   1.868  20.634  0.00  0.00    +0.000 C 
ATOM      5  N   UNL     1       1.232   4.290  20.473  0.00  0.00    +0.000 N 
ATOM      6  C   UNL     1       1.675   5.518  20.162  0.00  0.00    +0.000 A 
ATOM      7  N   UNL     1       1.060   6.671  20.104  0.00  0.00    +0.000 NA
ATOM      8  C   UNL     1       2.043   7.541  19.662  0.00  0.00    +0.000 A 
ATOM      9  N   UNL     1       3.253   6.969  19.517  0.00  0.00    +0.000 NA
ATOM     10  N   UNL     1       2.975   5.677  19.796  0.00  0.00    +0.000 N 
ATOM     11  H   UNL     1       0.249   4.177  20.708  0.00  0.00    +0.000 HD
ENDROOT
BRANCH   1  15
ATOM     12  C   UNL     1       5.817   5.361  15.881  0.00  0.00    +0.000 A 
ATOM     13  C   UNL     1       4.639   4.600  15.932  0.00  0.00    +0.000 A 
ATOM     14  C   UNL     1       4.043   4.288  17.150  0.00  0.00    +0.000 A 
ATOM     15  C   UNL     1       4.649   4.693  18.342  0.00  0.00    +0.000 A 
ATOM     16  C   UNL     1       5.906   5.317  18.286  0.00  0.00    +0.000 A 
ATOM     17  C   UNL     1       6.504   5.652  17.065  0.00  0.00    +0.000 A 
BRANCH  12  19
ATOM     18  C   UNL     1       6.875   4.779  13.868  0.00  0.00    +0.000 C 
ATOM     19  O   UNL     1       6.288   5.807  14.675  0.00  0.00    +0.000 OA
ENDBRANCH  12  19
BRANCH  17  20
ATOM     20  O   UNL     1       7.712   6.265  17.245  0.00  0.00    +0.000 OA
ATOM     21  C   UNL     1       7.737   7.633  17.610  0.00  0.00    +0.000 C 
ENDBRANCH  17  20
ENDBRANCH   1  15
BRANCH   8  22
ATOM     22  C   UNL     1       1.759   8.944  19.349  0.00  0.00    +0.000 A 
ATOM     23  C   UNL     1       0.987   9.723  20.223  0.00  0.00    +0.000 A 
ATOM     24  C   UNL     1       0.706  11.061  19.929  0.00  0.00    +0.000 A 
ATOM     25  C   UNL     1       1.192  11.634  18.755  0.00  0.00    +0.000 A 
ATOM     26  C   UNL     1       1.957  10.871  17.875  0.00  0.00    +0.000 A 
ATOM     27  C   UNL     1       2.241   9.533  18.170  0.00  0.00    +0.000 A 
ENDBRANCH   8  22
BRANCH   2  28
ATOM     28  C   UNL     1       4.113   1.984  19.667  0.00  0.00    +0.000 C 
ATOM     29  N   UNL     1       5.163   1.733  20.493  0.00  0.00    +0.000 N 
ATOM     30  O   UNL     1       3.920   1.236  18.716  0.00  0.00    +0.000 OA
ATOM     31  H   UNL     1       5.535   2.360  21.190  0.00  0.00    +0.000 HD
ATOM     32  H   UNL     1       5.766   0.968  20.212  0.00  0.00    +0.000 HD
ENDBRANCH   2  28
TORSDOF 5
ENDMDL
MODEL 3
REMARK VINA RESULT:      -7.1      3.366      7.454
REMARK  Name = 
REMARK  8 active torsions:
REMARK  status: ('A' for Active; 'I' for Inactive)
REMARK    1  A    between atoms: C_1  and  O_2
REMARK    2  A    between atoms: O_2  and  C_3
REMARK    3  A    between atoms: C_6  and  C_7
REMARK    4  A    between atoms: C_8  and  C_9
REMARK    5  A    between atoms: C_12  and  C_13
REMARK    6  A    between atoms: C_17  and  C_18
REMARK    7  A    between atoms: C_27  and  O_28
REMARK    8  A    between atoms: O_28  and  C_29
REMARK                            x       y       z     vdW  Elec       q    Type
REMARK                         _______ _______ _______ _____ _____    ______ ____
ROOT
ATOM      1  C   UNL     1       6.346   4.162  17.416  0.00  0.00    +0.000 C 
ATOM      2  C   UNL     1       6.899   5.427  18.075  0.00  0.00    +0.000 C 
ATOM      3  C   UNL     1       7.461   6.403  17.310  0.00  0.00    +0.000 C 
ATOM      4  C   UNL     1       8.078   7.691  17.804  0.00  0.00    +0.000 C 
ATOM      5  N   UNL     1       7.512   6.266  15.922  0.00  0.00    +0.000 N 
ATOM      6  C   UNL     1       6.945   5.254  15.249  0.00  0.00    +0.000 A 
ATOM      7  N   UNL     1       6.774   5.055  13.967  0.00  0.00    +0.000 NA
ATOM      8  C   UNL     1       6.070   3.863  13.915  0.00  0.00    +0.000 A 
ATOM      9  N   UNL     1       5.870   3.294  15.119  0.00  0.00    +0.000 NA
ATOM     10  N   UNL     1       6.395   4.224  15.946  0.00  0.00    +0.000 N 
ATOM     11  H   UNL     1       7.886   7.049  15.391  0.00  0.00    +0.000 HD
ENDROOT
BRANCH   1  15
ATOM     12  C   UNL     1       2.391   3.415  18.967  0.00  0.00    +0.000 A 
ATOM     13  C   UNL     1       3.361   2.403  19.012  0.00  0.00    +0.000 A 
ATOM     14  C   UNL     1       4.627   2.603  18.472  0.00  0.00    +0.000 A 
ATOM     15  C   UNL     1       4.925   3.808  17.831  0.00  0.00    +0.000 A 
ATOM     16  C   UNL     1       3.901   4.753  17.653  0.00  0.00    +0.000 A 
ATOM     17  C   UNL     1       2.630   4.569  18.210  0.00  0.00    +0.000 A 
BRANCH  12  19
ATOM     18  C   UNL     1       1.393   3.139  21.073  0.00  0.00    +0.000 C 
ATOM     19  O   UNL     1       1.217   3.267  19.657  0.00  0.00    +0.000 OA
ENDBRANCH  12  19
BRANCH  17  20
ATOM     20  O   UNL     1       1.797   5.615  17.928  0.00  0.00    +0.000 OA
ATOM     21  C   UNL     1       2.241   6.933  18.195  0.00  0.00    +0.000 C 
ENDBRANCH  17  20
ENDBRANCH   1  15
BRANCH   8  22
ATOM     22  C   UNL     1       5.565   3.310  12.656  0.00  0.00    +0.000 A 
ATOM     23  C   UNL     1       4.386   3.809  12.084  0.00  0.00    +0.000 A 
ATOM     24  C   UNL     1       3.894   3.281  10.886  0.00  0.00    +0.000 A 
ATOM     25  C   UNL     1       4.574   2.245  10.248  0.00  0.00    +0.000 A 
ATOM     26  C   UNL     1       5.745   1.736  10.807  0.00  0.00    +0.000 A 
ATOM     27  C   UNL     1       6.239   2.265  12.004  0.00  0.00    +0.000 A 
ENDBRANCH   8  22
BRANCH   2  28
ATOM     28  C   UNL     1       6.743   5.570  19.554  0.00  0.00    +0.000 C 
ATOM     29  N   UNL     1       7.863   5.515  20.322  0.00  0.00    +0.000 N 
ATOM     30  O   UNL     1       5.656   5.678  20.107  0.00  0.00    +0.000 OA
ATOM     31  H   UNL     1       8.785   5.249  20.011  0.00  0.00    +0.000 HD
ATOM     32  H   UNL     1       7.706   5.494  21.324  0.00  0.00    +0.000 HD
ENDBRANCH   2  28
TORSDOF 5
ENDMDL
MODEL 4
REMARK VINA RESULT:      -6.9      1.756      2.298
REMARK  Name = 
REMARK  8 active torsions:
REMARK  status: ('A' for Active; 'I' for Inactive)
REMARK    1  A    between atoms: C_1  and  O_2
REMARK    2  A    between atoms: O_2  and  C_3
REMARK    3  A    between atoms: C_6  and  C_7
REMARK    4  A    between atoms: C_8  and  C_9
REMARK    5  A    between atoms: C_12  and  C_13
REMARK    6  A    between atoms: C_17  and  C_18
REMARK    7  A    between atoms: C_27  and  O_28
REMARK    8  A    between atoms: O_28  and  C_29
REMARK                            x       y       z     vdW  Elec       q    Type
REMARK                         _______ _______ _______ _____ _____    ______ ____
ROOT
ATOM      1  C   UNL     1       3.469   4.510  19.978  0.00  0.00    +0.000 C 
ATOM      2  C   UNL     1       2.929   3.143  19.552  0.00  0.00    +0.000 C 
ATOM      3  C   UNL     1       1.594   2.886  19.623  0.00  0.00    +0.000 C 
ATOM      4  C   UNL     1       0.908   1.586  19.273  0.00  0.00    +0.000 C 
ATOM      5  N   UNL     1       0.710   3.874  20.059  0.00  0.00    +0.000 N 
ATOM      6  C   UNL     1       1.075   5.135  20.335  0.00  0.00    +0.000 A 
ATOM      7  N   UNL     1       0.367   6.202  20.605  0.00  0.00    +0.000 NA
ATOM      8  C   UNL     1       1.320   7.200  20.731  0.00  0.00    +0.000 A 
ATOM      9  N   UNL     1       2.588   6.762  20.617  0.00  0.00    +0.000 NA
ATOM     10  N   UNL     1       2.396   5.458  20.319  0.00  0.00    +0.000 N 
ATOM     11  H   UNL     1      -0.282   3.653  20.036  0.00  0.00    +0.000 HD
ENDROOT
BRANCH   1  15
ATOM     12  C   UNL     1       6.103   6.728  17.380  0.00  0.00    +0.000 A 
ATOM     13  C   UNL     1       4.730   6.670  17.098  0.00  0.00    +0.000 A 
ATOM     14  C   UNL     1       3.869   5.919  17.891  0.00  0.00    +0.000 A 
ATOM     15  C   UNL     1       4.381   5.171  18.954  0.00  0.00    +0.000 A 
ATOM     16  C   UNL     1       5.773   5.111  19.133  0.00  0.00    +0.000 A 
ATOM     17  C   UNL     1       6.646   5.878  18.352  0.00  0.00    +0.000 A 
BRANCH  12  19
ATOM     18  C   UNL     1       7.679   8.458  17.555  0.00  0.00    +0.000 C 
ATOM     19  O   UNL     1       6.903   7.608  16.702  0.00  0.00    +0.000 OA
ENDBRANCH  12  19
BRANCH  17  20
ATOM     20  O   UNL     1       7.951   5.678  18.707  0.00  0.00    +0.000 OA
ATOM     21  C   UNL     1       8.266   5.488  20.074  0.00  0.00    +0.000 C 
ENDBRANCH  17  20
ENDBRANCH   1  15
BRANCH   8  22
ATOM     22  C   UNL     1       0.956   8.604  20.932  0.00  0.00    +0.000 A 
ATOM     23  C   UNL     1       0.422   9.031  22.156  0.00  0.00    +0.000 A 
ATOM     24  C   UNL     1       0.065  10.369  22.354  0.00  0.00    +0.000 A 
ATOM     25  C   UNL     1       0.235  11.295  21.326  0.00  0.00    +0.000 A 
ATOM     26  C   UNL     1       0.761  10.886  20.102  0.00  0.00    +0.000 A 
ATOM     27  C   UNL     1       1.120   9.548  19.905  0.00  0.00    +0.000 A 
ENDBRANCH   8  22
BRANCH   2  28
ATOM     28  C   UNL     1       3.900   2.146  19.007  0.00  0.00    +0.000 C 
ATOM     29  N   UNL     1       4.887   1.703  19.830  0.00  0.00    +0.000 N 
ATOM     30  O   UNL     1       3.883   1.756  17.846  0.00  0.00    +0.000 OA
ATOM     31  H   UNL     1       5.120   2.079  20.737  0.00  0.00    +0.000 HD
ATOM     32  H   UNL     1       5.595   1.124  19.391  0.00  0.00    +0.000 HD
ENDBRANCH   2  28
TORSDOF 5
ENDMDL
MODEL 5
REMARK VINA RESULT:      -6.7      6.546      9.920
REMARK  Name = 
REMARK  8 active torsions:
REMARK  status: ('A' for Active; 'I' for Inactive)
REMARK    1  A    between atoms: C_1  and  O_2
REMARK    2  A    between atoms: O_2  and  C_3
REMARK    3  A    between atoms: C_6  and  C_7
REMARK    4  A    between atoms: C_8  and  C_9
REMARK    5  A    between atoms: C_12  and  C_13
REMARK    6  A    between atoms: C_17  and  C_18
REMARK    7  A    between atoms: C_27  and  O_28
REMARK    8  A    between atoms: O_28  and  C_29
REMARK                            x       y       z     vdW  Elec       q    Type
REMARK                         _______ _______ _______ _____ _____    ______ ____
ROOT
ATOM      1  C   UNL     1      -0.561  13.010  21.363  0.00  0.00    +0.000 C 
ATOM      2  C   UNL     1      -1.385  12.980  22.651  0.00  0.00    +0.000 C 
ATOM      3  C   UNL     1      -1.764  14.145  23.245  0.00  0.00    +0.000 C 
ATOM      4  C   UNL     1      -2.548  14.288  24.528  0.00  0.00    +0.000 C 
ATOM      5  N   UNL     1      -1.425  15.370  22.669  0.00  0.00    +0.000 N 
ATOM      6  C   UNL     1      -0.814  15.494  21.481  0.00  0.00    +0.000 A 
ATOM      7  N   UNL     1      -0.563  16.545  20.742  0.00  0.00    +0.000 NA
ATOM      8  C   UNL     1       0.031  16.010  19.610  0.00  0.00    +0.000 A 
ATOM      9  N   UNL     1       0.215  14.678  19.667  0.00  0.00    +0.000 NA
ATOM     10  N   UNL     1      -0.375  14.376  20.845  0.00  0.00    +0.000 N 
ATOM     11  H   UNL     1      -1.783  16.210  23.116  0.00  0.00    +0.000 HD
ENDROOT
BRANCH   1  15
ATOM     12  C   UNL     1      -1.917  10.841  17.890  0.00  0.00    +0.000 A 
ATOM     13  C   UNL     1      -2.809  11.672  18.586  0.00  0.00    +0.000 A 
ATOM     14  C   UNL     1      -2.409  12.341  19.738  0.00  0.00    +0.000 A 
ATOM     15  C   UNL     1      -1.119  12.147  20.240  0.00  0.00    +0.000 A 
ATOM     16  C   UNL     1      -0.288  11.196  19.626  0.00  0.00    +0.000 A 
ATOM     17  C   UNL     1      -0.674  10.532  18.456  0.00  0.00    +0.000 A 
BRANCH  12  19
ATOM     18  C   UNL     1      -3.246  11.125  15.976  0.00  0.00    +0.000 C 
ATOM     19  O   UNL     1      -2.270  10.336  16.667  0.00  0.00    +0.000 OA
ENDBRANCH  12  19
BRANCH  17  20
ATOM     20  O   UNL     1       0.290   9.666  18.023  0.00  0.00    +0.000 OA
ATOM     21  C   UNL     1       1.651   9.993  18.242  0.00  0.00    +0.000 C 
ENDBRANCH  17  20
ENDBRANCH   1  15
BRANCH   8  22
ATOM     22  C   UNL     1       0.385  16.835  18.452  0.00  0.00    +0.000 A 
ATOM     23  C   UNL     1       1.711  16.889  17.999  0.00  0.00    +0.000 A 
ATOM     24  C   UNL     1       2.058  17.679  16.898  0.00  0.00    +0.000 A 
ATOM     25  C   UNL     1       1.083  18.428  16.241  0.00  0.00    +0.000 A 
ATOM     26  C   UNL     1      -0.238  18.387  16.683  0.00  0.00    +0.000 A 
ATOM     27  C   UNL     1      -0.586  17.595  17.782  0.00  0.00    +0.000 A 
ENDBRANCH   8  22
BRANCH   2  28
ATOM     28  C   UNL     1      -1.801  11.647  23.184  0.00  0.00    +0.000 C 
ATOM     29  N   UNL     1      -0.870  10.657  23.221  0.00  0.00    +0.000 N 
ATOM     30  O   UNL     1      -2.947  11.391  23.533  0.00  0.00    +0.000 OA
ATOM     31  H   UNL     1       0.045  10.684  22.798  0.00  0.00    +0.000 HD
ATOM     32  H   UNL     1      -1.219   9.739  23.473  0.00  0.00    +0.000 HD
ENDBRANCH   2  28
TORSDOF 5
ENDMDL
MODEL 6
REMARK VINA RESULT:      -6.7      7.729     10.912
REMARK  Name = 
REMARK  8 active torsions:
REMARK  status: ('A' for Active; 'I' for Inactive)
REMARK    1  A    between atoms: C_1  and  O_2
REMARK    2  A    between atoms: O_2  and  C_3
REMARK    3  A    between atoms: C_6  and  C_7
REMARK    4  A    between atoms: C_8  and  C_9
REMARK    5  A    between atoms: C_12  and  C_13
REMARK    6  A    between atoms: C_17  and  C_18
REMARK    7  A    between atoms: C_27  and  O_28
REMARK    8  A    between atoms: O_28  and  C_29
REMARK                            x       y       z     vdW  Elec       q    Type
REMARK                         _______ _______ _______ _____ _____    ______ ____
ROOT
ATOM      1  C   UNL     1      -2.395  13.766  21.530  0.00  0.00    +0.000 C 
ATOM      2  C   UNL     1      -3.719  13.904  22.284  0.00  0.00    +0.000 C 
ATOM      3  C   UNL     1      -4.336  15.115  22.361  0.00  0.00    +0.000 C 
ATOM      4  C   UNL     1      -5.623  15.425  23.089  0.00  0.00    +0.000 C 
ATOM      5  N   UNL     1      -3.777  16.229  21.733  0.00  0.00    +0.000 N 
ATOM      6  C   UNL     1      -2.689  16.179  20.949  0.00  0.00    +0.000 A 
ATOM      7  N   UNL     1      -2.133  17.080  20.182  0.00  0.00    +0.000 NA
ATOM      8  C   UNL     1      -1.082  16.399  19.590  0.00  0.00    +0.000 A 
ATOM      9  N   UNL     1      -0.937  15.133  20.027  0.00  0.00    +0.000 NA
ATOM     10  N   UNL     1      -2.000  15.011  20.852  0.00  0.00    +0.000 N 
ATOM     11  H   UNL     1      -4.307  17.097  21.767  0.00  0.00    +0.000 HD
ENDROOT
BRANCH   1  15
ATOM     12  C   UNL     1      -2.019  10.824  18.398  0.00  0.00    +0.000 A 
ATOM     13  C   UNL     1      -3.180  11.607  18.484  0.00  0.00    +0.000 A 
ATOM     14  C   UNL     1      -3.346  12.526  19.516  0.00  0.00    +0.000 A 
ATOM     15  C   UNL     1      -2.369  12.638  20.509  0.00  0.00    +0.000 A 
ATOM     16  C   UNL     1      -1.287  11.742  20.499  0.00  0.00    +0.000 A 
ATOM     17  C   UNL     1      -1.102  10.828  19.456  0.00  0.00    +0.000 A 
BRANCH  12  19
ATOM     18  C   UNL     1      -2.518  10.495  16.128  0.00  0.00    +0.000 C 
ATOM     19  O   UNL     1      -1.793  10.059  17.284  0.00  0.00    +0.000 OA
ENDBRANCH  12  19
BRANCH  17  20
ATOM     20  O   UNL     1       0.020  10.069  19.641  0.00  0.00    +0.000 OA
ATOM     21  C   UNL     1       0.582   9.984  20.939  0.00  0.00    +0.000 C 
ENDBRANCH  17  20
ENDBRANCH   1  15
BRANCH   8  22
ATOM     22  C   UNL     1      -0.241  17.007  18.557  0.00  0.00    +0.000 A 
ATOM     23  C   UNL     1       1.134  16.737  18.512  0.00  0.00    +0.000 A 
ATOM     24  C   UNL     1       1.946  17.320  17.533  0.00  0.00    +0.000 A 
ATOM     25  C   UNL     1       1.391  18.183  16.590  0.00  0.00    +0.000 A 
ATOM     26  C   UNL     1       0.027  18.464  16.624  0.00  0.00    +0.000 A 
ATOM     27  C   UNL     1      -0.786  17.880  17.602  0.00  0.00    +0.000 A 
ENDBRANCH   8  22
BRANCH   2  28
ATOM     28  C   UNL     1      -4.325  12.668  22.866  0.00  0.00    +0.000 C 
ATOM     29  N   UNL     1      -3.679  12.067  23.900  0.00  0.00    +0.000 N 
ATOM     30  O   UNL     1      -5.338  12.143  22.420  0.00  0.00    +0.000 OA
ATOM     31  H   UNL     1      -2.754  12.290  24.234  0.00  0.00    +0.000 HD
ATOM     32  H   UNL     1      -4.053  11.169  24.186  0.00  0.00    +0.000 HD
ENDBRANCH   2  28
TORSDOF 5
ENDMDL
MODEL 7
REMARK VINA RESULT:      -6.6      7.659     10.808
REMARK  Name = 
REMARK  8 active torsions:
REMARK  status: ('A' for Active; 'I' for Inactive)
REMARK    1  A    between atoms: C_1  and  O_2
REMARK    2  A    between atoms: O_2  and  C_3
REMARK    3  A    between atoms: C_6  and  C_7
REMARK    4  A    between atoms: C_8  and  C_9
REMARK    5  A    between atoms: C_12  and  C_13
REMARK    6  A    between atoms: C_17  and  C_18
REMARK    7  A    between atoms: C_27  and  O_28
REMARK    8  A    between atoms: O_28  and  C_29
REMARK                            x       y       z     vdW  Elec       q    Type
REMARK                         _______ _______ _______ _____ _____    ______ ____
ROOT
ATOM      1  C   UNL     1      -2.158  13.712  21.506  0.00  0.00    +0.000 C 
ATOM      2  C   UNL     1      -3.443  13.855  22.324  0.00  0.00    +0.000 C 
ATOM      3  C   UNL     1      -4.033  15.074  22.459  0.00  0.00    +0.000 C 
ATOM      4  C   UNL     1      -5.279  15.389  23.253  0.00  0.00    +0.000 C 
ATOM      5  N   UNL     1      -3.484  16.193  21.831  0.00  0.00    +0.000 N 
ATOM      6  C   UNL     1      -2.434  16.143  20.996  0.00  0.00    +0.000 A 
ATOM      7  N   UNL     1      -1.898  17.053  20.225  0.00  0.00    +0.000 NA
ATOM      8  C   UNL     1      -0.888  16.368  19.569  0.00  0.00    +0.000 A 
ATOM      9  N   UNL     1      -0.747  15.090  19.968  0.00  0.00    +0.000 NA
ATOM     10  N   UNL     1      -1.772  14.966  20.839  0.00  0.00    +0.000 N 
ATOM     11  H   UNL     1      -3.994  17.069  21.911  0.00  0.00    +0.000 HD
ENDROOT
BRANCH   1  15
ATOM     12  C   UNL     1      -1.972  10.835  18.297  0.00  0.00    +0.000 A 
ATOM     13  C   UNL     1      -3.099  11.660  18.430  0.00  0.00    +0.000 A 
ATOM     14  C   UNL     1      -3.205  12.559  19.487  0.00  0.00    +0.000 A 
ATOM     15  C   UNL     1      -2.201  12.609  20.458  0.00  0.00    +0.000 A 
ATOM     16  C   UNL     1      -1.155  11.673  20.401  0.00  0.00    +0.000 A 
ATOM     17  C   UNL     1      -1.031  10.778  19.332  0.00  0.00    +0.000 A 
BRANCH  12  19
ATOM     18  C   UNL     1      -2.603  10.530  16.057  0.00  0.00    +0.000 C 
ATOM     19  O   UNL     1      -1.803  10.089  17.161  0.00  0.00    +0.000 OA
ENDBRANCH  12  19
BRANCH  17  20
ATOM     20  O   UNL     1       0.064   9.971  19.472  0.00  0.00    +0.000 OA
ATOM     21  C   UNL     1       0.459   9.574  20.773  0.00  0.00    +0.000 C 
ENDBRANCH  17  20
ENDBRANCH   1  15
BRANCH   8  22
ATOM     22  C   UNL     1      -0.085  16.987  18.512  0.00  0.00    +0.000 A 
ATOM     23  C   UNL     1      -0.681  17.852  17.582  0.00  0.00    +0.000 A 
ATOM     24  C   UNL     1       0.078  18.442  16.566  0.00  0.00    +0.000 A 
ATOM     25  C   UNL     1       1.441  18.170  16.466  0.00  0.00    +0.000 A 
ATOM     26  C   UNL     1       2.047  17.310  17.380  0.00  0.00    +0.000 A 
ATOM     27  C   UNL     1       1.288  16.721  18.398  0.00  0.00    +0.000 A 
ENDBRANCH   8  22
BRANCH   2  28
ATOM     28  C   UNL     1      -4.044  12.615  22.904  0.00  0.00    +0.000 C 
ATOM     29  N   UNL     1      -5.286  12.253  22.485  0.00  0.00    +0.000 N 
ATOM     30  O   UNL     1      -3.499  11.947  23.774  0.00  0.00    +0.000 OA
ATOM     31  H   UNL     1      -5.909  12.809  21.919  0.00  0.00    +0.000 HD
ATOM     32  H   UNL     1      -5.708  11.480  22.987  0.00  0.00    +0.000 HD
ENDBRANCH   2  28
TORSDOF 5
ENDMDL
MODEL 8
REMARK VINA RESULT:      -6.6      7.866     11.312
REMARK  Name = 
REMARK  8 active torsions:
REMARK  status: ('A' for Active; 'I' for Inactive)
REMARK    1  A    between atoms: C_1  and  O_2
REMARK    2  A    between atoms: O_2  and  C_3
REMARK    3  A    between atoms: C_6  and  C_7
REMARK    4  A    between atoms: C_8  and  C_9
REMARK    5  A    between atoms: C_12  and  C_13
REMARK    6  A    between atoms: C_17  and  C_18
REMARK    7  A    between atoms: C_27  and  O_28
REMARK    8  A    between atoms: O_28  and  C_29
REMARK                            x       y       z     vdW  Elec       q    Type
REMARK                         _______ _______ _______ _____ _____    ______ ____
ROOT
ATOM      1  C   UNL     1      -2.527  14.507  22.199  0.00  0.00    +0.000 C 
ATOM      2  C   UNL     1      -3.984  14.485  22.662  0.00  0.00    +0.000 C 
ATOM      3  C   UNL     1      -4.844  15.458  22.252  0.00  0.00    +0.000 C 
ATOM      4  C   UNL     1      -6.297  15.598  22.641  0.00  0.00    +0.000 C 
ATOM      5  N   UNL     1      -4.406  16.464  21.389  0.00  0.00    +0.000 N 
ATOM      6  C   UNL     1      -3.185  16.495  20.835  0.00  0.00    +0.000 A 
ATOM      7  N   UNL     1      -2.674  17.266  19.910  0.00  0.00    +0.000 NA
ATOM      8  C   UNL     1      -1.397  16.757  19.732  0.00  0.00    +0.000 A 
ATOM      9  N   UNL     1      -1.091  15.748  20.570  0.00  0.00    +0.000 NA
ATOM     10  N   UNL     1      -2.261  15.576  21.222  0.00  0.00    +0.000 N 
ATOM     11  H   UNL     1      -5.101  17.132  21.063  0.00  0.00    +0.000 HD
ENDROOT
BRANCH   1  15
ATOM     12  C   UNL     1      -0.741  11.001  20.429  0.00  0.00    +0.000 A 
ATOM     13  C   UNL     1      -1.750  11.693  19.742  0.00  0.00    +0.000 A 
ATOM     14  C   UNL     1      -2.377  12.795  20.315  0.00  0.00    +0.000 A 
ATOM     15  C   UNL     1      -2.035  13.192  21.611  0.00  0.00    +0.000 A 
ATOM     16  C   UNL     1      -1.138  12.400  22.347  0.00  0.00    +0.000 A 
ATOM     17  C   UNL     1      -0.489  11.301  21.774  0.00  0.00    +0.000 A 
BRANCH  12  19
ATOM     18  C   UNL     1       0.758  10.532  18.686  0.00  0.00    +0.000 C 
ATOM     19  O   UNL     1      -0.016  10.035  19.784  0.00  0.00    +0.000 OA
ENDBRANCH  12  19
BRANCH  17  20
ATOM     20  O   UNL     1       0.348  10.687  22.663  0.00  0.00    +0.000 OA
ATOM     21  C   UNL     1      -0.092   9.510  23.316  0.00  0.00    +0.000 C 
ENDBRANCH  17  20
ENDBRANCH   1  15
BRANCH   8  22
ATOM     22  C   UNL     1      -0.494  17.261  18.696  0.00  0.00    +0.000 A 
ATOM     23  C   UNL     1       0.866  16.921  18.714  0.00  0.00    +0.000 A 
ATOM     24  C   UNL     1       1.738  17.404  17.732  0.00  0.00    +0.000 A 
ATOM     25  C   UNL     1       1.257  18.237  16.722  0.00  0.00    +0.000 A 
ATOM     26  C   UNL     1      -0.091  18.587  16.693  0.00  0.00    +0.000 A 
ATOM     27  C   UNL     1      -0.963  18.102  17.674  0.00  0.00    +0.000 A 
ENDBRANCH   8  22
BRANCH   2  28
ATOM     28  C   UNL     1      -4.431  13.341  23.513  0.00  0.00    +0.000 C 
ATOM     29  N   UNL     1      -4.143  13.384  24.841  0.00  0.00    +0.000 N 
ATOM     30  O   UNL     1      -4.989  12.347  23.064  0.00  0.00    +0.000 OA
ATOM     31  H   UNL     1      -3.535  14.047  25.297  0.00  0.00    +0.000 HD
ATOM     32  H   UNL     1      -4.352  12.539  25.361  0.00  0.00    +0.000 HD
ENDBRANCH   2  28
TORSDOF 5
ENDMDL
MODEL 9
REMARK VINA RESULT:      -6.6      5.976     10.113
REMARK  Name = 
REMARK  8 active torsions:
REMARK  status: ('A' for Active; 'I' for Inactive)
REMARK    1  A    between atoms: C_1  and  O_2
REMARK    2  A    between atoms: O_2  and  C_3
REMARK    3  A    between atoms: C_6  and  C_7
REMARK    4  A    between atoms: C_8  and  C_9
REMARK    5  A    between atoms: C_12  and  C_13
REMARK    6  A    between atoms: C_17  and  C_18
REMARK    7  A    between atoms: C_27  and  O_28
REMARK    8  A    between atoms: O_28  and  C_29
REMARK                            x       y       z     vdW  Elec       q    Type
REMARK                         _______ _______ _______ _____ _____    ______ ____
ROOT
ATOM      1  C   UNL     1      -2.110  12.080  20.640  0.00  0.00    +0.000 C 
ATOM      2  C   UNL     1      -1.946  13.520  21.130  0.00  0.00    +0.000 C 
ATOM      3  C   UNL     1      -0.760  13.928  21.660  0.00  0.00    +0.000 C 
ATOM      4  C   UNL     1      -0.445  15.298  22.214  0.00  0.00    +0.000 C 
ATOM      5  N   UNL     1       0.317  13.044  21.735  0.00  0.00    +0.000 N 
ATOM      6  C   UNL     1       0.305  11.804  21.221  0.00  0.00    +0.000 A 
ATOM      7  N   UNL     1       1.257  10.919  21.075  0.00  0.00    +0.000 NA
ATOM      8  C   UNL     1       0.627   9.871  20.424  0.00  0.00    +0.000 A 
ATOM      9  N   UNL     1      -0.692  10.060  20.233  0.00  0.00    +0.000 NA
ATOM     10  N   UNL     1      -0.854  11.315  20.706  0.00  0.00    +0.000 N 
ATOM     11  H   UNL     1       1.199  13.413  22.082  0.00  0.00    +0.000 HD
ENDROOT
BRANCH   1  15
ATOM     12  C   UNL     1      -3.725  11.276  16.722  0.00  0.00    +0.000 A 
ATOM     13  C   UNL     1      -2.366  11.591  16.866  0.00  0.00    +0.000 A 
ATOM     14  C   UNL     1      -1.833  11.905  18.112  0.00  0.00    +0.000 A 
ATOM     15  C   UNL     1      -2.670  11.956  19.230  0.00  0.00    +0.000 A 
ATOM     16  C   UNL     1      -4.053  11.792  19.050  0.00  0.00    +0.000 A 
ATOM     17  C   UNL     1      -4.595  11.458  17.804  0.00  0.00    +0.000 A 
BRANCH  12  19
ATOM     18  C   UNL     1      -3.168  10.271  14.676  0.00  0.00    +0.000 C 
ATOM     19  O   UNL     1      -4.192  10.798  15.527  0.00  0.00    +0.000 OA
ENDBRANCH  12  19
BRANCH  17  20
ATOM     20  O   UNL     1      -5.955  11.332  17.861  0.00  0.00    +0.000 OA
ATOM     21  C   UNL     1      -6.529  10.584  18.918  0.00  0.00    +0.000 C 
ENDBRANCH  17  20
ENDBRANCH   1  15
BRANCH   8  22
ATOM     22  C   UNL     1       1.358   8.689  19.960  0.00  0.00    +0.000 A 
ATOM     23  C   UNL     1       1.927   8.664  18.679  0.00  0.00    +0.000 A 
ATOM     24  C   UNL     1       2.620   7.537  18.226  0.00  0.00    +0.000 A 
ATOM     25  C   UNL     1       2.749   6.420  19.050  0.00  0.00    +0.000 A 
ATOM     26  C   UNL     1       2.186   6.428  20.324  0.00  0.00    +0.000 A 
ATOM     27  C   UNL     1       1.494   7.556  20.778  0.00  0.00    +0.000 A 
ENDBRANCH   8  22
BRANCH   2  28
ATOM     28  C   UNL     1      -3.097  14.456  20.948  0.00  0.00    +0.000 C 
ATOM     29  N   UNL     1      -2.915  15.542  20.150  0.00  0.00    +0.000 N 
ATOM     30  O   UNL     1      -4.169  14.322  21.524  0.00  0.00    +0.000 OA
ATOM     31  H   UNL     1      -2.036  15.861  19.771  0.00  0.00    +0.000 HD
ATOM     32  H   UNL     1      -3.674  16.214  20.148  0.00  0.00    +0.000 HD
ENDBRANCH   2  28
TORSDOF 5
ENDMDL
