MODEL 1
REMARK VINA RESULT:      -8.1      0.000      0.000
REMARK  Name = 
REMARK  7 active torsions:
REMARK  status: ('A' for Active; 'I' for Inactive)
REMARK    1  A    between atoms: C_1  and  O_2
REMARK    2  A    between atoms: O_2  and  C_3
REMARK    3  A    between atoms: C_5  and  C_6
REMARK    4  A    between atoms: N_7  and  N_8
REMARK    5  A    between atoms: C_9  and  C_11
REMARK    6  A    between atoms: N_13  and  C_14
REMARK    7  A    between atoms: C_29  and  O_30
REMARK                            x       y       z     vdW  Elec       q    Type
REMARK                         _______ _______ _______ _____ _____    ______ ____
ROOT
ATOM      1  N   UNL     1       1.995   4.601  19.057  0.00  0.00    +0.000 N 
ATOM      2  C   UNL     1       2.105   5.302  20.245  0.00  0.00    +0.000 C 
ATOM      3  O   UNL     1       2.429   4.829  21.331  0.00  0.00    +0.000 OA
ATOM      4  H   UNL     1       1.779   5.100  18.189  0.00  0.00    +0.000 HD
ENDROOT
BRANCH   2   5
ATOM      5  C   UNL     1       1.705   6.736  20.123  0.00  0.00    +0.000 A 
ATOM      6  C   UNL     1       0.924   7.297  21.061  0.00  0.00    +0.000 A 
ATOM      7  N   UNL     1       0.435   8.596  21.045  0.00  0.00    +0.000 N 
ATOM      8  C   UNL     1       0.959   9.519  20.095  0.00  0.00    +0.000 A 
ATOM      9  C   UNL     1       0.710  10.898  20.149  0.00  0.00    +0.000 A 
ATOM     10  C   UNL     1       1.271  11.760  19.198  0.00  0.00    +0.000 A 
ATOM     11 CL   UNL     1       0.966  13.451  19.312  0.00  0.00    +0.000 Cl
ATOM     12  C   UNL     1       2.075  11.255  18.179  0.00  0.00    +0.000 A 
ATOM     13  F   UNL     1       2.622  12.071  17.267  0.00  0.00    +0.000 F 
ATOM     14  C   UNL     1       2.330   9.895  18.093  0.00  0.00    +0.000 A 
ATOM     15  C   UNL     1       1.778   9.038  19.053  0.00  0.00    +0.000 A 
ATOM     16  C   UNL     1       2.067   7.590  18.968  0.00  0.00    +0.000 A 
ATOM     17  O   UNL     1       2.591   7.119  17.960  0.00  0.00    +0.000 OA
BRANCH   7  18
ATOM     18  C   UNL     1      -0.431   9.032  22.160  0.00  0.00    +0.000 C 
ATOM     19  C   UNL     1       0.127   9.435  23.505  0.00  0.00    +0.000 C 
ATOM     20  C   UNL     1      -0.479  10.472  22.614  0.00  0.00    +0.000 C 
ENDBRANCH   7  18
ENDBRANCH   2   5
BRANCH   1  22
ATOM     21  C   UNL     1       3.452   2.923  18.506  0.00  0.00    +0.000 C 
ATOM     22  N   UNL     1       2.285   3.274  18.972  0.00  0.00    +0.000 NA
BRANCH  21  25
ATOM     23  C   UNL     1       6.696   4.731  17.758  0.00  0.00    +0.000 A 
ATOM     24  C   UNL     1       5.682   4.016  18.421  0.00  0.00    +0.000 A 
ATOM     25  C   UNL     1       4.464   3.739  17.790  0.00  0.00    +0.000 A 
ATOM     26  C   UNL     1       4.275   4.136  16.465  0.00  0.00    +0.000 A 
ATOM     27  C   UNL     1       5.259   4.872  15.806  0.00  0.00    +0.000 A 
ATOM     28  C   UNL     1       6.459   5.180  16.452  0.00  0.00    +0.000 A 
BRANCH  23  30
ATOM     29  C   UNL     1       7.999   6.116  19.216  0.00  0.00    +0.000 C 
ATOM     30  O   UNL     1       7.829   4.891  18.512  0.00  0.00    +0.000 OA
ENDBRANCH  23  30
BRANCH  28  31
ATOM     31  O   UNL     1       7.383   5.917  15.766  0.00  0.00    +0.000 OA
ATOM     32  H   UNL     1       7.318   6.849  16.032  0.00  0.00    +0.000 HD
ENDBRANCH  28  31
ENDBRANCH  21  25
ENDBRANCH   1  22
TORSDOF 6
ENDMDL
MODEL 2
REMARK VINA RESULT:      -8.1      0.799      1.650
REMARK  Name = 
REMARK  7 active torsions:
REMARK  status: ('A' for Active; 'I' for Inactive)
REMARK    1  A    between atoms: C_1  and  O_2
REMARK    2  A    between atoms: O_2  and  C_3
REMARK    3  A    between atoms: C_5  and  C_6
REMARK    4  A    between atoms: N_7  and  N_8
REMARK    5  A    between atoms: C_9  and  C_11
REMARK    6  A    between atoms: N_13  and  C_14
REMARK    7  A    between atoms: C_29  and  O_30
REMARK                            x       y       z     vdW  Elec       q    Type
REMARK                         _______ _______ _______ _____ _____    ______ ____
ROOT
ATOM      1  N   UNL     1       2.219   4.911  18.894  0.00  0.00    +0.000 N 
ATOM      2  C   UNL     1       2.245   5.550  20.121  0.00  0.00    +0.000 C 
ATOM      3  O   UNL     1       2.553   5.036  21.192  0.00  0.00    +0.000 OA
ATOM      4  H   UNL     1       2.009   5.445  18.046  0.00  0.00    +0.000 HD
ENDROOT
BRANCH   2   5
ATOM      5  C   UNL     1       1.770   6.965  20.060  0.00  0.00    +0.000 A 
ATOM      6  C   UNL     1       0.957   7.442  21.016  0.00  0.00    +0.000 A 
ATOM      7  N   UNL     1       0.400   8.714  21.053  0.00  0.00    +0.000 N 
ATOM      8  C   UNL     1       0.878   9.704  20.149  0.00  0.00    +0.000 A 
ATOM      9  C   UNL     1       0.556  11.064  20.261  0.00  0.00    +0.000 A 
ATOM     10  C   UNL     1       1.075  11.995  19.352  0.00  0.00    +0.000 A 
ATOM     11 CL   UNL     1       0.681  13.661  19.538  0.00  0.00    +0.000 Cl
ATOM     12  C   UNL     1       1.909  11.579  18.317  0.00  0.00    +0.000 A 
ATOM     13  F   UNL     1       2.416  12.462  17.445  0.00  0.00    +0.000 F 
ATOM     14  C   UNL     1       2.236  10.239  18.174  0.00  0.00    +0.000 A 
ATOM     15  C   UNL     1       1.726   9.313  19.092  0.00  0.00    +0.000 A 
ATOM     16  C   UNL     1       2.091   7.887  18.945  0.00  0.00    +0.000 A 
ATOM     17  O   UNL     1       2.644   7.489  17.921  0.00  0.00    +0.000 OA
BRANCH   7  18
ATOM     18  C   UNL     1      -0.492   9.054  22.181  0.00  0.00    +0.000 C 
ATOM     19  C   UNL     1       0.039   9.458  23.537  0.00  0.00    +0.000 C 
ATOM     20  C   UNL     1      -0.643  10.473  22.676  0.00  0.00    +0.000 C 
ENDBRANCH   7  18
ENDBRANCH   2   5
BRANCH   1  22
ATOM     21  C   UNL     1       3.830   3.343  18.464  0.00  0.00    +0.000 C 
ATOM     22  N   UNL     1       2.586   3.608  18.750  0.00  0.00    +0.000 NA
BRANCH  21  25
ATOM     23  C   UNL     1       6.006   5.411  16.153  0.00  0.00    +0.000 A 
ATOM     24  C   UNL     1       5.043   4.504  16.632  0.00  0.00    +0.000 A 
ATOM     25  C   UNL     1       4.905   4.256  18.002  0.00  0.00    +0.000 A 
ATOM     26  C   UNL     1       5.702   4.959  18.907  0.00  0.00    +0.000 A 
ATOM     27  C   UNL     1       6.682   5.837  18.445  0.00  0.00    +0.000 A 
ATOM     28  C   UNL     1       6.843   6.054  17.074  0.00  0.00    +0.000 A 
BRANCH  23  30
ATOM     29  C   UNL     1       6.533   4.501  13.999  0.00  0.00    +0.000 C 
ATOM     30  O   UNL     1       5.988   5.551  14.789  0.00  0.00    +0.000 OA
ENDBRANCH  23  30
BRANCH  28  31
ATOM     31  O   UNL     1       7.828   6.912  16.674  0.00  0.00    +0.000 OA
ATOM     32  H   UNL     1       7.507   7.454  15.935  0.00  0.00    +0.000 HD
ENDBRANCH  28  31
ENDBRANCH  21  25
ENDBRANCH   1  22
TORSDOF 6
ENDMDL
MODEL 3
REMARK VINA RESULT:      -8.1      3.943      5.561
REMARK  Name = 
REMARK  7 active torsions:
REMARK  status: ('A' for Active; 'I' for Inactive)
REMARK    1  A    between atoms: C_1  and  O_2
REMARK    2  A    between atoms: O_2  and  C_3
REMARK    3  A    between atoms: C_5  and  C_6
REMARK    4  A    between atoms: N_7  and  N_8
REMARK    5  A    between atoms: C_9  and  C_11
REMARK    6  A    between atoms: N_13  and  C_14
REMARK    7  A    between atoms: C_29  and  O_30
REMARK                            x       y       z     vdW  Elec       q    Type
REMARK                         _______ _______ _______ _____ _____    ______ ____
ROOT
ATOM      1  N   UNL     1       1.884   9.345  17.910  0.00  0.00    +0.000 N 
ATOM      2  C   UNL     1       1.677  10.697  18.124  0.00  0.00    +0.000 C 
ATOM      3  O   UNL     1       2.527  11.577  18.027  0.00  0.00    +0.000 OA
ATOM      4  H   UNL     1       1.093   8.696  17.954  0.00  0.00    +0.000 HD
ENDROOT
BRANCH   2   5
ATOM      5  C   UNL     1       0.292  11.017  18.581  0.00  0.00    +0.000 A 
ATOM      6  C   UNL     1       0.102  11.873  19.598  0.00  0.00    +0.000 A 
ATOM      7  N   UNL     1      -1.121  12.217  20.158  0.00  0.00    +0.000 N 
ATOM      8  C   UNL     1      -2.318  11.833  19.489  0.00  0.00    +0.000 A 
ATOM      9  C   UNL     1      -3.583  12.327  19.839  0.00  0.00    +0.000 A 
ATOM     10  C   UNL     1      -4.724  11.929  19.130  0.00  0.00    +0.000 A 
ATOM     11 CL   UNL     1      -6.257  12.579  19.568  0.00  0.00    +0.000 Cl
ATOM     12  C   UNL     1      -4.616  11.026  18.074  0.00  0.00    +0.000 A 
ATOM     13  F   UNL     1      -5.699  10.642  17.385  0.00  0.00    +0.000 F 
ATOM     14  C   UNL     1      -3.380  10.512  17.713  0.00  0.00    +0.000 A 
ATOM     15  C   UNL     1      -2.241  10.922  18.416  0.00  0.00    +0.000 A 
ATOM     16  C   UNL     1      -0.922  10.384  18.016  0.00  0.00    +0.000 A 
ATOM     17  O   UNL     1      -0.849   9.434  17.237  0.00  0.00    +0.000 OA
BRANCH   7  18
ATOM     18  C   UNL     1      -1.130  13.166  21.291  0.00  0.00    +0.000 C 
ATOM     19  C   UNL     1      -0.900  12.722  22.717  0.00  0.00    +0.000 C 
ATOM     20  C   UNL     1       0.136  13.546  22.021  0.00  0.00    +0.000 C 
ENDBRANCH   7  18
ENDBRANCH   2   5
BRANCH   1  22
ATOM     21  C   UNL     1       3.322   7.579  17.682  0.00  0.00    +0.000 C 
ATOM     22  N   UNL     1       3.090   8.852  17.518  0.00  0.00    +0.000 NA
BRANCH  21  25
ATOM     23  C   UNL     1       1.565   4.359  18.625  0.00  0.00    +0.000 A 
ATOM     24  C   UNL     1       2.221   5.361  17.888  0.00  0.00    +0.000 A 
ATOM     25  C   UNL     1       2.570   6.580  18.481  0.00  0.00    +0.000 A 
ATOM     26  C   UNL     1       2.307   6.780  19.837  0.00  0.00    +0.000 A 
ATOM     27  C   UNL     1       1.629   5.808  20.571  0.00  0.00    +0.000 A 
ATOM     28  C   UNL     1       1.247   4.607  19.967  0.00  0.00    +0.000 A 
BRANCH  23  30
ATOM     29  C   UNL     1       2.339   2.231  17.838  0.00  0.00    +0.000 C 
ATOM     30  O   UNL     1       1.320   3.223  17.897  0.00  0.00    +0.000 OA
ENDBRANCH  23  30
BRANCH  28  31
ATOM     31  O   UNL     1       0.571   3.695  20.727  0.00  0.00    +0.000 OA
ATOM     32  H   UNL     1      -0.297   3.522  20.331  0.00  0.00    +0.000 HD
ENDBRANCH  28  31
ENDBRANCH  21  25
ENDBRANCH   1  22
TORSDOF 6
ENDMDL
MODEL 4
REMARK VINA RESULT:      -8.0      3.447      7.609
REMARK  Name = 
REMARK  7 active torsions:
REMARK  status: ('A' for Active; 'I' for Inactive)
REMARK    1  A    between atoms: C_1  and  O_2
REMARK    2  A    between atoms: O_2  and  C_3
REMARK    3  A    between atoms: C_5  and  C_6
REMARK    4  A    between atoms: N_7  and  N_8
REMARK    5  A    between atoms: C_9  and  C_11
REMARK    6  A    between atoms: N_13  and  C_14
REMARK    7  A    between atoms: C_29  and  O_30
REMARK                            x       y       z     vdW  Elec       q    Type
REMARK                         _______ _______ _______ _____ _____    ______ ____
ROOT
ATOM      1  N   UNL     1       1.002   9.075  22.268  0.00  0.00    +0.000 N 
ATOM      2  C   UNL     1       0.391   8.080  21.524  0.00  0.00    +0.000 C 
ATOM      3  O   UNL     1      -0.801   7.790  21.553  0.00  0.00    +0.000 OA
ATOM      4  H   UNL     1       1.994   9.281  22.124  0.00  0.00    +0.000 HD
ENDROOT
BRANCH   2   5
ATOM      5  C   UNL     1       1.351   7.290  20.696  0.00  0.00    +0.000 A 
ATOM      6  C   UNL     1       1.559   5.991  20.966  0.00  0.00    +0.000 A 
ATOM      7  N   UNL     1       2.458   5.156  20.315  0.00  0.00    +0.000 N 
ATOM      8  C   UNL     1       3.068   5.605  19.109  0.00  0.00    +0.000 A 
ATOM      9  C   UNL     1       3.797   4.761  18.259  0.00  0.00    +0.000 A 
ATOM     10  C   UNL     1       4.356   5.255  17.074  0.00  0.00    +0.000 A 
ATOM     11 CL   UNL     1       5.220   4.183  16.040  0.00  0.00    +0.000 Cl
ATOM     12  C   UNL     1       4.204   6.597  16.731  0.00  0.00    +0.000 A 
ATOM     13  F   UNL     1       4.730   7.079  15.596  0.00  0.00    +0.000 F 
ATOM     14  C   UNL     1       3.499   7.458  17.557  0.00  0.00    +0.000 A 
ATOM     15  C   UNL     1       2.930   6.957  18.734  0.00  0.00    +0.000 A 
ATOM     16  C   UNL     1       2.164   7.876  19.604  0.00  0.00    +0.000 A 
ATOM     17  O   UNL     1       2.209   9.091  19.418  0.00  0.00    +0.000 OA
BRANCH   7  18
ATOM     18  C   UNL     1       2.564   3.753  20.768  0.00  0.00    +0.000 C 
ATOM     19  C   UNL     1       1.480   3.083  21.580  0.00  0.00    +0.000 C 
ATOM     20  C   UNL     1       1.717   2.657  20.166  0.00  0.00    +0.000 C 
ENDBRANCH   7  18
ENDBRANCH   2   5
BRANCH   1  22
ATOM     21  C   UNL     1      -0.437  10.826  22.589  0.00  0.00    +0.000 C 
ATOM     22  N   UNL     1       0.299   9.883  23.108  0.00  0.00    +0.000 NA
BRANCH  21  25
ATOM     23  C   UNL     1      -1.605  11.556  19.060  0.00  0.00    +0.000 A 
ATOM     24  C   UNL     1      -1.518  11.026  20.360  0.00  0.00    +0.000 A 
ATOM     25  C   UNL     1      -0.449  11.355  21.203  0.00  0.00    +0.000 A 
ATOM     26  C   UNL     1       0.515  12.262  20.761  0.00  0.00    +0.000 A 
ATOM     27  C   UNL     1       0.458  12.771  19.464  0.00  0.00    +0.000 A 
ATOM     28  C   UNL     1      -0.590  12.410  18.611  0.00  0.00    +0.000 A 
BRANCH  23  30
ATOM     29  C   UNL     1      -2.634   9.981  17.576  0.00  0.00    +0.000 C 
ATOM     30  O   UNL     1      -2.725  11.149  18.383  0.00  0.00    +0.000 OA
ENDBRANCH  23  30
BRANCH  28  31
ATOM     31  O   UNL     1      -0.590  12.925  17.345  0.00  0.00    +0.000 OA
ATOM     32  H   UNL     1      -0.787  12.219  16.708  0.00  0.00    +0.000 HD
ENDBRANCH  28  31
ENDBRANCH  21  25
ENDBRANCH   1  22
TORSDOF 6
ENDMDL
MODEL 5
REMARK VINA RESULT:      -7.7      3.423      7.284
REMARK  Name = 
REMARK  7 active torsions:
REMARK  status: ('A' for Active; 'I' for Inactive)
REMARK    1  A    between atoms: C_1  and  O_2
REMARK    2  A    between atoms: O_2  and  C_3
REMARK    3  A    between atoms: C_5  and  C_6
REMARK    4  A    between atoms: N_7  and  N_8
REMARK    5  A    between atoms: C_9  and  C_11
REMARK    6  A    between atoms: N_13  and  C_14
REMARK    7  A    between atoms: C_29  and  O_30
REMARK                            x       y       z     vdW  Elec       q    Type
REMARK                         _______ _______ _______ _____ _____    ______ ____
ROOT
ATOM      1  N   UNL     1       1.023   8.979  22.268  0.00  0.00    +0.000 N 
ATOM      2  C   UNL     1       0.393   8.028  21.483  0.00  0.00    +0.000 C 
ATOM      3  O   UNL     1      -0.805   7.760  21.503  0.00  0.00    +0.000 OA
ATOM      4  H   UNL     1       2.019   9.173  22.130  0.00  0.00    +0.000 HD
ENDROOT
BRANCH   2   5
ATOM      5  C   UNL     1       1.336   7.256  20.620  0.00  0.00    +0.000 A 
ATOM      6  C   UNL     1       1.496   5.937  20.814  0.00  0.00    +0.000 A 
ATOM      7  N   UNL     1       2.375   5.112  20.125  0.00  0.00    +0.000 N 
ATOM      8  C   UNL     1       3.017   5.610  18.956  0.00  0.00    +0.000 A 
ATOM      9  C   UNL     1       3.728   4.793  18.065  0.00  0.00    +0.000 A 
ATOM     10  C   UNL     1       4.321   5.338  16.919  0.00  0.00    +0.000 A 
ATOM     11 CL   UNL     1       5.162   4.300  15.833  0.00  0.00    +0.000 Cl
ATOM     12  C   UNL     1       4.220   6.702  16.656  0.00  0.00    +0.000 A 
ATOM     13  F   UNL     1       4.779   7.233  15.559  0.00  0.00    +0.000 F 
ATOM     14  C   UNL     1       3.533   7.537  17.524  0.00  0.00    +0.000 A 
ATOM     15  C   UNL     1       2.931   6.986  18.661  0.00  0.00    +0.000 A 
ATOM     16  C   UNL     1       2.184   7.878  19.576  0.00  0.00    +0.000 A 
ATOM     17  O   UNL     1       2.275   9.099  19.465  0.00  0.00    +0.000 OA
BRANCH   7  18
ATOM     18  C   UNL     1       2.426   3.681  20.493  0.00  0.00    +0.000 C 
ATOM     19  C   UNL     1       2.252   3.208  21.918  0.00  0.00    +0.000 C 
ATOM     20  C   UNL     1       1.188   2.921  20.906  0.00  0.00    +0.000 C 
ENDBRANCH   7  18
ENDBRANCH   2   5
BRANCH   1  22
ATOM     21  C   UNL     1      -0.332  10.779  22.671  0.00  0.00    +0.000 C 
ATOM     22  N   UNL     1       0.336   9.764  23.142  0.00  0.00    +0.000 NA
BRANCH  21  25
ATOM     23  C   UNL     1       0.984  12.711  19.691  0.00  0.00    +0.000 A 
ATOM     24  C   UNL     1       0.855  12.155  20.976  0.00  0.00    +0.000 A 
ATOM     25  C   UNL     1      -0.273  11.403  21.326  0.00  0.00    +0.000 A 
ATOM     26  C   UNL     1      -1.257  11.161  20.367  0.00  0.00    +0.000 A 
ATOM     27  C   UNL     1      -1.157  11.733  19.099  0.00  0.00    +0.000 A 
ATOM     28  C   UNL     1      -0.049  12.515  18.764  0.00  0.00    +0.000 A 
BRANCH  23  30
ATOM     29  C   UNL     1       2.893  13.782  20.667  0.00  0.00    +0.000 C 
ATOM     30  O   UNL     1       2.158  13.396  19.511  0.00  0.00    +0.000 OA
ENDBRANCH  23  30
BRANCH  28  31
ATOM     31  O   UNL     1      -0.007  13.064  17.514  0.00  0.00    +0.000 OA
ATOM     32  H   UNL     1      -0.071  12.362  16.847  0.00  0.00    +0.000 HD
ENDBRANCH  28  31
ENDBRANCH  21  25
ENDBRANCH   1  22
TORSDOF 6
ENDMDL
MODEL 6
REMARK VINA RESULT:      -7.7      1.278      1.986
REMARK  Name = 
REMARK  7 active torsions:
REMARK  status: ('A' for Active; 'I' for Inactive)
REMARK    1  A    between atoms: C_1  and  O_2
REMARK    2  A    between atoms: O_2  and  C_3
REMARK    3  A    between atoms: C_5  and  C_6
REMARK    4  A    between atoms: N_7  and  N_8
REMARK    5  A    between atoms: C_9  and  C_11
REMARK    6  A    between atoms: N_13  and  C_14
REMARK    7  A    between atoms: C_29  and  O_30
REMARK                            x       y       z     vdW  Elec       q    Type
REMARK                         _______ _______ _______ _____ _____    ______ ____
ROOT
ATOM      1  N   UNL     1       3.176   5.552  20.034  0.00  0.00    +0.000 N 
ATOM      2  C   UNL     1       1.875   5.922  20.330  0.00  0.00    +0.000 C 
ATOM      3  O   UNL     1       0.947   5.155  20.568  0.00  0.00    +0.000 OA
ATOM      4  H   UNL     1       3.894   6.271  19.913  0.00  0.00    +0.000 HD
ENDROOT
BRANCH   2   5
ATOM      5  C   UNL     1       1.650   7.397  20.257  0.00  0.00    +0.000 A 
ATOM      6  C   UNL     1       1.185   8.059  21.328  0.00  0.00    +0.000 A 
ATOM      7  N   UNL     1       0.881   9.412  21.382  0.00  0.00    +0.000 N 
ATOM      8  C   UNL     1       1.291  10.255  20.311  0.00  0.00    +0.000 A 
ATOM      9  C   UNL     1       1.244  11.655  20.376  0.00  0.00    +0.000 A 
ATOM     10  C   UNL     1       1.682  12.433  19.296  0.00  0.00    +0.000 A 
ATOM     11 CL   UNL     1       1.637  14.149  19.423  0.00  0.00    +0.000 Cl
ATOM     12  C   UNL     1       2.159  11.823  18.138  0.00  0.00    +0.000 A 
ATOM     13  F   UNL     1       2.585  12.557  17.101  0.00  0.00    +0.000 F 
ATOM     14  C   UNL     1       2.206  10.441  18.040  0.00  0.00    +0.000 A 
ATOM     15  C   UNL     1       1.780   9.668  19.126  0.00  0.00    +0.000 A 
ATOM     16  C   UNL     1       1.848   8.193  19.023  0.00  0.00    +0.000 A 
ATOM     17  O   UNL     1       2.062   7.655  17.937  0.00  0.00    +0.000 OA
BRANCH   7  18
ATOM     18  C   UNL     1       0.357   9.962  22.651  0.00  0.00    +0.000 C 
ATOM     19  C   UNL     1      -0.988  10.644  22.740  0.00  0.00    +0.000 C 
ATOM     20  C   UNL     1      -0.789   9.310  23.387  0.00  0.00    +0.000 C 
ENDBRANCH   7  18
ENDBRANCH   2   5
BRANCH   1  22
ATOM     21  C   UNL     1       4.750   3.965  19.542  0.00  0.00    +0.000 C 
ATOM     22  N   UNL     1       3.571   4.249  20.019  0.00  0.00    +0.000 NA
BRANCH  21  25
ATOM     23  C   UNL     1       6.224   5.870  16.619  0.00  0.00    +0.000 A 
ATOM     24  C   UNL     1       5.411   5.023  17.393  0.00  0.00    +0.000 A 
ATOM     25  C   UNL     1       5.676   4.813  18.751  0.00  0.00    +0.000 A 
ATOM     26  C   UNL     1       6.733   5.496  19.355  0.00  0.00    +0.000 A 
ATOM     27  C   UNL     1       7.566   6.315  18.593  0.00  0.00    +0.000 A 
ATOM     28  C   UNL     1       7.322   6.492  17.228  0.00  0.00    +0.000 A 
BRANCH  23  30
ATOM     29  C   UNL     1       6.124   4.922  14.420  0.00  0.00    +0.000 C 
ATOM     30  O   UNL     1       5.809   5.981  15.317  0.00  0.00    +0.000 OA
ENDBRANCH  23  30
BRANCH  28  31
ATOM     31  O   UNL     1       8.178   7.292  16.525  0.00  0.00    +0.000 OA
ATOM     32  H   UNL     1       8.841   7.667  17.126  0.00  0.00    +0.000 HD
ENDBRANCH  28  31
ENDBRANCH  21  25
ENDBRANCH   1  22
TORSDOF 6
ENDMDL
MODEL 7
REMARK VINA RESULT:      -7.6      3.723      7.480
REMARK  Name = 
REMARK  7 active torsions:
REMARK  status: ('A' for Active; 'I' for Inactive)
REMARK    1  A    between atoms: C_1  and  O_2
REMARK    2  A    between atoms: O_2  and  C_3
REMARK    3  A    between atoms: C_5  and  C_6
REMARK    4  A    between atoms: N_7  and  N_8
REMARK    5  A    between atoms: C_9  and  C_11
REMARK    6  A    between atoms: N_13  and  C_14
REMARK    7  A    between atoms: C_29  and  O_30
REMARK                            x       y       z     vdW  Elec       q    Type
REMARK                         _______ _______ _______ _____ _____    ______ ____
ROOT
ATOM      1  N   UNL     1       3.236   4.715  19.715  0.00  0.00    +0.000 N 
ATOM      2  C   UNL     1       4.311   3.909  19.381  0.00  0.00    +0.000 C 
ATOM      3  O   UNL     1       4.755   2.987  20.059  0.00  0.00    +0.000 OA
ATOM      4  H   UNL     1       2.902   5.418  19.051  0.00  0.00    +0.000 HD
ENDROOT
BRANCH   2   5
ATOM      5  C   UNL     1       4.977   4.313  18.107  0.00  0.00    +0.000 A 
ATOM      6  C   UNL     1       6.019   5.160  18.134  0.00  0.00    +0.000 A 
ATOM      7  N   UNL     1       6.694   5.658  17.027  0.00  0.00    +0.000 N 
ATOM      8  C   UNL     1       6.446   5.080  15.750  0.00  0.00    +0.000 A 
ATOM      9  C   UNL     1       7.237   5.345  14.623  0.00  0.00    +0.000 A 
ATOM     10  C   UNL     1       6.958   4.729  13.396  0.00  0.00    +0.000 A 
ATOM     11 CL   UNL     1       7.968   5.055  12.041  0.00  0.00    +0.000 Cl
ATOM     12  C   UNL     1       5.881   3.853  13.279  0.00  0.00    +0.000 A 
ATOM     13  F   UNL     1       5.607   3.253  12.112  0.00  0.00    +0.000 F 
ATOM     14  C   UNL     1       5.074   3.580  14.373  0.00  0.00    +0.000 A 
ATOM     15  C   UNL     1       5.365   4.188  15.600  0.00  0.00    +0.000 A 
ATOM     16  C   UNL     1       4.511   3.881  16.769  0.00  0.00    +0.000 A 
ATOM     17  O   UNL     1       3.445   3.286  16.621  0.00  0.00    +0.000 OA
BRANCH   7  18
ATOM     18  C   UNL     1       7.809   6.602  17.253  0.00  0.00    +0.000 C 
ATOM     19  C   UNL     1       7.580   8.069  17.535  0.00  0.00    +0.000 C 
ATOM     20  C   UNL     1       8.098   7.178  18.619  0.00  0.00    +0.000 C 
ENDBRANCH   7  18
ENDBRANCH   2   5
BRANCH   1  22
ATOM     21  C   UNL     1       1.669   5.447  21.215  0.00  0.00    +0.000 C 
ATOM     22  N   UNL     1       2.518   4.525  20.856  0.00  0.00    +0.000 NA
BRANCH  21  25
ATOM     23  C   UNL     1       1.937   8.470  18.947  0.00  0.00    +0.000 A 
ATOM     24  C   UNL     1       2.105   7.183  19.491  0.00  0.00    +0.000 A 
ATOM     25  C   UNL     1       1.521   6.836  20.715  0.00  0.00    +0.000 A 
ATOM     26  C   UNL     1       0.719   7.767  21.377  0.00  0.00    +0.000 A 
ATOM     27  C   UNL     1       0.570   9.055  20.866  0.00  0.00    +0.000 A 
ATOM     28  C   UNL     1       1.185   9.411  19.663  0.00  0.00    +0.000 A 
BRANCH  23  30
ATOM     29  C   UNL     1       3.557   7.692  17.362  0.00  0.00    +0.000 C 
ATOM     30  O   UNL     1       2.556   8.631  17.735  0.00  0.00    +0.000 OA
ENDBRANCH  23  30
BRANCH  28  31
ATOM     31  O   UNL     1       1.020  10.691  19.214  0.00  0.00    +0.000 OA
ATOM     32  H   UNL     1       1.869  11.035  18.892  0.00  0.00    +0.000 HD
ENDBRANCH  28  31
ENDBRANCH  21  25
ENDBRANCH   1  22
TORSDOF 6
ENDMDL
MODEL 8
REMARK VINA RESULT:      -7.6      3.836      7.729
REMARK  Name = 
REMARK  7 active torsions:
REMARK  status: ('A' for Active; 'I' for Inactive)
REMARK    1  A    between atoms: C_1  and  O_2
REMARK    2  A    between atoms: O_2  and  C_3
REMARK    3  A    between atoms: C_5  and  C_6
REMARK    4  A    between atoms: N_7  and  N_8
REMARK    5  A    between atoms: C_9  and  C_11
REMARK    6  A    between atoms: N_13  and  C_14
REMARK    7  A    between atoms: C_29  and  O_30
REMARK                            x       y       z     vdW  Elec       q    Type
REMARK                         _______ _______ _______ _____ _____    ______ ____
ROOT
ATOM      1  N   UNL     1       3.167   4.883  19.651  0.00  0.00    +0.000 N 
ATOM      2  C   UNL     1       4.270   4.095  19.372  0.00  0.00    +0.000 C 
ATOM      3  O   UNL     1       4.729   3.218  20.099  0.00  0.00    +0.000 OA
ATOM      4  H   UNL     1       2.824   5.545  18.949  0.00  0.00    +0.000 HD
ENDROOT
BRANCH   2   5
ATOM      5  C   UNL     1       4.947   4.459  18.092  0.00  0.00    +0.000 A 
ATOM      6  C   UNL     1       5.989   5.307  18.101  0.00  0.00    +0.000 A 
ATOM      7  N   UNL     1       6.673   5.770  16.985  0.00  0.00    +0.000 N 
ATOM      8  C   UNL     1       6.436   5.153  15.724  0.00  0.00    +0.000 A 
ATOM      9  C   UNL     1       7.236   5.383  14.596  0.00  0.00    +0.000 A 
ATOM     10  C   UNL     1       6.966   4.730  13.387  0.00  0.00    +0.000 A 
ATOM     11 CL   UNL     1       7.988   5.014  12.030  0.00  0.00    +0.000 Cl
ATOM     12  C   UNL     1       5.890   3.851  13.287  0.00  0.00    +0.000 A 
ATOM     13  F   UNL     1       5.626   3.216  12.137  0.00  0.00    +0.000 F 
ATOM     14  C   UNL     1       5.074   3.612  14.382  0.00  0.00    +0.000 A 
ATOM     15  C   UNL     1       5.355   4.257  15.593  0.00  0.00    +0.000 A 
ATOM     16  C   UNL     1       4.492   3.987  16.763  0.00  0.00    +0.000 A 
ATOM     17  O   UNL     1       3.426   3.387  16.625  0.00  0.00    +0.000 OA
BRANCH   7  18
ATOM     18  C   UNL     1       7.787   6.720  17.192  0.00  0.00    +0.000 C 
ATOM     19  C   UNL     1       7.555   8.167  17.560  0.00  0.00    +0.000 C 
ATOM     20  C   UNL     1       8.150   7.233  18.565  0.00  0.00    +0.000 C 
ENDBRANCH   7  18
ENDBRANCH   2   5
BRANCH   1  22
ATOM     21  C   UNL     1       1.593   5.663  21.118  0.00  0.00    +0.000 C 
ATOM     22  N   UNL     1       2.434   4.724  20.787  0.00  0.00    +0.000 NA
BRANCH  21  25
ATOM     23  C   UNL     1       0.951   9.395  21.006  0.00  0.00    +0.000 A 
ATOM     24  C   UNL     1       1.025   8.060  21.445  0.00  0.00    +0.000 A 
ATOM     25  C   UNL     1       1.466   7.044  20.589  0.00  0.00    +0.000 A 
ATOM     26  C   UNL     1       1.886   7.371  19.299  0.00  0.00    +0.000 A 
ATOM     27  C   UNL     1       1.788   8.684  18.841  0.00  0.00    +0.000 A 
ATOM     28  C   UNL     1       1.312   9.691  19.684  0.00  0.00    +0.000 A 
BRANCH  23  30
ATOM     29  C   UNL     1      -0.173   9.726  23.096  0.00  0.00    +0.000 C 
ATOM     30  O   UNL     1       0.522  10.262  21.977  0.00  0.00    +0.000 OA
ENDBRANCH  23  30
BRANCH  28  31
ATOM     31  O   UNL     1       1.221  10.958  19.181  0.00  0.00    +0.000 OA
ATOM     32  H   UNL     1       1.887  11.524  19.603  0.00  0.00    +0.000 HD
ENDBRANCH  28  31
ENDBRANCH  21  25
ENDBRANCH   1  22
TORSDOF 6
ENDMDL
MODEL 9
REMARK VINA RESULT:      -7.6      3.766      5.574
REMARK  Name = 
REMARK  7 active torsions:
REMARK  status: ('A' for Active; 'I' for Inactive)
REMARK    1  A    between atoms: C_1  and  O_2
REMARK    2  A    between atoms: O_2  and  C_3
REMARK    3  A    between atoms: C_5  and  C_6
REMARK    4  A    between atoms: N_7  and  N_8
REMARK    5  A    between atoms: C_9  and  C_11
REMARK    6  A    between atoms: N_13  and  C_14
REMARK    7  A    between atoms: C_29  and  O_30
REMARK                            x       y       z     vdW  Elec       q    Type
REMARK                         _______ _______ _______ _____ _____    ______ ____
ROOT
ATOM      1  N   UNL     1       2.229   9.068  18.070  0.00  0.00    +0.000 N 
ATOM      2  C   UNL     1       2.038  10.436  17.985  0.00  0.00    +0.000 C 
ATOM      3  O   UNL     1       2.784  11.232  17.422  0.00  0.00    +0.000 OA
ATOM      4  H   UNL     1       1.514   8.480  18.507  0.00  0.00    +0.000 HD
ENDROOT
BRANCH   2   5
ATOM      5  C   UNL     1       0.837  10.911  18.734  0.00  0.00    +0.000 A 
ATOM      6  C   UNL     1      -0.392  10.549  18.332  0.00  0.00    +0.000 A 
ATOM      7  N   UNL     1      -1.590  10.959  18.901  0.00  0.00    +0.000 N 
ATOM      8  C   UNL     1      -1.564  11.639  20.151  0.00  0.00    +0.000 A 
ATOM      9  C   UNL     1      -2.715  11.882  20.915  0.00  0.00    +0.000 A 
ATOM     10  C   UNL     1      -2.624  12.537  22.150  0.00  0.00    +0.000 A 
ATOM     11 CL   UNL     1      -4.054  12.794  23.074  0.00  0.00    +0.000 Cl
ATOM     12  C   UNL     1      -1.388  12.966  22.629  0.00  0.00    +0.000 A 
ATOM     13  F   UNL     1      -1.289  13.588  23.812  0.00  0.00    +0.000 F 
ATOM     14  C   UNL     1      -0.235  12.749  21.891  0.00  0.00    +0.000 A 
ATOM     15  C   UNL     1      -0.328  12.083  20.664  0.00  0.00    +0.000 A 
ATOM     16  C   UNL     1       0.908  11.839  19.887  0.00  0.00    +0.000 A 
ATOM     17  O   UNL     1       1.958  12.399  20.199  0.00  0.00    +0.000 OA
BRANCH   7  18
ATOM     18  C   UNL     1      -2.851  10.469  18.305  0.00  0.00    +0.000 C 
ATOM     19  C   UNL     1      -3.590  11.237  17.234  0.00  0.00    +0.000 C 
ATOM     20  C   UNL     1      -2.913   9.949  16.888  0.00  0.00    +0.000 C 
ENDBRANCH   7  18
ENDBRANCH   2   5
BRANCH   1  22
ATOM     21  C   UNL     1       3.374   7.150  17.566  0.00  0.00    +0.000 C 
ATOM     22  N   UNL     1       3.287   8.448  17.478  0.00  0.00    +0.000 NA
BRANCH  21  25
ATOM     23  C   UNL     1       1.624   4.011  18.762  0.00  0.00    +0.000 A 
ATOM     24  C   UNL     1       2.274   4.955  17.946  0.00  0.00    +0.000 A 
ATOM     25  C   UNL     1       2.629   6.214  18.443  0.00  0.00    +0.000 A 
ATOM     26  C   UNL     1       2.378   6.515  19.783  0.00  0.00    +0.000 A 
ATOM     27  C   UNL     1       1.707   5.601  20.594  0.00  0.00    +0.000 A 
ATOM     28  C   UNL     1       1.320   4.359  20.084  0.00  0.00    +0.000 A 
BRANCH  23  30
ATOM     29  C   UNL     1       2.466   2.136  17.528  0.00  0.00    +0.000 C 
ATOM     30  O   UNL     1       1.372   2.824  18.123  0.00  0.00    +0.000 OA
ENDBRANCH  23  30
BRANCH  28  31
ATOM     31  O   UNL     1       0.651   3.506  20.917  0.00  0.00    +0.000 OA
ATOM     32  H   UNL     1      -0.076   3.980  21.351  0.00  0.00    +0.000 HD
ENDBRANCH  28  31
ENDBRANCH  21  25
ENDBRANCH   1  22
TORSDOF 6
ENDMDL
