MODEL 1
REMARK VINA RESULT:      -9.1      0.000      0.000
REMARK  Name = 
REMARK  7 active torsions:
REMARK  status: ('A' for Active; 'I' for Inactive)
REMARK    1  A    between atoms: C_1  and  C_2
REMARK    2  A    between atoms: C_3  and  C_4
REMARK    3  A    between atoms: N_12  and  C_13
REMARK    4  A    between atoms: C_13  and  C_14
REMARK    5  A    between atoms: C_13  and  C_15
REMARK    6  A    between atoms: C_13  and  C_16
REMARK    7  A    between atoms: C_20  and  C_21
REMARK                            x       y       z     vdW  Elec       q    Type
REMARK                         _______ _______ _______ _____ _____    ______ ____
ROOT
ATOM      1  C   UNL     1       2.967   4.731  18.726  0.00  0.00    +0.000 C 
ATOM      2  C   UNL     1       3.591   4.265  20.065  0.00  0.00    +0.000 C 
ATOM      3  C   UNL     1       1.832   3.743  18.371  0.00  0.00    +0.000 C 
ENDROOT
BRANCH   1   4
ATOM      4  C   UNL     1       4.079   4.693  17.654  0.00  0.00    +0.000 A 
ATOM      5  N   UNL     1       3.883   4.217  16.439  0.00  0.00    +0.000 NA
ATOM      6  C   UNL     1       5.021   4.337  15.669  0.00  0.00    +0.000 A 
ATOM      7  C   UNL     1       5.128   3.961  14.318  0.00  0.00    +0.000 A 
ATOM      8  C   UNL     1       6.343   4.112  13.633  0.00  0.00    +0.000 A 
ATOM      9  C   UNL     1       7.443   4.657  14.309  0.00  0.00    +0.000 A 
ATOM     10  C   UNL     1       7.355   5.045  15.656  0.00  0.00    +0.000 A 
ATOM     11  C   UNL     1       6.131   4.872  16.320  0.00  0.00    +0.000 A 
ATOM     12  S   UNL     1       5.697   5.221  17.949  0.00  0.00    +0.000 S 
BRANCH   8  13
ATOM     13  C   UNL     1       6.462   3.678  12.193  0.00  0.00    +0.000 C 
ATOM     14  F   UNL     1       6.996   2.435  12.039  0.00  0.00    +0.000 F 
ATOM     15  F   UNL     1       5.260   3.648  11.556  0.00  0.00    +0.000 F 
ATOM     16  F   UNL     1       7.252   4.515  11.465  0.00  0.00    +0.000 F 
ENDBRANCH   8  13
ENDBRANCH   1   4
BRANCH   1  22
ATOM     17  C   UNL     1       2.146   9.691  17.969  0.00  0.00    +0.000 C 
ATOM     18  C   UNL     1       2.145   8.366  18.649  0.00  0.00    +0.000 C 
ATOM     19  C   UNL     1       1.631   8.052  19.848  0.00  0.00    +0.000 C 
ATOM     20  C   UNL     1       1.900   6.610  20.059  0.00  0.00    +0.000 C 
ATOM     21  O   UNL     1       1.685   6.008  21.094  0.00  0.00    +0.000 OA
ATOM     22  N   UNL     1       2.440   6.113  18.881  0.00  0.00    +0.000 N 
ATOM     23  C   UNL     1       2.747   7.184  17.962  0.00  0.00    +0.000 C 
BRANCH  19  24
ATOM     24  C   UNL     1       0.894   8.921  20.758  0.00  0.00    +0.000 A 
ATOM     25  C   UNL     1       1.105   8.810  22.139  0.00  0.00    +0.000 A 
ATOM     26  C   UNL     1       0.365   9.585  23.033  0.00  0.00    +0.000 A 
ATOM     27  C   UNL     1      -0.592  10.478  22.553  0.00  0.00    +0.000 A 
ATOM     28  C   UNL     1      -0.803  10.600  21.179  0.00  0.00    +0.000 A 
ATOM     29  C   UNL     1      -0.064   9.823  20.283  0.00  0.00    +0.000 A 
ENDBRANCH  19  24
ENDBRANCH   1  22
TORSDOF 4
ENDMDL
MODEL 2
REMARK VINA RESULT:      -9.0      0.073      1.138
REMARK  Name = 
REMARK  7 active torsions:
REMARK  status: ('A' for Active; 'I' for Inactive)
REMARK    1  A    between atoms: C_1  and  C_2
REMARK    2  A    between atoms: C_3  and  C_4
REMARK    3  A    between atoms: N_12  and  C_13
REMARK    4  A    between atoms: C_13  and  C_14
REMARK    5  A    between atoms: C_13  and  C_15
REMARK    6  A    between atoms: C_13  and  C_16
REMARK    7  A    between atoms: C_20  and  C_21
REMARK                            x       y       z     vdW  Elec       q    Type
REMARK                         _______ _______ _______ _____ _____    ______ ____
ROOT
ATOM      1  C   UNL     1       3.019   4.722  18.741  0.00  0.00    +0.000 C 
ATOM      2  C   UNL     1       3.665   4.282  20.078  0.00  0.00    +0.000 C 
ATOM      3  C   UNL     1       1.898   3.711  18.409  0.00  0.00    +0.000 C 
ENDROOT
BRANCH   1   4
ATOM      4  C   UNL     1       4.120   4.693  17.658  0.00  0.00    +0.000 A 
ATOM      5  N   UNL     1       3.917   4.208  16.447  0.00  0.00    +0.000 NA
ATOM      6  C   UNL     1       5.045   4.339  15.665  0.00  0.00    +0.000 A 
ATOM      7  C   UNL     1       5.142   3.957  14.315  0.00  0.00    +0.000 A 
ATOM      8  C   UNL     1       6.348   4.120  13.616  0.00  0.00    +0.000 A 
ATOM      9  C   UNL     1       7.448   4.683  14.277  0.00  0.00    +0.000 A 
ATOM     10  C   UNL     1       7.369   5.077  15.623  0.00  0.00    +0.000 A 
ATOM     11  C   UNL     1       6.154   4.891  16.301  0.00  0.00    +0.000 A 
ATOM     12  S   UNL     1       5.734   5.244  17.932  0.00  0.00    +0.000 S 
BRANCH   8  13
ATOM     13  C   UNL     1       6.457   3.680  12.176  0.00  0.00    +0.000 C 
ATOM     14  F   UNL     1       5.261   3.625  11.530  0.00  0.00    +0.000 F 
ATOM     15  F   UNL     1       7.244   4.508  11.436  0.00  0.00    +0.000 F 
ATOM     16  F   UNL     1       7.003   2.438  12.056  0.00  0.00    +0.000 F 
ENDBRANCH   8  13
ENDBRANCH   1   4
BRANCH   1  22
ATOM     17  C   UNL     1       2.140   9.671  17.975  0.00  0.00    +0.000 C 
ATOM     18  C   UNL     1       2.145   8.345  18.652  0.00  0.00    +0.000 C 
ATOM     19  C   UNL     1       1.612   8.022  19.841  0.00  0.00    +0.000 C 
ATOM     20  C   UNL     1       1.898   6.584  20.055  0.00  0.00    +0.000 C 
ATOM     21  O   UNL     1       1.672   5.978  21.085  0.00  0.00    +0.000 OA
ATOM     22  N   UNL     1       2.468   6.096  18.887  0.00  0.00    +0.000 N 
ATOM     23  C   UNL     1       2.777   7.173  17.976  0.00  0.00    +0.000 C 
BRANCH  19  24
ATOM     24  C   UNL     1       0.845   8.879  20.737  0.00  0.00    +0.000 A 
ATOM     25  C   UNL     1      -0.060   9.805  20.199  0.00  0.00    +0.000 A 
ATOM     26  C   UNL     1      -0.757  10.680  21.033  0.00  0.00    +0.000 A 
ATOM     27  C   UNL     1      -0.556  10.635  22.412  0.00  0.00    +0.000 A 
ATOM     28  C   UNL     1       0.337   9.712  22.956  0.00  0.00    +0.000 A 
ATOM     29  C   UNL     1       1.038   8.837  22.122  0.00  0.00    +0.000 A 
ENDBRANCH  19  24
ENDBRANCH   1  22
TORSDOF 4
ENDMDL
MODEL 3
REMARK VINA RESULT:      -8.6      4.431      6.403
REMARK  Name = 
REMARK  7 active torsions:
REMARK  status: ('A' for Active; 'I' for Inactive)
REMARK    1  A    between atoms: C_1  and  C_2
REMARK    2  A    between atoms: C_3  and  C_4
REMARK    3  A    between atoms: N_12  and  C_13
REMARK    4  A    between atoms: C_13  and  C_14
REMARK    5  A    between atoms: C_13  and  C_15
REMARK    6  A    between atoms: C_13  and  C_16
REMARK    7  A    between atoms: C_20  and  C_21
REMARK                            x       y       z     vdW  Elec       q    Type
REMARK                         _______ _______ _______ _____ _____    ______ ____
ROOT
ATOM      1  C   UNL     1       0.111  10.759  19.440  0.00  0.00    +0.000 C 
ATOM      2  C   UNL     1       0.860  12.004  18.904  0.00  0.00    +0.000 C 
ATOM      3  C   UNL     1      -0.152  10.984  20.946  0.00  0.00    +0.000 C 
ENDROOT
BRANCH   1   4
ATOM      4  C   UNL     1       1.027   9.534  19.223  0.00  0.00    +0.000 A 
ATOM      5  N   UNL     1       1.803   9.402  18.163  0.00  0.00    +0.000 NA
ATOM      6  C   UNL     1       2.547   8.243  18.234  0.00  0.00    +0.000 A 
ATOM      7  C   UNL     1       3.498   7.831  17.283  0.00  0.00    +0.000 A 
ATOM      8  C   UNL     1       4.187   6.620  17.446  0.00  0.00    +0.000 A 
ATOM      9  C   UNL     1       3.926   5.834  18.577  0.00  0.00    +0.000 A 
ATOM     10  C   UNL     1       2.985   6.231  19.541  0.00  0.00    +0.000 A 
ATOM     11  C   UNL     1       2.302   7.441  19.347  0.00  0.00    +0.000 A 
ATOM     12  S   UNL     1       1.094   8.195  20.313  0.00  0.00    +0.000 S 
BRANCH   8  13
ATOM     13  C   UNL     1       5.184   6.168  16.407  0.00  0.00    +0.000 C 
ATOM     14  F   UNL     1       6.467   6.526  16.689  0.00  0.00    +0.000 F 
ATOM     15  F   UNL     1       5.199   4.816  16.253  0.00  0.00    +0.000 F 
ATOM     16  F   UNL     1       4.916   6.683  15.175  0.00  0.00    +0.000 F 
ENDBRANCH   8  13
ENDBRANCH   1   4
BRANCH   1  22
ATOM     17  C   UNL     1      -3.223   9.573  15.790  0.00  0.00    +0.000 C 
ATOM     18  C   UNL     1      -2.674  10.189  17.029  0.00  0.00    +0.000 C 
ATOM     19  C   UNL     1      -3.311  10.970  17.916  0.00  0.00    +0.000 C 
ATOM     20  C   UNL     1      -2.317  11.322  18.958  0.00  0.00    +0.000 C 
ATOM     21  O   UNL     1      -2.508  12.119  19.857  0.00  0.00    +0.000 OA
ATOM     22  N   UNL     1      -1.166  10.592  18.696  0.00  0.00    +0.000 N 
ATOM     23  C   UNL     1      -1.255   9.930  17.415  0.00  0.00    +0.000 C 
BRANCH  19  24
ATOM     24  C   UNL     1      -4.715  11.359  17.915  0.00  0.00    +0.000 A 
ATOM     25  C   UNL     1      -5.141  12.402  17.079  0.00  0.00    +0.000 A 
ATOM     26  C   UNL     1      -6.467  12.836  17.108  0.00  0.00    +0.000 A 
ATOM     27  C   UNL     1      -7.378  12.231  17.972  0.00  0.00    +0.000 A 
ATOM     28  C   UNL     1      -6.965  11.188  18.802  0.00  0.00    +0.000 A 
ATOM     29  C   UNL     1      -5.637  10.754  18.776  0.00  0.00    +0.000 A 
ENDBRANCH  19  24
ENDBRANCH   1  22
TORSDOF 4
ENDMDL
MODEL 4
REMARK VINA RESULT:      -8.6      4.514      6.588
REMARK  Name = 
REMARK  7 active torsions:
REMARK  status: ('A' for Active; 'I' for Inactive)
REMARK    1  A    between atoms: C_1  and  C_2
REMARK    2  A    between atoms: C_3  and  C_4
REMARK    3  A    between atoms: N_12  and  C_13
REMARK    4  A    between atoms: C_13  and  C_14
REMARK    5  A    between atoms: C_13  and  C_15
REMARK    6  A    between atoms: C_13  and  C_16
REMARK    7  A    between atoms: C_20  and  C_21
REMARK                            x       y       z     vdW  Elec       q    Type
REMARK                         _______ _______ _______ _____ _____    ______ ____
ROOT
ATOM      1  C   UNL     1       0.051  11.053  19.546  0.00  0.00    +0.000 C 
ATOM      2  C   UNL     1       0.831  12.215  18.882  0.00  0.00    +0.000 C 
ATOM      3  C   UNL     1      -0.131  11.405  21.039  0.00  0.00    +0.000 C 
ENDROOT
BRANCH   1   4
ATOM      4  C   UNL     1       0.898   9.771  19.386  0.00  0.00    +0.000 A 
ATOM      5  N   UNL     1       1.640   9.534  18.321  0.00  0.00    +0.000 NA
ATOM      6  C   UNL     1       2.325   8.344  18.448  0.00  0.00    +0.000 A 
ATOM      7  C   UNL     1       3.230   7.826  17.505  0.00  0.00    +0.000 A 
ATOM      8  C   UNL     1       3.861   6.593  17.728  0.00  0.00    +0.000 A 
ATOM      9  C   UNL     1       3.589   5.893  18.912  0.00  0.00    +0.000 A 
ATOM     10  C   UNL     1       2.694   6.397  19.870  0.00  0.00    +0.000 A 
ATOM     11  C   UNL     1       2.068   7.626  19.615  0.00  0.00    +0.000 A 
ATOM     12  S   UNL     1       0.924   8.501  20.557  0.00  0.00    +0.000 S 
BRANCH   8  13
ATOM     13  C   UNL     1       4.808   6.026  16.699  0.00  0.00    +0.000 C 
ATOM     14  F   UNL     1       4.486   4.766  16.297  0.00  0.00    +0.000 F 
ATOM     15  F   UNL     1       4.857   6.777  15.565  0.00  0.00    +0.000 F 
ATOM     16  F   UNL     1       6.088   5.955  17.158  0.00  0.00    +0.000 F 
ENDBRANCH   8  13
ENDBRANCH   1   4
BRANCH   1  22
ATOM     17  C   UNL     1      -3.504   9.744  16.154  0.00  0.00    +0.000 C 
ATOM     18  C   UNL     1      -2.868  10.433  17.311  0.00  0.00    +0.000 C 
ATOM     19  C   UNL     1      -3.422  11.321  18.151  0.00  0.00    +0.000 C 
ATOM     20  C   UNL     1      -2.365  11.706  19.116  0.00  0.00    +0.000 C 
ATOM     21  O   UNL     1      -2.473  12.587  19.948  0.00  0.00    +0.000 OA
ATOM     22  N   UNL     1      -1.266  10.894  18.872  0.00  0.00    +0.000 N 
ATOM     23  C   UNL     1      -1.447  10.131  17.660  0.00  0.00    +0.000 C 
BRANCH  19  24
ATOM     24  C   UNL     1      -4.803  11.786  18.173  0.00  0.00    +0.000 A 
ATOM     25  C   UNL     1      -5.602  11.520  19.294  0.00  0.00    +0.000 A 
ATOM     26  C   UNL     1      -6.945  11.898  19.312  0.00  0.00    +0.000 A 
ATOM     27  C   UNL     1      -7.501  12.546  18.209  0.00  0.00    +0.000 A 
ATOM     28  C   UNL     1      -6.711  12.820  17.092  0.00  0.00    +0.000 A 
ATOM     29  C   UNL     1      -5.367  12.441  17.072  0.00  0.00    +0.000 A 
ENDBRANCH  19  24
ENDBRANCH   1  22
TORSDOF 4
ENDMDL
MODEL 5
REMARK VINA RESULT:      -8.5      4.765      6.701
REMARK  Name = 
REMARK  7 active torsions:
REMARK  status: ('A' for Active; 'I' for Inactive)
REMARK    1  A    between atoms: C_1  and  C_2
REMARK    2  A    between atoms: C_3  and  C_4
REMARK    3  A    between atoms: N_12  and  C_13
REMARK    4  A    between atoms: C_13  and  C_14
REMARK    5  A    between atoms: C_13  and  C_15
REMARK    6  A    between atoms: C_13  and  C_16
REMARK    7  A    between atoms: C_20  and  C_21
REMARK                            x       y       z     vdW  Elec       q    Type
REMARK                         _______ _______ _______ _____ _____    ______ ____
ROOT
ATOM      1  C   UNL     1       0.137  10.518  19.558  0.00  0.00    +0.000 C 
ATOM      2  C   UNL     1       0.799  11.897  19.316  0.00  0.00    +0.000 C 
ATOM      3  C   UNL     1      -0.167  10.405  21.069  0.00  0.00    +0.000 C 
ENDROOT
BRANCH   1   4
ATOM      4  C   UNL     1       1.146   9.432  19.122  0.00  0.00    +0.000 A 
ATOM      5  N   UNL     1       1.285   8.287  19.764  0.00  0.00    +0.000 NA
ATOM      6  C   UNL     1       2.219   7.482  19.146  0.00  0.00    +0.000 A 
ATOM      7  C   UNL     1       2.567   6.184  19.558  0.00  0.00    +0.000 A 
ATOM      8  C   UNL     1       3.547   5.457  18.865  0.00  0.00    +0.000 A 
ATOM      9  C   UNL     1       4.161   6.037  17.746  0.00  0.00    +0.000 A 
ATOM     10  C   UNL     1       3.822   7.330  17.314  0.00  0.00    +0.000 A 
ATOM     11  C   UNL     1       2.848   8.039  18.034  0.00  0.00    +0.000 A 
ATOM     12  S   UNL     1       2.225   9.624  17.786  0.00  0.00    +0.000 S 
BRANCH   8  13
ATOM     13  C   UNL     1       3.940   4.076  19.329  0.00  0.00    +0.000 C 
ATOM     14  F   UNL     1       5.270   3.945  19.586  0.00  0.00    +0.000 F 
ATOM     15  F   UNL     1       3.301   3.709  20.474  0.00  0.00    +0.000 F 
ATOM     16  F   UNL     1       3.642   3.117  18.409  0.00  0.00    +0.000 F 
ENDBRANCH   8  13
ENDBRANCH   1   4
BRANCH   1  22
ATOM     17  C   UNL     1      -3.064   9.639  15.707  0.00  0.00    +0.000 C 
ATOM     18  C   UNL     1      -2.558  10.158  17.008  0.00  0.00    +0.000 C 
ATOM     19  C   UNL     1      -3.221  10.879  17.925  0.00  0.00    +0.000 C 
ATOM     20  C   UNL     1      -2.266  11.143  19.027  0.00  0.00    +0.000 C 
ATOM     21  O   UNL     1      -2.484  11.874  19.974  0.00  0.00    +0.000 OA
ATOM     22  N   UNL     1      -1.111  10.420  18.756  0.00  0.00    +0.000 N 
ATOM     23  C   UNL     1      -1.157   9.855  17.428  0.00  0.00    +0.000 C 
BRANCH  19  24
ATOM     24  C   UNL     1      -4.621  11.284  17.899  0.00  0.00    +0.000 A 
ATOM     25  C   UNL     1      -5.020  12.334  17.061  0.00  0.00    +0.000 A 
ATOM     26  C   UNL     1      -6.341  12.783  17.066  0.00  0.00    +0.000 A 
ATOM     27  C   UNL     1      -7.275  12.184  17.910  0.00  0.00    +0.000 A 
ATOM     28  C   UNL     1      -6.889  11.133  18.743  0.00  0.00    +0.000 A 
ATOM     29  C   UNL     1      -5.566  10.685  18.740  0.00  0.00    +0.000 A 
ENDBRANCH  19  24
ENDBRANCH   1  22
TORSDOF 4
ENDMDL
MODEL 6
REMARK VINA RESULT:      -8.4      6.486     10.272
REMARK  Name = 
REMARK  7 active torsions:
REMARK  status: ('A' for Active; 'I' for Inactive)
REMARK    1  A    between atoms: C_1  and  C_2
REMARK    2  A    between atoms: C_3  and  C_4
REMARK    3  A    between atoms: N_12  and  C_13
REMARK    4  A    between atoms: C_13  and  C_14
REMARK    5  A    between atoms: C_13  and  C_15
REMARK    6  A    between atoms: C_13  and  C_16
REMARK    7  A    between atoms: C_20  and  C_21
REMARK                            x       y       z     vdW  Elec       q    Type
REMARK                         _______ _______ _______ _____ _____    ______ ____
ROOT
ATOM      1  C   UNL     1       0.818  10.667  19.386  0.00  0.00    +0.000 C 
ATOM      2  C   UNL     1       0.864  11.258  20.817  0.00  0.00    +0.000 C 
ATOM      3  C   UNL     1       1.783  11.494  18.507  0.00  0.00    +0.000 C 
ENDROOT
BRANCH   1   4
ATOM      4  C   UNL     1      -0.634  10.796  18.873  0.00  0.00    +0.000 A 
ATOM      5  N   UNL     1      -1.551  11.508  19.501  0.00  0.00    +0.000 NA
ATOM      6  C   UNL     1      -2.747  11.492  18.815  0.00  0.00    +0.000 A 
ATOM      7  C   UNL     1      -3.910  12.184  19.198  0.00  0.00    +0.000 A 
ATOM      8  C   UNL     1      -5.081  12.083  18.432  0.00  0.00    +0.000 A 
ATOM      9  C   UNL     1      -5.071  11.296  17.273  0.00  0.00    +0.000 A 
ATOM     10  C   UNL     1      -3.919  10.602  16.869  0.00  0.00    +0.000 A 
ATOM     11  C   UNL     1      -2.765  10.711  17.660  0.00  0.00    +0.000 A 
ATOM     12  S   UNL     1      -1.216   9.988  17.462  0.00  0.00    +0.000 S 
BRANCH   8  13
ATOM     13  C   UNL     1      -6.335  12.803  18.864  0.00  0.00    +0.000 C 
ATOM     14  F   UNL     1      -6.191  14.155  18.937  0.00  0.00    +0.000 F 
ATOM     15  F   UNL     1      -7.379  12.585  18.018  0.00  0.00    +0.000 F 
ATOM     16  F   UNL     1      -6.761  12.406  20.095  0.00  0.00    +0.000 F 
ENDBRANCH   8  13
ENDBRANCH   1   4
BRANCH   1  22
ATOM     17  C   UNL     1       1.977   6.031  21.123  0.00  0.00    +0.000 C 
ATOM     18  C   UNL     1       1.879   7.184  20.186  0.00  0.00    +0.000 C 
ATOM     19  C   UNL     1       2.296   7.251  18.912  0.00  0.00    +0.000 C 
ATOM     20  C   UNL     1       1.970   8.614  18.432  0.00  0.00    +0.000 C 
ATOM     21  O   UNL     1       2.315   9.074  17.360  0.00  0.00    +0.000 OA
ATOM     22  N   UNL     1       1.230   9.238  19.428  0.00  0.00    +0.000 N 
ATOM     23  C   UNL     1       1.222   8.447  20.636  0.00  0.00    +0.000 C 
BRANCH  19  24
ATOM     24  C   UNL     1       2.898   6.190  18.113  0.00  0.00    +0.000 A 
ATOM     25  C   UNL     1       2.186   5.002  17.896  0.00  0.00    +0.000 A 
ATOM     26  C   UNL     1       2.766   3.948  17.190  0.00  0.00    +0.000 A 
ATOM     27  C   UNL     1       4.063   4.073  16.694  0.00  0.00    +0.000 A 
ATOM     28  C   UNL     1       4.776   5.254  16.900  0.00  0.00    +0.000 A 
ATOM     29  C   UNL     1       4.197   6.310  17.609  0.00  0.00    +0.000 A 
ENDBRANCH  19  24
ENDBRANCH   1  22
TORSDOF 4
ENDMDL
MODEL 7
REMARK VINA RESULT:      -8.3      4.979      7.092
REMARK  Name = 
REMARK  7 active torsions:
REMARK  status: ('A' for Active; 'I' for Inactive)
REMARK    1  A    between atoms: C_1  and  C_2
REMARK    2  A    between atoms: C_3  and  C_4
REMARK    3  A    between atoms: N_12  and  C_13
REMARK    4  A    between atoms: C_13  and  C_14
REMARK    5  A    between atoms: C_13  and  C_15
REMARK    6  A    between atoms: C_13  and  C_16
REMARK    7  A    between atoms: C_20  and  C_21
REMARK                            x       y       z     vdW  Elec       q    Type
REMARK                         _______ _______ _______ _____ _____    ______ ____
ROOT
ATOM      1  C   UNL     1      -0.000  11.035  19.622  0.00  0.00    +0.000 C 
ATOM      2  C   UNL     1       0.680  12.352  19.173  0.00  0.00    +0.000 C 
ATOM      3  C   UNL     1      -0.189  11.106  21.154  0.00  0.00    +0.000 C 
ENDROOT
BRANCH   1   4
ATOM      4  C   UNL     1       0.940   9.870  19.241  0.00  0.00    +0.000 A 
ATOM      5  N   UNL     1       1.023   8.759  19.949  0.00  0.00    +0.000 NA
ATOM      6  C   UNL     1       1.901   7.867  19.371  0.00  0.00    +0.000 A 
ATOM      7  C   UNL     1       2.182   6.578  19.856  0.00  0.00    +0.000 A 
ATOM      8  C   UNL     1       3.110   5.757  19.197  0.00  0.00    +0.000 A 
ATOM      9  C   UNL     1       3.741   6.234  18.040  0.00  0.00    +0.000 A 
ATOM     10  C   UNL     1       3.469   7.516  17.535  0.00  0.00    +0.000 A 
ATOM     11  C   UNL     1       2.546   8.321  18.221  0.00  0.00    +0.000 A 
ATOM     12  S   UNL     1       2.009   9.921  17.885  0.00  0.00    +0.000 S 
BRANCH   8  13
ATOM     13  C   UNL     1       3.431   4.386  19.740  0.00  0.00    +0.000 C 
ATOM     14  F   UNL     1       2.890   3.370  19.013  0.00  0.00    +0.000 F 
ATOM     15  F   UNL     1       4.770   4.142  19.782  0.00  0.00    +0.000 F 
ATOM     16  F   UNL     1       2.979   4.215  21.013  0.00  0.00    +0.000 F 
ENDBRANCH   8  13
ENDBRANCH   1   4
BRANCH   1  22
ATOM     17  C   UNL     1      -3.521   9.806  16.166  0.00  0.00    +0.000 C 
ATOM     18  C   UNL     1      -2.896  10.471  17.343  0.00  0.00    +0.000 C 
ATOM     19  C   UNL     1      -3.456  11.345  18.193  0.00  0.00    +0.000 C 
ATOM     20  C   UNL     1      -2.408  11.707  19.177  0.00  0.00    +0.000 C 
ATOM     21  O   UNL     1      -2.522  12.573  20.025  0.00  0.00    +0.000 OA
ATOM     22  N   UNL     1      -1.310  10.895  18.931  0.00  0.00    +0.000 N 
ATOM     23  C   UNL     1      -1.481  10.155  17.702  0.00  0.00    +0.000 C 
BRANCH  19  24
ATOM     24  C   UNL     1      -4.835  11.816  18.208  0.00  0.00    +0.000 A 
ATOM     25  C   UNL     1      -5.631  11.583  19.339  0.00  0.00    +0.000 A 
ATOM     26  C   UNL     1      -6.972  11.967  19.352  0.00  0.00    +0.000 A 
ATOM     27  C   UNL     1      -7.529  12.587  18.235  0.00  0.00    +0.000 A 
ATOM     28  C   UNL     1      -6.743  12.829  17.108  0.00  0.00    +0.000 A 
ATOM     29  C   UNL     1      -5.400  12.444  17.093  0.00  0.00    +0.000 A 
ENDBRANCH  19  24
ENDBRANCH   1  22
TORSDOF 4
ENDMDL
MODEL 8
REMARK VINA RESULT:      -8.2      4.933      7.006
REMARK  Name = 
REMARK  7 active torsions:
REMARK  status: ('A' for Active; 'I' for Inactive)
REMARK    1  A    between atoms: C_1  and  C_2
REMARK    2  A    between atoms: C_3  and  C_4
REMARK    3  A    between atoms: N_12  and  C_13
REMARK    4  A    between atoms: C_13  and  C_14
REMARK    5  A    between atoms: C_13  and  C_15
REMARK    6  A    between atoms: C_13  and  C_16
REMARK    7  A    between atoms: C_20  and  C_21
REMARK                            x       y       z     vdW  Elec       q    Type
REMARK                         _______ _______ _______ _____ _____    ______ ____
ROOT
ATOM      1  C   UNL     1       0.721  10.472  19.455  0.00  0.00    +0.000 C 
ATOM      2  C   UNL     1       1.645  11.476  18.722  0.00  0.00    +0.000 C 
ATOM      3  C   UNL     1       0.629  10.915  20.932  0.00  0.00    +0.000 C 
ENDROOT
BRANCH   1   4
ATOM      4  C   UNL     1       1.369   9.074  19.343  0.00  0.00    +0.000 A 
ATOM      5  N   UNL     1       1.180   8.126  20.243  0.00  0.00    +0.000 NA
ATOM      6  C   UNL     1       1.834   6.966  19.886  0.00  0.00    +0.000 A 
ATOM      7  C   UNL     1       1.799   5.761  20.610  0.00  0.00    +0.000 A 
ATOM      8  C   UNL     1       2.519   4.643  20.164  0.00  0.00    +0.000 A 
ATOM      9  C   UNL     1       3.259   4.738  18.978  0.00  0.00    +0.000 A 
ATOM     10  C   UNL     1       3.301   5.930  18.235  0.00  0.00    +0.000 A 
ATOM     11  C   UNL     1       2.582   7.037  18.712  0.00  0.00    +0.000 A 
ATOM     12  S   UNL     1       2.438   8.624  18.063  0.00  0.00    +0.000 S 
BRANCH   8  13
ATOM     13  C   UNL     1       2.504   3.362  20.961  0.00  0.00    +0.000 C 
ATOM     14  F   UNL     1       1.495   2.515  20.617  0.00  0.00    +0.000 F 
ATOM     15  F   UNL     1       3.654   2.647  20.822  0.00  0.00    +0.000 F 
ATOM     16  F   UNL     1       2.361   3.586  22.297  0.00  0.00    +0.000 F 
ENDBRANCH   8  13
ENDBRANCH   1   4
BRANCH   1  22
ATOM     17  C   UNL     1      -3.043   9.631  16.142  0.00  0.00    +0.000 C 
ATOM     18  C   UNL     1      -2.303  10.227  17.288  0.00  0.00    +0.000 C 
ATOM     19  C   UNL     1      -2.728  11.163  18.150  0.00  0.00    +0.000 C 
ATOM     20  C   UNL     1      -1.611  11.409  19.092  0.00  0.00    +0.000 C 
ATOM     21  O   UNL     1      -1.595  12.286  19.935  0.00  0.00    +0.000 OA
ATOM     22  N   UNL     1      -0.620  10.477  18.813  0.00  0.00    +0.000 N 
ATOM     23  C   UNL     1      -0.920   9.755  17.598  0.00  0.00    +0.000 C 
BRANCH  19  24
ATOM     24  C   UNL     1      -4.044  11.786  18.212  0.00  0.00    +0.000 A 
ATOM     25  C   UNL     1      -4.533  12.245  19.443  0.00  0.00    +0.000 A 
ATOM     26  C   UNL     1      -5.816  12.787  19.538  0.00  0.00    +0.000 A 
ATOM     27  C   UNL     1      -6.620  12.875  18.403  0.00  0.00    +0.000 A 
ATOM     28  C   UNL     1      -6.139  12.427  17.172  0.00  0.00    +0.000 A 
ATOM     29  C   UNL     1      -4.856  11.882  17.076  0.00  0.00    +0.000 A 
ENDBRANCH  19  24
ENDBRANCH   1  22
TORSDOF 4
ENDMDL
MODEL 9
REMARK VINA RESULT:      -8.2      6.320      9.992
REMARK  Name = 
REMARK  7 active torsions:
REMARK  status: ('A' for Active; 'I' for Inactive)
REMARK    1  A    between atoms: C_1  and  C_2
REMARK    2  A    between atoms: C_3  and  C_4
REMARK    3  A    between atoms: N_12  and  C_13
REMARK    4  A    between atoms: C_13  and  C_14
REMARK    5  A    between atoms: C_13  and  C_15
REMARK    6  A    between atoms: C_13  and  C_16
REMARK    7  A    between atoms: C_20  and  C_21
REMARK                            x       y       z     vdW  Elec       q    Type
REMARK                         _______ _______ _______ _____ _____    ______ ____
ROOT
ATOM      1  C   UNL     1       0.667  10.421  19.677  0.00  0.00    +0.000 C 
ATOM      2  C   UNL     1       0.359  10.743  21.160  0.00  0.00    +0.000 C 
ATOM      3  C   UNL     1       1.715  11.444  19.185  0.00  0.00    +0.000 C 
ENDROOT
BRANCH   1   4
ATOM      4  C   UNL     1      -0.651  10.565  18.884  0.00  0.00    +0.000 A 
ATOM      5  N   UNL     1      -1.670  11.282  19.319  0.00  0.00    +0.000 NA
ATOM      6  C   UNL     1      -2.704  11.279  18.406  0.00  0.00    +0.000 A 
ATOM      7  C   UNL     1      -3.914  11.980  18.551  0.00  0.00    +0.000 A 
ATOM      8  C   UNL     1      -4.908  11.892  17.565  0.00  0.00    +0.000 A 
ATOM      9  C   UNL     1      -4.672  11.109  16.427  0.00  0.00    +0.000 A 
ATOM     10  C   UNL     1      -3.467  10.407  16.259  0.00  0.00    +0.000 A 
ATOM     11  C   UNL     1      -2.495  10.503  17.267  0.00  0.00    +0.000 A 
ATOM     12  S   UNL     1      -0.943   9.767  17.380  0.00  0.00    +0.000 S 
BRANCH   8  13
ATOM     13  C   UNL     1      -6.218  12.621  17.740  0.00  0.00    +0.000 C 
ATOM     14  F   UNL     1      -7.300  11.796  17.786  0.00  0.00    +0.000 F 
ATOM     15  F   UNL     1      -6.259  13.354  18.886  0.00  0.00    +0.000 F 
ATOM     16  F   UNL     1      -6.461  13.497  16.725  0.00  0.00    +0.000 F 
ENDBRANCH   8  13
ENDBRANCH   1   4
BRANCH   1  22
ATOM     17  C   UNL     1       2.074   5.691  20.903  0.00  0.00    +0.000 C 
ATOM     18  C   UNL     1       1.948   6.947  20.113  0.00  0.00    +0.000 C 
ATOM     19  C   UNL     1       2.447   7.211  18.895  0.00  0.00    +0.000 C 
ATOM     20  C   UNL     1       2.045   8.599  18.567  0.00  0.00    +0.000 C 
ATOM     21  O   UNL     1       2.426   9.219  17.592  0.00  0.00    +0.000 OA
ATOM     22  N   UNL     1       1.189   9.032  19.571  0.00  0.00    +0.000 N 
ATOM     23  C   UNL     1       1.161   8.090  20.666  0.00  0.00    +0.000 C 
BRANCH  19  24
ATOM     24  C   UNL     1       3.186   6.311  18.020  0.00  0.00    +0.000 A 
ATOM     25  C   UNL     1       2.713   5.008  17.812  0.00  0.00    +0.000 A 
ATOM     26  C   UNL     1       3.437   4.107  17.031  0.00  0.00    +0.000 A 
ATOM     27  C   UNL     1       4.641   4.502  16.449  0.00  0.00    +0.000 A 
ATOM     28  C   UNL     1       5.116   5.800  16.645  0.00  0.00    +0.000 A 
ATOM     29  C   UNL     1       4.393   6.702  17.429  0.00  0.00    +0.000 A 
ENDBRANCH  19  24
ENDBRANCH   1  22
TORSDOF 4
ENDMDL
