MODEL 1
REMARK VINA RESULT:      -8.3      0.000      0.000
REMARK  Name = 
REMARK  7 active torsions:
REMARK  status: ('A' for Active; 'I' for Inactive)
REMARK    1  A    between atoms: C_1  and  C_2
REMARK    2  A    between atoms: N_4  and  C_5
REMARK    3  A    between atoms: C_5  and  C_6
REMARK    4  A    between atoms: N_8  and  C_9
REMARK    5  A    between atoms: C_12  and  N_13
REMARK    6  A    between atoms: N_16  and  C_17
REMARK    7  A    between atoms: C_22  and  C_23
REMARK                            x       y       z     vdW  Elec       q    Type
REMARK                         _______ _______ _______ _____ _____    ______ ____
ROOT
ATOM      1  C   UNL     1       2.783   7.004  18.654  0.00  0.00    +0.000 A 
ATOM      2  C   UNL     1       2.556   8.061  17.772  0.00  0.00    +0.000 A 
ATOM      3  C   UNL     1       1.784   9.164  18.152  0.00  0.00    +0.000 A 
ATOM      4  C   UNL     1       1.229   9.283  19.433  0.00  0.00    +0.000 A 
ATOM      5  C   UNL     1       1.456   8.201  20.298  0.00  0.00    +0.000 A 
ATOM      6  F   UNL     1       1.015   8.236  21.568  0.00  0.00    +0.000 F 
ATOM      7  C   UNL     1       2.201   7.081  19.920  0.00  0.00    +0.000 A 
ENDROOT
BRANCH   1  10
ATOM      8  C   UNL     1       5.363   4.464  18.054  0.00  0.00    +0.000 C 
ATOM      9  C   UNL     1       5.003   5.927  18.206  0.00  0.00    +0.000 C 
ATOM     10  N   UNL     1       3.574   5.894  18.276  0.00  0.00    +0.000 N 
ATOM     11  C   UNL     1       3.115   4.683  17.778  0.00  0.00    +0.000 C 
ATOM     12  O   UNL     1       1.970   4.328  17.554  0.00  0.00    +0.000 OA
ATOM     13  O   UNL     1       4.186   3.872  17.486  0.00  0.00    +0.000 OA
BRANCH   8  14
ATOM     14  C   UNL     1       6.558   4.257  17.122  0.00  0.00    +0.000 C 
BRANCH  14  18
ATOM     15  C   UNL     1       6.217   3.811  13.372  0.00  0.00    +0.000 C 
ATOM     16  C   UNL     1       6.693   4.419  14.663  0.00  0.00    +0.000 C 
ATOM     17  O   UNL     1       7.479   5.361  14.705  0.00  0.00    +0.000 OA
ATOM     18  N   UNL     1       6.174   3.826  15.787  0.00  0.00    +0.000 N 
ATOM     19  H   UNL     1       5.534   3.046  15.695  0.00  0.00    +0.000 HD
ENDBRANCH  14  18
ENDBRANCH   8  14
ENDBRANCH   1  10
BRANCH   4  20
ATOM     20  N   UNL     1       0.530  10.418  19.785  0.00  0.00    +0.000 N 
ATOM     21  C   UNL     1       0.952  11.342  20.866  0.00  0.00    +0.000 C 
ATOM     22  C   UNL     1       1.031  12.807  20.364  0.00  0.00    +0.000 C 
ATOM     23  N   UNL     1      -0.242  13.133  19.698  0.00  0.00    +0.000 N 
ATOM     24  C   UNL     1      -0.522  12.277  18.539  0.00  0.00    +0.000 C 
ATOM     25  C   UNL     1      -0.674  10.824  19.029  0.00  0.00    +0.000 C 
BRANCH  23  26
ATOM     26  C   UNL     1      -0.888  14.326  19.906  0.00  0.00    +0.000 A 
ATOM     27  N   UNL     1      -0.402  15.417  19.264  0.00  0.00    +0.000 NA
ATOM     28  C   UNL     1      -1.025  16.607  19.434  0.00  0.00    +0.000 A 
ATOM     29  C   UNL     1      -2.127  16.793  20.246  0.00  0.00    +0.000 A 
ATOM     30  C   UNL     1      -2.607  15.693  20.935  0.00  0.00    +0.000 A 
ATOM     31  C   UNL     1      -1.986  14.449  20.775  0.00  0.00    +0.000 A 
BRANCH  31  32
ATOM     32  C   UNL     1      -2.462  13.365  21.578  0.00  0.00    +0.000 C 
ATOM     33  N   UNL     1      -2.838  12.500  22.256  0.00  0.00    +0.000 NA
ENDBRANCH  31  32
ENDBRANCH  23  26
ENDBRANCH   4  20
TORSDOF 6
ENDMDL
MODEL 2
REMARK VINA RESULT:      -8.1      0.902      1.374
REMARK  Name = 
REMARK  7 active torsions:
REMARK  status: ('A' for Active; 'I' for Inactive)
REMARK    1  A    between atoms: C_1  and  C_2
REMARK    2  A    between atoms: N_4  and  C_5
REMARK    3  A    between atoms: C_5  and  C_6
REMARK    4  A    between atoms: N_8  and  C_9
REMARK    5  A    between atoms: C_12  and  N_13
REMARK    6  A    between atoms: N_16  and  C_17
REMARK    7  A    between atoms: C_22  and  C_23
REMARK                            x       y       z     vdW  Elec       q    Type
REMARK                         _______ _______ _______ _____ _____    ______ ____
ROOT
ATOM      1  C   UNL     1       2.621   7.314  18.648  0.00  0.00    +0.000 A 
ATOM      2  C   UNL     1       2.475   8.290  17.664  0.00  0.00    +0.000 A 
ATOM      3  C   UNL     1       1.748   9.460  17.910  0.00  0.00    +0.000 A 
ATOM      4  C   UNL     1       1.160   9.726  19.154  0.00  0.00    +0.000 A 
ATOM      5  C   UNL     1       1.305   8.723  20.124  0.00  0.00    +0.000 A 
ATOM      6  F   UNL     1       0.827   8.900  21.369  0.00  0.00    +0.000 F 
ATOM      7  C   UNL     1       2.004   7.538  19.880  0.00  0.00    +0.000 A 
ENDROOT
BRANCH   1  10
ATOM      8  C   UNL     1       5.073   4.593  18.416  0.00  0.00    +0.000 C 
ATOM      9  C   UNL     1       4.796   6.082  18.447  0.00  0.00    +0.000 C 
ATOM     10  N   UNL     1       3.367   6.136  18.405  0.00  0.00    +0.000 N 
ATOM     11  C   UNL     1       2.872   4.924  17.947  0.00  0.00    +0.000 C 
ATOM     12  O   UNL     1       1.727   4.622  17.655  0.00  0.00    +0.000 OA
ATOM     13  O   UNL     1       3.908   4.034  17.793  0.00  0.00    +0.000 OA
BRANCH   8  14
ATOM     14  C   UNL     1       6.321   4.254  17.598  0.00  0.00    +0.000 C 
BRANCH  14  18
ATOM     15  C   UNL     1       6.220   3.900  13.824  0.00  0.00    +0.000 C 
ATOM     16  C   UNL     1       6.620   4.470  15.157  0.00  0.00    +0.000 C 
ATOM     17  O   UNL     1       7.419   5.395  15.273  0.00  0.00    +0.000 OA
ATOM     18  N   UNL     1       6.018   3.861  16.231  0.00  0.00    +0.000 N 
ATOM     19  H   UNL     1       5.372   3.096  16.078  0.00  0.00    +0.000 HD
ENDBRANCH  14  18
ENDBRANCH   8  14
ENDBRANCH   1  10
BRANCH   4  20
ATOM     20  N   UNL     1       0.508  10.921  19.373  0.00  0.00    +0.000 N 
ATOM     21  C   UNL     1      -0.823  11.249  18.805  0.00  0.00    +0.000 C 
ATOM     22  C   UNL     1      -1.816  11.703  19.906  0.00  0.00    +0.000 C 
ATOM     23  N   UNL     1      -1.172  12.769  20.694  0.00  0.00    +0.000 N 
ATOM     24  C   UNL     1       0.062  12.329  21.357  0.00  0.00    +0.000 C 
ATOM     25  C   UNL     1       1.088  11.940  20.275  0.00  0.00    +0.000 C 
BRANCH  23  26
ATOM     26  C   UNL     1      -1.843  13.907  21.066  0.00  0.00    +0.000 A 
ATOM     27  N   UNL     1      -1.553  15.047  20.394  0.00  0.00    +0.000 NA
ATOM     28  C   UNL     1      -2.207  16.185  20.724  0.00  0.00    +0.000 A 
ATOM     29  C   UNL     1      -3.152  16.269  21.730  0.00  0.00    +0.000 A 
ATOM     30  C   UNL     1      -3.427  15.118  22.446  0.00  0.00    +0.000 A 
ATOM     31  C   UNL     1      -2.768  13.926  22.124  0.00  0.00    +0.000 A 
BRANCH  31  32
ATOM     32  C   UNL     1      -3.020  12.787  22.952  0.00  0.00    +0.000 C 
ATOM     33  N   UNL     1      -3.255  11.863  23.616  0.00  0.00    +0.000 NA
ENDBRANCH  31  32
ENDBRANCH  23  26
ENDBRANCH   4  20
TORSDOF 6
ENDMDL
MODEL 3
REMARK VINA RESULT:      -8.1      0.716      1.968
REMARK  Name = 
REMARK  7 active torsions:
REMARK  status: ('A' for Active; 'I' for Inactive)
REMARK    1  A    between atoms: C_1  and  C_2
REMARK    2  A    between atoms: N_4  and  C_5
REMARK    3  A    between atoms: C_5  and  C_6
REMARK    4  A    between atoms: N_8  and  C_9
REMARK    5  A    between atoms: C_12  and  N_13
REMARK    6  A    between atoms: N_16  and  C_17
REMARK    7  A    between atoms: C_22  and  C_23
REMARK                            x       y       z     vdW  Elec       q    Type
REMARK                         _______ _______ _______ _____ _____    ______ ____
ROOT
ATOM      1  C   UNL     1       2.764   7.162  18.584  0.00  0.00    +0.000 A 
ATOM      2  C   UNL     1       2.617   8.184  17.646  0.00  0.00    +0.000 A 
ATOM      3  C   UNL     1       1.863   9.326  17.937  0.00  0.00    +0.000 A 
ATOM      4  C   UNL     1       1.248   9.519  19.182  0.00  0.00    +0.000 A 
ATOM      5  C   UNL     1       1.395   8.471  20.103  0.00  0.00    +0.000 A 
ATOM      6  F   UNL     1       0.891   8.577  21.345  0.00  0.00    +0.000 F 
ATOM      7  C   UNL     1       2.120   7.312  19.813  0.00  0.00    +0.000 A 
ENDROOT
BRANCH   1  10
ATOM      8  C   UNL     1       5.294   4.530  18.207  0.00  0.00    +0.000 C 
ATOM      9  C   UNL     1       4.966   6.008  18.255  0.00  0.00    +0.000 C 
ATOM     10  N   UNL     1       3.536   6.011  18.296  0.00  0.00    +0.000 N 
ATOM     11  C   UNL     1       3.059   4.782  17.867  0.00  0.00    +0.000 C 
ATOM     12  O   UNL     1       1.910   4.439  17.642  0.00  0.00    +0.000 OA
ATOM     13  O   UNL     1       4.116   3.929  17.652  0.00  0.00    +0.000 OA
BRANCH   8  14
ATOM     14  C   UNL     1       6.503   4.236  17.317  0.00  0.00    +0.000 C 
BRANCH  14  18
ATOM     15  C   UNL     1       6.193   3.833  13.559  0.00  0.00    +0.000 C 
ATOM     16  C   UNL     1       6.649   4.434  14.861  0.00  0.00    +0.000 C 
ATOM     17  O   UNL     1       7.415   5.391  14.920  0.00  0.00    +0.000 OA
ATOM     18  N   UNL     1       6.136   3.815  15.974  0.00  0.00    +0.000 N 
ATOM     19  H   UNL     1       5.512   3.024  15.867  0.00  0.00    +0.000 HD
ENDBRANCH  14  18
ENDBRANCH   8  14
ENDBRANCH   1  10
BRANCH   4  20
ATOM     20  N   UNL     1       0.570  10.690  19.447  0.00  0.00    +0.000 N 
ATOM     21  C   UNL     1      -0.580  11.175  18.646  0.00  0.00    +0.000 C 
ATOM     22  C   UNL     1      -1.809  11.483  19.540  0.00  0.00    +0.000 C 
ATOM     23  N   UNL     1      -1.370  12.365  20.635  0.00  0.00    +0.000 N 
ATOM     24  C   UNL     1      -0.338  11.758  21.485  0.00  0.00    +0.000 C 
ATOM     25  C   UNL     1       0.919  11.510  20.628  0.00  0.00    +0.000 C 
BRANCH  23  26
ATOM     26  C   UNL     1      -2.104  13.454  21.032  0.00  0.00    +0.000 A 
ATOM     27  N   UNL     1      -3.189  13.223  21.810  0.00  0.00    +0.000 NA
ATOM     28  C   UNL     1      -3.927  14.276  22.233  0.00  0.00    +0.000 A 
ATOM     29  C   UNL     1      -3.656  15.591  21.903  0.00  0.00    +0.000 A 
ATOM     30  C   UNL     1      -2.572  15.834  21.080  0.00  0.00    +0.000 A 
ATOM     31  C   UNL     1      -1.789  14.764  20.631  0.00  0.00    +0.000 A 
BRANCH  31  32
ATOM     32  C   UNL     1      -0.735  15.058  19.708  0.00  0.00    +0.000 C 
ATOM     33  N   UNL     1       0.142  15.290  18.983  0.00  0.00    +0.000 NA
ENDBRANCH  31  32
ENDBRANCH  23  26
ENDBRANCH   4  20
TORSDOF 6
ENDMDL
MODEL 4
REMARK VINA RESULT:      -8.0      1.768      2.244
REMARK  Name = 
REMARK  7 active torsions:
REMARK  status: ('A' for Active; 'I' for Inactive)
REMARK    1  A    between atoms: C_1  and  C_2
REMARK    2  A    between atoms: N_4  and  C_5
REMARK    3  A    between atoms: C_5  and  C_6
REMARK    4  A    between atoms: N_8  and  C_9
REMARK    5  A    between atoms: C_12  and  N_13
REMARK    6  A    between atoms: N_16  and  C_17
REMARK    7  A    between atoms: C_22  and  C_23
REMARK                            x       y       z     vdW  Elec       q    Type
REMARK                         _______ _______ _______ _____ _____    ______ ____
ROOT
ATOM      1  C   UNL     1       2.661   6.939  19.019  0.00  0.00    +0.000 A 
ATOM      2  C   UNL     1       2.190   6.972  20.332  0.00  0.00    +0.000 A 
ATOM      3  C   UNL     1       1.411   8.038  20.792  0.00  0.00    +0.000 A 
ATOM      4  C   UNL     1       1.038   9.105  19.963  0.00  0.00    +0.000 A 
ATOM      5  C   UNL     1       1.537   9.060  18.652  0.00  0.00    +0.000 A 
ATOM      6  F   UNL     1       1.196  10.004  17.758  0.00  0.00    +0.000 F 
ATOM      7  C   UNL     1       2.341   8.014  18.189  0.00  0.00    +0.000 A 
ENDROOT
BRANCH   1  10
ATOM      8  C   UNL     1       5.197   4.404  18.237  0.00  0.00    +0.000 C 
ATOM      9  C   UNL     1       4.869   5.851  18.542  0.00  0.00    +0.000 C 
ATOM     10  N   UNL     1       3.439   5.855  18.549  0.00  0.00    +0.000 N 
ATOM     11  C   UNL     1       2.970   4.724  17.895  0.00  0.00    +0.000 C 
ATOM     12  O   UNL     1       1.828   4.434  17.585  0.00  0.00    +0.000 OA
ATOM     13  O   UNL     1       4.031   3.919  17.555  0.00  0.00    +0.000 OA
BRANCH   8  14
ATOM     14  C   UNL     1       6.427   4.268  17.338  0.00  0.00    +0.000 C 
BRANCH  14  18
ATOM     15  C   UNL     1       6.271   3.887  13.568  0.00  0.00    +0.000 C 
ATOM     16  C   UNL     1       6.700   4.459  14.891  0.00  0.00    +0.000 C 
ATOM     17  O   UNL     1       7.517   5.368  14.990  0.00  0.00    +0.000 OA
ATOM     18  N   UNL     1       6.099   3.870  15.977  0.00  0.00    +0.000 N 
ATOM     19  H   UNL     1       5.436   3.117  15.838  0.00  0.00    +0.000 HD
ENDBRANCH  14  18
ENDBRANCH   8  14
ENDBRANCH   1  10
BRANCH   4  20
ATOM     20  N   UNL     1       0.215  10.102  20.441  0.00  0.00    +0.000 N 
ATOM     21  C   UNL     1      -0.796   9.895  21.506  0.00  0.00    +0.000 C 
ATOM     22  C   UNL     1      -0.627  10.917  22.660  0.00  0.00    +0.000 C 
ATOM     23  N   UNL     1      -0.578  12.267  22.072  0.00  0.00    +0.000 N 
ATOM     24  C   UNL     1       0.542  12.451  21.142  0.00  0.00    +0.000 C 
ATOM     25  C   UNL     1       0.353  11.491  19.952  0.00  0.00    +0.000 C 
BRANCH  23  26
ATOM     26  C   UNL     1      -1.264  13.323  22.617  0.00  0.00    +0.000 A 
ATOM     27  N   UNL     1      -0.733  13.908  23.719  0.00  0.00    +0.000 NA
ATOM     28  C   UNL     1      -1.376  14.963  24.273  0.00  0.00    +0.000 A 
ATOM     29  C   UNL     1      -2.566  15.480  23.796  0.00  0.00    +0.000 A 
ATOM     30  C   UNL     1      -3.134  14.866  22.695  0.00  0.00    +0.000 A 
ATOM     31  C   UNL     1      -2.490  13.776  22.099  0.00  0.00    +0.000 A 
BRANCH  31  32
ATOM     32  C   UNL     1      -3.163  13.119  21.021  0.00  0.00    +0.000 C 
ATOM     33  N   UNL     1      -3.690  12.600  20.124  0.00  0.00    +0.000 NA
ENDBRANCH  31  32
ENDBRANCH  23  26
ENDBRANCH   4  20
TORSDOF 6
ENDMDL
MODEL 5
REMARK VINA RESULT:      -8.0      1.300      1.555
REMARK  Name = 
REMARK  7 active torsions:
REMARK  status: ('A' for Active; 'I' for Inactive)
REMARK    1  A    between atoms: C_1  and  C_2
REMARK    2  A    between atoms: N_4  and  C_5
REMARK    3  A    between atoms: C_5  and  C_6
REMARK    4  A    between atoms: N_8  and  C_9
REMARK    5  A    between atoms: C_12  and  N_13
REMARK    6  A    between atoms: N_16  and  C_17
REMARK    7  A    between atoms: C_22  and  C_23
REMARK                            x       y       z     vdW  Elec       q    Type
REMARK                         _______ _______ _______ _____ _____    ______ ____
ROOT
ATOM      1  C   UNL     1       2.688   6.964  18.769  0.00  0.00    +0.000 A 
ATOM      2  C   UNL     1       2.315   7.971  17.878  0.00  0.00    +0.000 A 
ATOM      3  C   UNL     1       1.547   9.061  18.302  0.00  0.00    +0.000 A 
ATOM      4  C   UNL     1       1.142   9.217  19.635  0.00  0.00    +0.000 A 
ATOM      5  C   UNL     1       1.514   8.185  20.510  0.00  0.00    +0.000 A 
ATOM      6  F   UNL     1       1.224   8.262  21.820  0.00  0.00    +0.000 F 
ATOM      7  C   UNL     1       2.255   7.077  20.091  0.00  0.00    +0.000 A 
ENDROOT
BRANCH   1  10
ATOM      8  C   UNL     1       5.254   4.434  18.075  0.00  0.00    +0.000 C 
ATOM      9  C   UNL     1       4.904   5.891  18.298  0.00  0.00    +0.000 C 
ATOM     10  N   UNL     1       3.475   5.868  18.345  0.00  0.00    +0.000 N 
ATOM     11  C   UNL     1       3.013   4.689  17.777  0.00  0.00    +0.000 C 
ATOM     12  O   UNL     1       1.868   4.358  17.518  0.00  0.00    +0.000 OA
ATOM     13  O   UNL     1       4.080   3.884  17.459  0.00  0.00    +0.000 OA
BRANCH   8  14
ATOM     14  C   UNL     1       6.461   4.264  17.152  0.00  0.00    +0.000 C 
BRANCH  14  18
ATOM     15  C   UNL     1       6.185   3.747  13.405  0.00  0.00    +0.000 C 
ATOM     16  C   UNL     1       6.636   4.382  14.692  0.00  0.00    +0.000 C 
ATOM     17  O   UNL     1       7.416   5.329  14.730  0.00  0.00    +0.000 OA
ATOM     18  N   UNL     1       6.102   3.806  15.819  0.00  0.00    +0.000 N 
ATOM     19  H   UNL     1       5.468   3.021  15.730  0.00  0.00    +0.000 HD
ENDBRANCH  14  18
ENDBRANCH   8  14
ENDBRANCH   1  10
BRANCH   4  20
ATOM     20  N   UNL     1       0.442  10.341  20.021  0.00  0.00    +0.000 N 
ATOM     21  C   UNL     1      -0.672  10.321  21.000  0.00  0.00    +0.000 C 
ATOM     22  C   UNL     1      -0.444  11.342  22.144  0.00  0.00    +0.000 C 
ATOM     23  N   UNL     1      -0.144  12.651  21.537  0.00  0.00    +0.000 N 
ATOM     24  C   UNL     1       1.063  12.635  20.703  0.00  0.00    +0.000 C 
ATOM     25  C   UNL     1       0.829  11.677  19.519  0.00  0.00    +0.000 C 
BRANCH  23  26
ATOM     26  C   UNL     1      -0.704  13.814  22.001  0.00  0.00    +0.000 A 
ATOM     27  N   UNL     1       0.020  14.545  22.882  0.00  0.00    +0.000 NA
ATOM     28  C   UNL     1      -0.495  15.707  23.348  0.00  0.00    +0.000 A 
ATOM     29  C   UNL     1      -1.739  16.196  22.996  0.00  0.00    +0.000 A 
ATOM     30  C   UNL     1      -2.502  15.438  22.126  0.00  0.00    +0.000 A 
ATOM     31  C   UNL     1      -1.992  14.235  21.625  0.00  0.00    +0.000 A 
BRANCH  31  32
ATOM     32  C   UNL     1      -2.854  13.443  20.802  0.00  0.00    +0.000 C 
ATOM     33  N   UNL     1      -3.571  12.828  20.125  0.00  0.00    +0.000 NA
ENDBRANCH  31  32
ENDBRANCH  23  26
ENDBRANCH   4  20
TORSDOF 6
ENDMDL
MODEL 6
REMARK VINA RESULT:      -7.9      1.098      2.066
REMARK  Name = 
REMARK  7 active torsions:
REMARK  status: ('A' for Active; 'I' for Inactive)
REMARK    1  A    between atoms: C_1  and  C_2
REMARK    2  A    between atoms: N_4  and  C_5
REMARK    3  A    between atoms: C_5  and  C_6
REMARK    4  A    between atoms: N_8  and  C_9
REMARK    5  A    between atoms: C_12  and  N_13
REMARK    6  A    between atoms: N_16  and  C_17
REMARK    7  A    between atoms: C_22  and  C_23
REMARK                            x       y       z     vdW  Elec       q    Type
REMARK                         _______ _______ _______ _____ _____    ______ ____
ROOT
ATOM      1  C   UNL     1       3.008   6.830  18.551  0.00  0.00    +0.000 A 
ATOM      2  C   UNL     1       2.412   6.747  19.809  0.00  0.00    +0.000 A 
ATOM      3  C   UNL     1       1.602   7.780  20.294  0.00  0.00    +0.000 A 
ATOM      4  C   UNL     1       1.324   8.928  19.540  0.00  0.00    +0.000 A 
ATOM      5  C   UNL     1       1.948   8.999  18.285  0.00  0.00    +0.000 A 
ATOM      6  F   UNL     1       1.705  10.031  17.458  0.00  0.00    +0.000 F 
ATOM      7  C   UNL     1       2.781   7.986  17.802  0.00  0.00    +0.000 A 
ENDROOT
BRANCH   1  10
ATOM      8  C   UNL     1       5.651   4.476  17.584  0.00  0.00    +0.000 C 
ATOM      9  C   UNL     1       5.220   5.909  17.814  0.00  0.00    +0.000 C 
ATOM     10  N   UNL     1       3.816   5.781  18.054  0.00  0.00    +0.000 N 
ATOM     11  C   UNL     1       3.377   4.551  17.585  0.00  0.00    +0.000 C 
ATOM     12  O   UNL     1       2.239   4.125  17.492  0.00  0.00    +0.000 OA
ATOM     13  O   UNL     1       4.454   3.817  17.147  0.00  0.00    +0.000 OA
BRANCH   8  14
ATOM     14  C   UNL     1       6.736   4.363  16.511  0.00  0.00    +0.000 C 
BRANCH  14  18
ATOM     15  C   UNL     1       6.039   3.629  12.856  0.00  0.00    +0.000 C 
ATOM     16  C   UNL     1       6.608   4.354  14.046  0.00  0.00    +0.000 C 
ATOM     17  O   UNL     1       7.337   5.336  13.941  0.00  0.00    +0.000 OA
ATOM     18  N   UNL     1       6.243   3.817  15.256  0.00  0.00    +0.000 N 
ATOM     19  H   UNL     1       5.644   3.000  15.284  0.00  0.00    +0.000 HD
ENDBRANCH  14  18
ENDBRANCH   8  14
ENDBRANCH   1  10
BRANCH   4  20
ATOM     20  N   UNL     1       0.468   9.891  20.031  0.00  0.00    +0.000 N 
ATOM     21  C   UNL     1       0.757  10.714  21.231  0.00  0.00    +0.000 C 
ATOM     22  C   UNL     1       0.618  12.229  20.931  0.00  0.00    +0.000 C 
ATOM     23  N   UNL     1      -0.694  12.452  20.297  0.00  0.00    +0.000 N 
ATOM     24  C   UNL     1      -0.852  11.727  19.031  0.00  0.00    +0.000 C 
ATOM     25  C   UNL     1      -0.787  10.215  19.320  0.00  0.00    +0.000 C 
BRANCH  23  26
ATOM     26  C   UNL     1      -1.506  13.499  20.653  0.00  0.00    +0.000 A 
ATOM     27  N   UNL     1      -2.618  13.207  21.371  0.00  0.00    +0.000 NA
ATOM     28  C   UNL     1      -3.434  14.218  21.753  0.00  0.00    +0.000 A 
ATOM     29  C   UNL     1      -3.217  15.546  21.438  0.00  0.00    +0.000 A 
ATOM     30  C   UNL     1      -2.104  15.850  20.675  0.00  0.00    +0.000 A 
ATOM     31  C   UNL     1      -1.241  14.825  20.269  0.00  0.00    +0.000 A 
BRANCH  31  32
ATOM     32  C   UNL     1      -0.156  15.178  19.405  0.00  0.00    +0.000 C 
ATOM     33  N   UNL     1       0.713  15.495  18.703  0.00  0.00    +0.000 NA
ENDBRANCH  31  32
ENDBRANCH  23  26
ENDBRANCH   4  20
TORSDOF 6
ENDMDL
MODEL 7
REMARK VINA RESULT:      -7.9      0.794      1.698
REMARK  Name = 
REMARK  7 active torsions:
REMARK  status: ('A' for Active; 'I' for Inactive)
REMARK    1  A    between atoms: C_1  and  C_2
REMARK    2  A    between atoms: N_4  and  C_5
REMARK    3  A    between atoms: C_5  and  C_6
REMARK    4  A    between atoms: N_8  and  C_9
REMARK    5  A    between atoms: C_12  and  N_13
REMARK    6  A    between atoms: N_16  and  C_17
REMARK    7  A    between atoms: C_22  and  C_23
REMARK                            x       y       z     vdW  Elec       q    Type
REMARK                         _______ _______ _______ _____ _____    ______ ____
ROOT
ATOM      1  C   UNL     1       2.916   6.926  18.655  0.00  0.00    +0.000 A 
ATOM      2  C   UNL     1       2.664   7.996  17.796  0.00  0.00    +0.000 A 
ATOM      3  C   UNL     1       1.836   9.054  18.186  0.00  0.00    +0.000 A 
ATOM      4  C   UNL     1       1.246   9.113  19.456  0.00  0.00    +0.000 A 
ATOM      5  C   UNL     1       1.500   8.019  20.297  0.00  0.00    +0.000 A 
ATOM      6  F   UNL     1       1.028   8.000  21.556  0.00  0.00    +0.000 F 
ATOM      7  C   UNL     1       2.301   6.942  19.908  0.00  0.00    +0.000 A 
ENDROOT
BRANCH   1  10
ATOM      8  C   UNL     1       5.619   4.520  18.045  0.00  0.00    +0.000 C 
ATOM      9  C   UNL     1       5.189   5.962  18.221  0.00  0.00    +0.000 C 
ATOM     10  N   UNL     1       3.763   5.861  18.267  0.00  0.00    +0.000 N 
ATOM     11  C   UNL     1       3.368   4.642  17.737  0.00  0.00    +0.000 C 
ATOM     12  O   UNL     1       2.245   4.240  17.487  0.00  0.00    +0.000 OA
ATOM     13  O   UNL     1       4.480   3.887  17.445  0.00  0.00    +0.000 OA
BRANCH   8  14
ATOM     14  C   UNL     1       6.837   4.388  17.129  0.00  0.00    +0.000 C 
BRANCH  14  18
ATOM     15  C   UNL     1       6.102   3.760  13.461  0.00  0.00    +0.000 C 
ATOM     16  C   UNL     1       6.382   4.555  14.708  0.00  0.00    +0.000 C 
ATOM     17  O   UNL     1       6.481   5.778  14.709  0.00  0.00    +0.000 OA
ATOM     18  N   UNL     1       6.521   3.791  15.841  0.00  0.00    +0.000 N 
ATOM     19  H   UNL     1       6.436   2.783  15.781  0.00  0.00    +0.000 HD
ENDBRANCH  14  18
ENDBRANCH   8  14
ENDBRANCH   1  10
BRANCH   4  20
ATOM     20  N   UNL     1       0.490  10.207  19.821  0.00  0.00    +0.000 N 
ATOM     21  C   UNL     1       0.760  11.029  21.026  0.00  0.00    +0.000 C 
ATOM     22  C   UNL     1       0.877  12.534  20.674  0.00  0.00    +0.000 C 
ATOM     23  N   UNL     1      -0.309  12.915  19.888  0.00  0.00    +0.000 N 
ATOM     24  C   UNL     1      -0.430  12.169  18.630  0.00  0.00    +0.000 C 
ATOM     25  C   UNL     1      -0.618  10.676  18.961  0.00  0.00    +0.000 C 
BRANCH  23  26
ATOM     26  C   UNL     1      -0.995  14.080  20.122  0.00  0.00    +0.000 A 
ATOM     27  N   UNL     1      -2.226  13.976  20.679  0.00  0.00    +0.000 NA
ATOM     28  C   UNL     1      -2.925  15.107  20.938  0.00  0.00    +0.000 A 
ATOM     29  C   UNL     1      -2.469  16.379  20.650  0.00  0.00    +0.000 A 
ATOM     30  C   UNL     1      -1.229  16.494  20.047  0.00  0.00    +0.000 A 
ATOM     31  C   UNL     1      -0.483  15.342  19.771  0.00  0.00    +0.000 A 
BRANCH  31  32
ATOM     32  C   UNL     1       0.750  15.506  19.065  0.00  0.00    +0.000 C 
ATOM     33  N   UNL     1       1.758  15.608  18.497  0.00  0.00    +0.000 NA
ENDBRANCH  31  32
ENDBRANCH  23  26
ENDBRANCH   4  20
TORSDOF 6
ENDMDL
MODEL 8
REMARK VINA RESULT:      -7.8      0.925      1.251
REMARK  Name = 
REMARK  7 active torsions:
REMARK  status: ('A' for Active; 'I' for Inactive)
REMARK    1  A    between atoms: C_1  and  C_2
REMARK    2  A    between atoms: N_4  and  C_5
REMARK    3  A    between atoms: C_5  and  C_6
REMARK    4  A    between atoms: N_8  and  C_9
REMARK    5  A    between atoms: C_12  and  N_13
REMARK    6  A    between atoms: N_16  and  C_17
REMARK    7  A    between atoms: C_22  and  C_23
REMARK                            x       y       z     vdW  Elec       q    Type
REMARK                         _______ _______ _______ _____ _____    ______ ____
ROOT
ATOM      1  C   UNL     1       2.652   7.074  18.877  0.00  0.00    +0.000 A 
ATOM      2  C   UNL     1       2.069   7.169  20.140  0.00  0.00    +0.000 A 
ATOM      3  C   UNL     1       1.348   8.307  20.518  0.00  0.00    +0.000 A 
ATOM      4  C   UNL     1       1.147   9.388  19.649  0.00  0.00    +0.000 A 
ATOM      5  C   UNL     1       1.756   9.278  18.390  0.00  0.00    +0.000 A 
ATOM      6  F   UNL     1       1.580  10.233  17.460  0.00  0.00    +0.000 F 
ATOM      7  C   UNL     1       2.503   8.159  18.011  0.00  0.00    +0.000 A 
ENDROOT
BRANCH   1  10
ATOM      8  C   UNL     1       5.041   4.348  18.305  0.00  0.00    +0.000 C 
ATOM      9  C   UNL     1       4.798   5.827  18.521  0.00  0.00    +0.000 C 
ATOM     10  N   UNL     1       3.371   5.919  18.488  0.00  0.00    +0.000 N 
ATOM     11  C   UNL     1       2.848   4.784  17.885  0.00  0.00    +0.000 C 
ATOM     12  O   UNL     1       1.697   4.547  17.560  0.00  0.00    +0.000 OA
ATOM     13  O   UNL     1       3.864   3.897  17.620  0.00  0.00    +0.000 OA
BRANCH   8  14
ATOM     14  C   UNL     1       6.281   4.085  17.449  0.00  0.00    +0.000 C 
BRANCH  14  18
ATOM     15  C   UNL     1       6.163   3.889  13.664  0.00  0.00    +0.000 C 
ATOM     16  C   UNL     1       6.584   4.390  15.018  0.00  0.00    +0.000 C 
ATOM     17  O   UNL     1       7.414   5.282  15.170  0.00  0.00    +0.000 OA
ATOM     18  N   UNL     1       5.963   3.758  16.068  0.00  0.00    +0.000 N 
ATOM     19  H   UNL     1       5.291   3.023  15.885  0.00  0.00    +0.000 HD
ENDBRANCH  14  18
ENDBRANCH   8  14
ENDBRANCH   1  10
BRANCH   4  20
ATOM     20  N   UNL     1       0.374  10.460  20.041  0.00  0.00    +0.000 N 
ATOM     21  C   UNL     1       0.724  11.359  21.168  0.00  0.00    +0.000 C 
ATOM     22  C   UNL     1       0.718  12.847  20.733  0.00  0.00    +0.000 C 
ATOM     23  N   UNL     1      -0.566  13.123  20.064  0.00  0.00    +0.000 N 
ATOM     24  C   UNL     1      -0.778  12.305  18.865  0.00  0.00    +0.000 C 
ATOM     25  C   UNL     1      -0.845  10.824  19.287  0.00  0.00    +0.000 C 
BRANCH  23  26
ATOM     26  C   UNL     1      -1.287  14.263  20.315  0.00  0.00    +0.000 A 
ATOM     27  N   UNL     1      -0.894  15.399  19.689  0.00  0.00    +0.000 NA
ATOM     28  C   UNL     1      -1.594  16.539  19.902  0.00  0.00    +0.000 A 
ATOM     29  C   UNL     1      -2.686  16.628  20.743  0.00  0.00    +0.000 A 
ATOM     30  C   UNL     1      -3.072  15.483  21.416  0.00  0.00    +0.000 A 
ATOM     31  C   UNL     1      -2.370  14.289  21.212  0.00  0.00    +0.000 A 
BRANCH  31  32
ATOM     32  C   UNL     1      -2.750  13.156  21.999  0.00  0.00    +0.000 C 
ATOM     33  N   UNL     1      -3.066  12.220  22.609  0.00  0.00    +0.000 NA
ENDBRANCH  31  32
ENDBRANCH  23  26
ENDBRANCH   4  20
TORSDOF 6
ENDMDL
MODEL 9
REMARK VINA RESULT:      -7.6      2.149      2.722
REMARK  Name = 
REMARK  7 active torsions:
REMARK  status: ('A' for Active; 'I' for Inactive)
REMARK    1  A    between atoms: C_1  and  C_2
REMARK    2  A    between atoms: N_4  and  C_5
REMARK    3  A    between atoms: C_5  and  C_6
REMARK    4  A    between atoms: N_8  and  C_9
REMARK    5  A    between atoms: C_12  and  N_13
REMARK    6  A    between atoms: N_16  and  C_17
REMARK    7  A    between atoms: C_22  and  C_23
REMARK                            x       y       z     vdW  Elec       q    Type
REMARK                         _______ _______ _______ _____ _____    ______ ____
ROOT
ATOM      1  C   UNL     1       4.078   6.535  17.812  0.00  0.00    +0.000 A 
ATOM      2  C   UNL     1       3.704   7.763  17.267  0.00  0.00    +0.000 A 
ATOM      3  C   UNL     1       2.682   8.526  17.843  0.00  0.00    +0.000 A 
ATOM      4  C   UNL     1       2.007   8.119  19.002  0.00  0.00    +0.000 A 
ATOM      5  C   UNL     1       2.388   6.873  19.523  0.00  0.00    +0.000 A 
ATOM      6  F   UNL     1       1.844   6.413  20.663  0.00  0.00    +0.000 F 
ATOM      7  C   UNL     1       3.387   6.088  18.940  0.00  0.00    +0.000 A 
ENDROOT
BRANCH   1  10
ATOM      8  C   UNL     1       6.659   4.961  15.731  0.00  0.00    +0.000 C 
ATOM      9  C   UNL     1       5.280   5.580  15.829  0.00  0.00    +0.000 C 
ATOM     10  N   UNL     1       5.119   5.768  17.238  0.00  0.00    +0.000 N 
ATOM     11  C   UNL     1       6.030   4.971  17.917  0.00  0.00    +0.000 C 
ATOM     12  O   UNL     1       6.121   4.757  19.114  0.00  0.00    +0.000 OA
ATOM     13  O   UNL     1       6.859   4.350  17.014  0.00  0.00    +0.000 OA
BRANCH   8  14
ATOM     14  C   UNL     1       6.740   3.904  14.628  0.00  0.00    +0.000 C 
BRANCH  14  18
ATOM     15  C   UNL     1       4.393   3.502  11.676  0.00  0.00    +0.000 C 
ATOM     16  C   UNL     1       5.682   3.429  12.448  0.00  0.00    +0.000 C 
ATOM     17  O   UNL     1       6.714   2.957  11.979  0.00  0.00    +0.000 OA
ATOM     18  N   UNL     1       5.601   3.933  13.724  0.00  0.00    +0.000 N 
ATOM     19  H   UNL     1       4.722   4.304  14.062  0.00  0.00    +0.000 HD
ENDBRANCH  14  18
ENDBRANCH   8  14
ENDBRANCH   1  10
BRANCH   4  20
ATOM     20  N   UNL     1       1.052   8.933  19.572  0.00  0.00    +0.000 N 
ATOM     21  C   UNL     1       0.542   8.761  20.955  0.00  0.00    +0.000 C 
ATOM     22  C   UNL     1       0.652  10.075  21.771  0.00  0.00    +0.000 C 
ATOM     23  N   UNL     1       0.031  11.156  20.986  0.00  0.00    +0.000 N 
ATOM     24  C   UNL     1       0.686  11.376  19.691  0.00  0.00    +0.000 C 
ATOM     25  C   UNL     1       0.525  10.103  18.837  0.00  0.00    +0.000 C 
BRANCH  23  26
ATOM     26  C   UNL     1      -0.804  12.083  21.556  0.00  0.00    +0.000 A 
ATOM     27  N   UNL     1      -0.493  12.518  22.801  0.00  0.00    +0.000 NA
ATOM     28  C   UNL     1      -1.287  13.445  23.388  0.00  0.00    +0.000 A 
ATOM     29  C   UNL     1      -2.423  13.971  22.802  0.00  0.00    +0.000 A 
ATOM     30  C   UNL     1      -2.769  13.505  21.546  0.00  0.00    +0.000 A 
ATOM     31  C   UNL     1      -1.965  12.550  20.915  0.00  0.00    +0.000 A 
BRANCH  31  32
ATOM     32  C   UNL     1      -2.415  12.033  19.658  0.00  0.00    +0.000 C 
ATOM     33  N   UNL     1      -2.794  11.589  18.655  0.00  0.00    +0.000 NA
ENDBRANCH  31  32
ENDBRANCH  23  26
ENDBRANCH   4  20
TORSDOF 6
ENDMDL
