MODEL 1
REMARK VINA RESULT:      -6.3      0.000      0.000
REMARK  Name = 
REMARK  11 active torsions:
REMARK  status: ('A' for Active; 'I' for Inactive)
REMARK    1  A    between atoms: C_1  and  C_2
REMARK    2  A    between atoms: C_2  and  N_3
REMARK    3  A    between atoms: N_3  and  C_4
REMARK    4  A    between atoms: C_4  and  C_5
REMARK    5  A    between atoms: C_4  and  C_6
REMARK    6  A    between atoms: C_4  and  C_7
REMARK    7  A    between atoms: N_9  and  C_10
REMARK    8  A    between atoms: N_9  and  C_11
REMARK    9  A    between atoms: C_11  and  C_12
REMARK   10  A    between atoms: C_15  and  O_16
REMARK   11  A    between atoms: O_16  and  C_17
REMARK                            x       y       z     vdW  Elec       q    Type
REMARK                         _______ _______ _______ _____ _____    ______ ____
ROOT
ATOM      1  C   UNL     1       2.997   3.213  19.556  0.00  0.00    +0.000 C 
ATOM      2  O   UNL     1       4.003   2.821  20.160  0.00  0.00    +0.000 OA
ATOM      3  N   UNL     1       3.129   3.750  18.270  0.00  0.00    +0.000 N 
ATOM      4  C   UNL     1       2.038   4.172  17.401  0.00  0.00    +0.000 C 
ENDROOT
BRANCH   1   5
ATOM      5  C   UNL     1       1.595   3.098  20.273  0.00  0.00    +0.000 C 
ATOM      6  C   UNL     1       1.787   2.396  21.642  0.00  0.00    +0.000 C 
ATOM      7  C   UNL     1       0.635   2.192  19.477  0.00  0.00    +0.000 C 
BRANCH   5   8
ATOM      8  N   UNL     1       0.962   4.423  20.505  0.00  0.00    +0.000 NA
ATOM      9  H   UNL     1       0.519   4.770  19.662  0.00  0.00    +0.000 HD
BRANCH   8  11
ATOM     10  C   UNL     1       1.827   6.674  20.144  0.00  0.00    +0.000 C 
ATOM     11  C   UNL     1       1.854   5.448  21.048  0.00  0.00    +0.000 C 
ENDBRANCH   8  11
ENDBRANCH   5   8
ENDBRANCH   1   5
BRANCH   3  12
ATOM     12  C   UNL     1       4.418   3.529  17.600  0.00  0.00    +0.000 C 
BRANCH  12  13
ATOM     13  C   UNL     1       5.340   4.728  17.467  0.00  0.00    +0.000 A 
ATOM     14  C   UNL     1       5.189   5.733  16.507  0.00  0.00    +0.000 A 
ATOM     15  C   UNL     1       6.133   6.763  16.399  0.00  0.00    +0.000 A 
ATOM     16  C   UNL     1       7.222   6.838  17.272  0.00  0.00    +0.000 A 
ATOM     17  C   UNL     1       7.334   5.873  18.271  0.00  0.00    +0.000 A 
ATOM     18  F   UNL     1       8.334   5.896  19.166  0.00  0.00    +0.000 F 
ATOM     19  C   UNL     1       6.411   4.833  18.369  0.00  0.00    +0.000 A 
BRANCH  16  20
ATOM     20  O   UNL     1       8.070   7.884  17.028  0.00  0.00    +0.000 OA
ATOM     21  C   UNL     1       8.023   8.975  17.941  0.00  0.00    +0.000 C 
ENDBRANCH  16  20
ENDBRANCH  12  13
ENDBRANCH   3  12
TORSDOF 6
ENDMDL
MODEL 2
REMARK VINA RESULT:      -6.1      2.793      6.562
REMARK  Name = 
REMARK  11 active torsions:
REMARK  status: ('A' for Active; 'I' for Inactive)
REMARK    1  A    between atoms: C_1  and  C_2
REMARK    2  A    between atoms: C_2  and  N_3
REMARK    3  A    between atoms: N_3  and  C_4
REMARK    4  A    between atoms: C_4  and  C_5
REMARK    5  A    between atoms: C_4  and  C_6
REMARK    6  A    between atoms: C_4  and  C_7
REMARK    7  A    between atoms: N_9  and  C_10
REMARK    8  A    between atoms: N_9  and  C_11
REMARK    9  A    between atoms: C_11  and  C_12
REMARK   10  A    between atoms: C_15  and  O_16
REMARK   11  A    between atoms: O_16  and  C_17
REMARK                            x       y       z     vdW  Elec       q    Type
REMARK                         _______ _______ _______ _____ _____    ______ ____
ROOT
ATOM      1  C   UNL     1       5.587   6.223  17.922  0.00  0.00    +0.000 C 
ATOM      2  O   UNL     1       5.342   5.922  19.098  0.00  0.00    +0.000 OA
ATOM      3  N   UNL     1       4.552   6.675  17.095  0.00  0.00    +0.000 N 
ATOM      4  C   UNL     1       4.695   7.146  15.723  0.00  0.00    +0.000 C 
ENDROOT
BRANCH   1   5
ATOM      5  C   UNL     1       7.069   6.073  17.399  0.00  0.00    +0.000 C 
ATOM      6  C   UNL     1       7.812   5.039  18.285  0.00  0.00    +0.000 C 
ATOM      7  C   UNL     1       7.852   7.391  17.561  0.00  0.00    +0.000 C 
BRANCH   5   8
ATOM      8  N   UNL     1       7.133   5.619  15.985  0.00  0.00    +0.000 NA
ATOM      9  H   UNL     1       6.504   6.155  15.399  0.00  0.00    +0.000 HD
BRANCH   8  11
ATOM     10  C   UNL     1       6.234   3.972  14.428  0.00  0.00    +0.000 C 
ATOM     11  C   UNL     1       6.892   4.189  15.784  0.00  0.00    +0.000 C 
ENDBRANCH   8  11
ENDBRANCH   5   8
ENDBRANCH   1   5
BRANCH   3  12
ATOM     12  C   UNL     1       3.300   7.054  17.765  0.00  0.00    +0.000 C 
BRANCH  12  13
ATOM     13  C   UNL     1       2.585   5.973  18.554  0.00  0.00    +0.000 A 
ATOM     14  C   UNL     1       2.203   6.100  19.893  0.00  0.00    +0.000 A 
ATOM     15  C   UNL     1       1.620   5.023  20.573  0.00  0.00    +0.000 A 
ATOM     16  C   UNL     1       1.366   3.812  19.923  0.00  0.00    +0.000 A 
ATOM     17  C   UNL     1       1.686   3.709  18.571  0.00  0.00    +0.000 A 
ATOM     18  F   UNL     1       1.443   2.590  17.870  0.00  0.00    +0.000 F 
ATOM     19  C   UNL     1       2.287   4.771  17.895  0.00  0.00    +0.000 A 
BRANCH  16  20
ATOM     20  O   UNL     1       0.816   2.846  20.722  0.00  0.00    +0.000 OA
ATOM     21  C   UNL     1       1.580   2.434  21.850  0.00  0.00    +0.000 C 
ENDBRANCH  16  20
ENDBRANCH  12  13
ENDBRANCH   3  12
TORSDOF 6
ENDMDL
MODEL 3
REMARK VINA RESULT:      -6.1      3.391      4.900
REMARK  Name = 
REMARK  11 active torsions:
REMARK  status: ('A' for Active; 'I' for Inactive)
REMARK    1  A    between atoms: C_1  and  C_2
REMARK    2  A    between atoms: C_2  and  N_3
REMARK    3  A    between atoms: N_3  and  C_4
REMARK    4  A    between atoms: C_4  and  C_5
REMARK    5  A    between atoms: C_4  and  C_6
REMARK    6  A    between atoms: C_4  and  C_7
REMARK    7  A    between atoms: N_9  and  C_10
REMARK    8  A    between atoms: N_9  and  C_11
REMARK    9  A    between atoms: C_11  and  C_12
REMARK   10  A    between atoms: C_15  and  O_16
REMARK   11  A    between atoms: O_16  and  C_17
REMARK                            x       y       z     vdW  Elec       q    Type
REMARK                         _______ _______ _______ _____ _____    ______ ____
ROOT
ATOM      1  C   UNL     1       3.774   4.059  18.970  0.00  0.00    +0.000 C 
ATOM      2  O   UNL     1       4.808   4.569  19.421  0.00  0.00    +0.000 OA
ATOM      3  N   UNL     1       2.848   4.861  18.293  0.00  0.00    +0.000 N 
ATOM      4  C   UNL     1       1.634   4.397  17.633  0.00  0.00    +0.000 C 
ENDROOT
BRANCH   1   5
ATOM      5  C   UNL     1       3.539   2.514  19.189  0.00  0.00    +0.000 C 
ATOM      6  C   UNL     1       4.610   1.977  20.174  0.00  0.00    +0.000 C 
ATOM      7  C   UNL     1       3.753   1.727  17.881  0.00  0.00    +0.000 C 
BRANCH   5   8
ATOM      8  N   UNL     1       2.192   2.214  19.744  0.00  0.00    +0.000 NA
ATOM      9  H   UNL     1       1.465   2.678  19.213  0.00  0.00    +0.000 HD
BRANCH   8  11
ATOM     10  C   UNL     1       1.345   3.866  21.324  0.00  0.00    +0.000 C 
ATOM     11  C   UNL     1       2.030   2.514  21.167  0.00  0.00    +0.000 C 
ENDBRANCH   8  11
ENDBRANCH   5   8
ENDBRANCH   1   5
BRANCH   3  12
ATOM     12  C   UNL     1       3.310   6.198  17.894  0.00  0.00    +0.000 C 
BRANCH  12  13
ATOM     13  C   UNL     1       2.532   7.385  18.431  0.00  0.00    +0.000 A 
ATOM     14  C   UNL     1       2.183   8.505  17.671  0.00  0.00    +0.000 A 
ATOM     15  C   UNL     1       1.535   9.596  18.265  0.00  0.00    +0.000 A 
ATOM     16  C   UNL     1       1.183   9.577  19.617  0.00  0.00    +0.000 A 
ATOM     17  C   UNL     1       1.471   8.432  20.358  0.00  0.00    +0.000 A 
ATOM     18  F   UNL     1       1.135   8.326  21.653  0.00  0.00    +0.000 F 
ATOM     19  C   UNL     1       2.136   7.353  19.777  0.00  0.00    +0.000 A 
BRANCH  16  20
ATOM     20  O   UNL     1       0.578  10.722  20.059  0.00  0.00    +0.000 OA
ATOM     21  C   UNL     1      -0.838  10.788  19.941  0.00  0.00    +0.000 C 
ENDBRANCH  16  20
ENDBRANCH  12  13
ENDBRANCH   3  12
TORSDOF 6
ENDMDL
MODEL 4
REMARK VINA RESULT:      -6.1      1.801      2.187
REMARK  Name = 
REMARK  11 active torsions:
REMARK  status: ('A' for Active; 'I' for Inactive)
REMARK    1  A    between atoms: C_1  and  C_2
REMARK    2  A    between atoms: C_2  and  N_3
REMARK    3  A    between atoms: N_3  and  C_4
REMARK    4  A    between atoms: C_4  and  C_5
REMARK    5  A    between atoms: C_4  and  C_6
REMARK    6  A    between atoms: C_4  and  C_7
REMARK    7  A    between atoms: N_9  and  C_10
REMARK    8  A    between atoms: N_9  and  C_11
REMARK    9  A    between atoms: C_11  and  C_12
REMARK   10  A    between atoms: C_15  and  O_16
REMARK   11  A    between atoms: O_16  and  C_17
REMARK                            x       y       z     vdW  Elec       q    Type
REMARK                         _______ _______ _______ _____ _____    ______ ____
ROOT
ATOM      1  C   UNL     1       3.230   3.417  19.659  0.00  0.00    +0.000 C 
ATOM      2  O   UNL     1       4.183   2.755  20.091  0.00  0.00    +0.000 OA
ATOM      3  N   UNL     1       3.140   3.684  18.288  0.00  0.00    +0.000 N 
ATOM      4  C   UNL     1       2.042   4.369  17.619  0.00  0.00    +0.000 C 
ENDROOT
BRANCH   1   5
ATOM      5  C   UNL     1       2.153   3.944  20.685  0.00  0.00    +0.000 C 
ATOM      6  C   UNL     1       2.142   3.013  21.926  0.00  0.00    +0.000 C 
ATOM      7  C   UNL     1       0.731   3.857  20.095  0.00  0.00    +0.000 C 
BRANCH   5   8
ATOM      8  N   UNL     1       2.426   5.333  21.138  0.00  0.00    +0.000 NA
ATOM      9  H   UNL     1       1.939   5.540  22.002  0.00  0.00    +0.000 HD
BRANCH   8  11
ATOM     10  C   UNL     1       1.446   7.545  20.837  0.00  0.00    +0.000 C 
ATOM     11  C   UNL     1       2.136   6.373  20.150  0.00  0.00    +0.000 C 
ENDBRANCH   8  11
ENDBRANCH   5   8
ENDBRANCH   1   5
BRANCH   3  12
ATOM     12  C   UNL     1       4.021   2.899  17.412  0.00  0.00    +0.000 C 
BRANCH  12  13
ATOM     13  C   UNL     1       5.034   3.669  16.585  0.00  0.00    +0.000 A 
ATOM     14  C   UNL     1       5.100   3.633  15.188  0.00  0.00    +0.000 A 
ATOM     15  C   UNL     1       6.119   4.309  14.505  0.00  0.00    +0.000 A 
ATOM     16  C   UNL     1       7.068   5.070  15.194  0.00  0.00    +0.000 A 
ATOM     17  C   UNL     1       6.961   5.160  16.581  0.00  0.00    +0.000 A 
ATOM     18  F   UNL     1       7.814   5.897  17.309  0.00  0.00    +0.000 F 
ATOM     19  C   UNL     1       5.962   4.471  17.268  0.00  0.00    +0.000 A 
BRANCH  16  20
ATOM     20  O   UNL     1       8.014   5.651  14.395  0.00  0.00    +0.000 OA
ATOM     21  C   UNL     1       7.956   5.349  13.006  0.00  0.00    +0.000 C 
ENDBRANCH  16  20
ENDBRANCH  12  13
ENDBRANCH   3  12
TORSDOF 6
ENDMDL
MODEL 5
REMARK VINA RESULT:      -6.1      3.018      3.781
REMARK  Name = 
REMARK  11 active torsions:
REMARK  status: ('A' for Active; 'I' for Inactive)
REMARK    1  A    between atoms: C_1  and  C_2
REMARK    2  A    between atoms: C_2  and  N_3
REMARK    3  A    between atoms: N_3  and  C_4
REMARK    4  A    between atoms: C_4  and  C_5
REMARK    5  A    between atoms: C_4  and  C_6
REMARK    6  A    between atoms: C_4  and  C_7
REMARK    7  A    between atoms: N_9  and  C_10
REMARK    8  A    between atoms: N_9  and  C_11
REMARK    9  A    between atoms: C_11  and  C_12
REMARK   10  A    between atoms: C_15  and  O_16
REMARK   11  A    between atoms: O_16  and  C_17
REMARK                            x       y       z     vdW  Elec       q    Type
REMARK                         _______ _______ _______ _____ _____    ______ ____
ROOT
ATOM      1  C   UNL     1       4.531   4.218  19.190  0.00  0.00    +0.000 C 
ATOM      2  O   UNL     1       5.215   3.239  19.512  0.00  0.00    +0.000 OA
ATOM      3  N   UNL     1       5.082   5.205  18.366  0.00  0.00    +0.000 N 
ATOM      4  C   UNL     1       4.381   6.366  17.832  0.00  0.00    +0.000 C 
ENDROOT
BRANCH   1   5
ATOM      5  C   UNL     1       3.053   4.317  19.738  0.00  0.00    +0.000 C 
ATOM      6  C   UNL     1       2.723   3.025  20.529  0.00  0.00    +0.000 C 
ATOM      7  C   UNL     1       2.033   4.362  18.582  0.00  0.00    +0.000 C 
BRANCH   5   8
ATOM      8  N   UNL     1       2.852   5.486  20.634  0.00  0.00    +0.000 NA
ATOM      9  H   UNL     1       3.019   5.238  21.602  0.00  0.00    +0.000 HD
BRANCH   8  11
ATOM     10  C   UNL     1       1.751   7.642  20.349  0.00  0.00    +0.000 C 
ATOM     11  C   UNL     1       1.549   6.141  20.512  0.00  0.00    +0.000 C 
ENDBRANCH   8  11
ENDBRANCH   5   8
ENDBRANCH   1   5
BRANCH   3  12
ATOM     12  C   UNL     1       6.339   4.861  17.686  0.00  0.00    +0.000 C 
BRANCH  12  13
ATOM     13  C   UNL     1       6.268   4.614  16.190  0.00  0.00    +0.000 A 
ATOM     14  C   UNL     1       5.260   3.876  15.561  0.00  0.00    +0.000 A 
ATOM     15  C   UNL     1       5.314   3.625  14.184  0.00  0.00    +0.000 A 
ATOM     16  C   UNL     1       6.348   4.139  13.397  0.00  0.00    +0.000 A 
ATOM     17  C   UNL     1       7.315   4.931  14.014  0.00  0.00    +0.000 A 
ATOM     18  F   UNL     1       8.321   5.486  13.319  0.00  0.00    +0.000 F 
ATOM     19  C   UNL     1       7.280   5.165  15.388  0.00  0.00    +0.000 A 
BRANCH  16  20
ATOM     20  O   UNL     1       6.279   3.791  12.076  0.00  0.00    +0.000 OA
ATOM     21  C   UNL     1       5.864   2.461  11.783  0.00  0.00    +0.000 C 
ENDBRANCH  16  20
ENDBRANCH  12  13
ENDBRANCH   3  12
TORSDOF 6
ENDMDL
MODEL 6
REMARK VINA RESULT:      -6.0      3.300      5.950
REMARK  Name = 
REMARK  11 active torsions:
REMARK  status: ('A' for Active; 'I' for Inactive)
REMARK    1  A    between atoms: C_1  and  C_2
REMARK    2  A    between atoms: C_2  and  N_3
REMARK    3  A    between atoms: N_3  and  C_4
REMARK    4  A    between atoms: C_4  and  C_5
REMARK    5  A    between atoms: C_4  and  C_6
REMARK    6  A    between atoms: C_4  and  C_7
REMARK    7  A    between atoms: N_9  and  C_10
REMARK    8  A    between atoms: N_9  and  C_11
REMARK    9  A    between atoms: C_11  and  C_12
REMARK   10  A    between atoms: C_15  and  O_16
REMARK   11  A    between atoms: O_16  and  C_17
REMARK                            x       y       z     vdW  Elec       q    Type
REMARK                         _______ _______ _______ _____ _____    ______ ____
ROOT
ATOM      1  C   UNL     1       5.379   4.949  18.596  0.00  0.00    +0.000 C 
ATOM      2  O   UNL     1       5.719   5.327  19.724  0.00  0.00    +0.000 OA
ATOM      3  N   UNL     1       4.064   4.522  18.378  0.00  0.00    +0.000 N 
ATOM      4  C   UNL     1       3.491   4.133  17.095  0.00  0.00    +0.000 C 
ENDROOT
BRANCH   1   5
ATOM      5  C   UNL     1       6.457   4.956  17.443  0.00  0.00    +0.000 C 
ATOM      6  C   UNL     1       7.855   4.689  18.060  0.00  0.00    +0.000 C 
ATOM      7  C   UNL     1       6.558   6.345  16.783  0.00  0.00    +0.000 C 
BRANCH   5   8
ATOM      8  N   UNL     1       6.193   3.924  16.407  0.00  0.00    +0.000 NA
ATOM      9  H   UNL     1       6.493   3.007  16.717  0.00  0.00    +0.000 HD
BRANCH   8  11
ATOM     10  C   UNL     1       5.694   4.029  14.022  0.00  0.00    +0.000 C 
ATOM     11  C   UNL     1       6.766   4.209  15.090  0.00  0.00    +0.000 C 
ENDBRANCH   8  11
ENDBRANCH   5   8
ENDBRANCH   1   5
BRANCH   3  12
ATOM     12  C   UNL     1       3.091   4.841  19.432  0.00  0.00    +0.000 C 
BRANCH  12  13
ATOM     13  C   UNL     1       2.502   6.240  19.426  0.00  0.00    +0.000 A 
ATOM     14  C   UNL     1       2.520   7.096  18.320  0.00  0.00    +0.000 A 
ATOM     15  C   UNL     1       2.027   8.403  18.423  0.00  0.00    +0.000 A 
ATOM     16  C   UNL     1       1.468   8.872  19.615  0.00  0.00    +0.000 A 
ATOM     17  C   UNL     1       1.390   7.996  20.696  0.00  0.00    +0.000 A 
ATOM     18  F   UNL     1       0.838   8.363  21.863  0.00  0.00    +0.000 F 
ATOM     19  C   UNL     1       1.899   6.701  20.606  0.00  0.00    +0.000 A 
BRANCH  16  20
ATOM     20  O   UNL     1       1.053  10.175  19.570  0.00  0.00    +0.000 OA
ATOM     21  C   UNL     1       0.066  10.502  18.599  0.00  0.00    +0.000 C 
ENDBRANCH  16  20
ENDBRANCH  12  13
ENDBRANCH   3  12
TORSDOF 6
ENDMDL
MODEL 7
REMARK VINA RESULT:      -5.9      1.204      1.607
REMARK  Name = 
REMARK  11 active torsions:
REMARK  status: ('A' for Active; 'I' for Inactive)
REMARK    1  A    between atoms: C_1  and  C_2
REMARK    2  A    between atoms: C_2  and  N_3
REMARK    3  A    between atoms: N_3  and  C_4
REMARK    4  A    between atoms: C_4  and  C_5
REMARK    5  A    between atoms: C_4  and  C_6
REMARK    6  A    between atoms: C_4  and  C_7
REMARK    7  A    between atoms: N_9  and  C_10
REMARK    8  A    between atoms: N_9  and  C_11
REMARK    9  A    between atoms: C_11  and  C_12
REMARK   10  A    between atoms: C_15  and  O_16
REMARK   11  A    between atoms: O_16  and  C_17
REMARK                            x       y       z     vdW  Elec       q    Type
REMARK                         _______ _______ _______ _____ _____    ______ ____
ROOT
ATOM      1  C   UNL     1       2.920   3.130  19.640  0.00  0.00    +0.000 C 
ATOM      2  O   UNL     1       3.899   2.826  20.332  0.00  0.00    +0.000 OA
ATOM      3  N   UNL     1       3.105   3.482  18.298  0.00  0.00    +0.000 N 
ATOM      4  C   UNL     1       2.051   3.779  17.336  0.00  0.00    +0.000 C 
ENDROOT
BRANCH   1   5
ATOM      5  C   UNL     1       1.490   3.117  20.310  0.00  0.00    +0.000 C 
ATOM      6  C   UNL     1       1.594   2.440  21.701  0.00  0.00    +0.000 C 
ATOM      7  C   UNL     1       0.504   2.250  19.503  0.00  0.00    +0.000 C 
BRANCH   5   8
ATOM      8  N   UNL     1       0.931   4.483  20.489  0.00  0.00    +0.000 NA
ATOM      9  H   UNL     1       0.498   4.816  19.635  0.00  0.00    +0.000 HD
BRANCH   8  11
ATOM     10  C   UNL     1       1.921   6.660  20.016  0.00  0.00    +0.000 C 
ATOM     11  C   UNL     1       1.882   5.481  20.980  0.00  0.00    +0.000 C 
ENDBRANCH   8  11
ENDBRANCH   5   8
ENDBRANCH   1   5
BRANCH   3  12
ATOM     12  C   UNL     1       4.418   3.170  17.717  0.00  0.00    +0.000 C 
BRANCH  12  13
ATOM     13  C   UNL     1       5.347   4.338  17.444  0.00  0.00    +0.000 A 
ATOM     14  C   UNL     1       6.539   4.574  18.137  0.00  0.00    +0.000 A 
ATOM     15  C   UNL     1       7.299   5.722  17.880  0.00  0.00    +0.000 A 
ATOM     16  C   UNL     1       6.910   6.639  16.898  0.00  0.00    +0.000 A 
ATOM     17  C   UNL     1       5.758   6.368  16.162  0.00  0.00    +0.000 A 
ATOM     18  F   UNL     1       5.339   7.184  15.182  0.00  0.00    +0.000 F 
ATOM     19  C   UNL     1       4.986   5.238  16.430  0.00  0.00    +0.000 A 
BRANCH  16  20
ATOM     20  O   UNL     1       7.738   7.722  16.778  0.00  0.00    +0.000 OA
ATOM     21  C   UNL     1       8.111   8.382  17.981  0.00  0.00    +0.000 C 
ENDBRANCH  16  20
ENDBRANCH  12  13
ENDBRANCH   3  12
TORSDOF 6
ENDMDL
MODEL 8
REMARK VINA RESULT:      -5.8      2.977      4.158
REMARK  Name = 
REMARK  11 active torsions:
REMARK  status: ('A' for Active; 'I' for Inactive)
REMARK    1  A    between atoms: C_1  and  C_2
REMARK    2  A    between atoms: C_2  and  N_3
REMARK    3  A    between atoms: N_3  and  C_4
REMARK    4  A    between atoms: C_4  and  C_5
REMARK    5  A    between atoms: C_4  and  C_6
REMARK    6  A    between atoms: C_4  and  C_7
REMARK    7  A    between atoms: N_9  and  C_10
REMARK    8  A    between atoms: N_9  and  C_11
REMARK    9  A    between atoms: C_11  and  C_12
REMARK   10  A    between atoms: C_15  and  O_16
REMARK   11  A    between atoms: O_16  and  C_17
REMARK                            x       y       z     vdW  Elec       q    Type
REMARK                         _______ _______ _______ _____ _____    ______ ____
ROOT
ATOM      1  C   UNL     1       4.147   5.064  19.127  0.00  0.00    +0.000 C 
ATOM      2  O   UNL     1       4.764   4.139  19.671  0.00  0.00    +0.000 OA
ATOM      3  N   UNL     1       4.799   5.869  18.185  0.00  0.00    +0.000 N 
ATOM      4  C   UNL     1       4.190   6.935  17.400  0.00  0.00    +0.000 C 
ENDROOT
BRANCH   1   5
ATOM      5  C   UNL     1       2.640   5.304  19.530  0.00  0.00    +0.000 C 
ATOM      6  C   UNL     1       2.406   6.825  19.716  0.00  0.00    +0.000 C 
ATOM      7  C   UNL     1       2.322   4.670  20.899  0.00  0.00    +0.000 C 
BRANCH   5   8
ATOM      8  N   UNL     1       1.687   4.799  18.507  0.00  0.00    +0.000 NA
ATOM      9  H   UNL     1       0.779   4.611  18.914  0.00  0.00    +0.000 HD
BRANCH   8  11
ATOM     10  C   UNL     1       1.549   2.368  18.385  0.00  0.00    +0.000 C 
ATOM     11  C   UNL     1       2.145   3.625  17.763  0.00  0.00    +0.000 C 
ENDBRANCH   8  11
ENDBRANCH   5   8
ENDBRANCH   1   5
BRANCH   3  12
ATOM     12  C   UNL     1       6.085   5.370  17.678  0.00  0.00    +0.000 C 
BRANCH  12  13
ATOM     13  C   UNL     1       6.126   4.915  16.231  0.00  0.00    +0.000 A 
ATOM     14  C   UNL     1       5.213   4.022  15.661  0.00  0.00    +0.000 A 
ATOM     15  C   UNL     1       5.370   3.589  14.338  0.00  0.00    +0.000 A 
ATOM     16  C   UNL     1       6.414   4.070  13.541  0.00  0.00    +0.000 A 
ATOM     17  C   UNL     1       7.283   5.011  14.089  0.00  0.00    +0.000 A 
ATOM     18  F   UNL     1       8.289   5.542  13.377  0.00  0.00    +0.000 F 
ATOM     19  C   UNL     1       7.145   5.428  15.413  0.00  0.00    +0.000 A 
BRANCH  16  20
ATOM     20  O   UNL     1       6.452   3.539  12.281  0.00  0.00    +0.000 OA
ATOM     21  C   UNL     1       5.298   2.828  11.847  0.00  0.00    +0.000 C 
ENDBRANCH  16  20
ENDBRANCH  12  13
ENDBRANCH   3  12
TORSDOF 6
ENDMDL
MODEL 9
REMARK VINA RESULT:      -5.8      3.572      6.242
REMARK  Name = 
REMARK  11 active torsions:
REMARK  status: ('A' for Active; 'I' for Inactive)
REMARK    1  A    between atoms: C_1  and  C_2
REMARK    2  A    between atoms: C_2  and  N_3
REMARK    3  A    between atoms: N_3  and  C_4
REMARK    4  A    between atoms: C_4  and  C_5
REMARK    5  A    between atoms: C_4  and  C_6
REMARK    6  A    between atoms: C_4  and  C_7
REMARK    7  A    between atoms: N_9  and  C_10
REMARK    8  A    between atoms: N_9  and  C_11
REMARK    9  A    between atoms: C_11  and  C_12
REMARK   10  A    between atoms: C_15  and  O_16
REMARK   11  A    between atoms: O_16  and  C_17
REMARK                            x       y       z     vdW  Elec       q    Type
REMARK                         _______ _______ _______ _____ _____    ______ ____
ROOT
ATOM      1  C   UNL     1       5.166   6.235  17.720  0.00  0.00    +0.000 C 
ATOM      2  O   UNL     1       4.936   7.163  16.933  0.00  0.00    +0.000 OA
ATOM      3  N   UNL     1       4.114   5.678  18.456  0.00  0.00    +0.000 N 
ATOM      4  C   UNL     1       4.208   4.531  19.351  0.00  0.00    +0.000 C 
ENDROOT
BRANCH   1   5
ATOM      5  C   UNL     1       6.652   5.723  17.866  0.00  0.00    +0.000 C 
ATOM      6  C   UNL     1       6.972   5.532  19.371  0.00  0.00    +0.000 C 
ATOM      7  C   UNL     1       7.657   6.779  17.363  0.00  0.00    +0.000 C 
BRANCH   5   8
ATOM      8  N   UNL     1       6.883   4.433  17.165  0.00  0.00    +0.000 NA
ATOM      9  H   UNL     1       7.648   3.918  17.586  0.00  0.00    +0.000 HD
BRANCH   8  11
ATOM     10  C   UNL     1       5.910   3.955  14.981  0.00  0.00    +0.000 C 
ATOM     11  C   UNL     1       7.103   4.545  15.722  0.00  0.00    +0.000 C 
ENDBRANCH   8  11
ENDBRANCH   5   8
ENDBRANCH   1   5
BRANCH   3  12
ATOM     12  C   UNL     1       2.755   6.027  18.020  0.00  0.00    +0.000 C 
BRANCH  12  13
ATOM     13  C   UNL     1       2.133   7.269  18.629  0.00  0.00    +0.000 A 
ATOM     14  C   UNL     1       1.752   8.398  17.896  0.00  0.00    +0.000 A 
ATOM     15  C   UNL     1       1.260   9.537  18.546  0.00  0.00    +0.000 A 
ATOM     16  C   UNL     1       1.098   9.562  19.935  0.00  0.00    +0.000 A 
ATOM     17  C   UNL     1       1.414   8.413  20.657  0.00  0.00    +0.000 A 
ATOM     18  F   UNL     1       1.255   8.349  21.988  0.00  0.00    +0.000 F 
ATOM     19  C   UNL     1       1.925   7.284  20.017  0.00  0.00    +0.000 A 
BRANCH  16  20
ATOM     20  O   UNL     1       0.631  10.750  20.427  0.00  0.00    +0.000 OA
ATOM     21  C   UNL     1       1.273  11.934  19.966  0.00  0.00    +0.000 C 
ENDBRANCH  16  20
ENDBRANCH  12  13
ENDBRANCH   3  12
TORSDOF 6
ENDMDL
