MODEL 1
REMARK VINA RESULT:      -8.4      0.000      0.000
REMARK  Name = 
REMARK  4 active torsions:
REMARK  status: ('A' for Active; 'I' for Inactive)
REMARK    1  A    between atoms: C_2  and  C_3
REMARK    2  A    between atoms: C_6  and  C_7
REMARK    3  A    between atoms: C_16  and  C_17
REMARK    4  A    between atoms: C_17  and  N_18
REMARK                            x       y       z     vdW  Elec       q    Type
REMARK                         _______ _______ _______ _____ _____    ______ ____
ROOT
ATOM      1  C   UNL     1       1.282   8.090  20.416  0.00  0.00    +0.000 A 
ATOM      2  C   UNL     1       1.360   6.766  20.888  0.00  0.00    +0.000 A 
ATOM      3  C   UNL     1       2.170   5.812  20.270  0.00  0.00    +0.000 A 
ATOM      4  C   UNL     1       2.912   6.151  19.145  0.00  0.00    +0.000 A 
ATOM      5  C   UNL     1       2.846   7.462  18.646  0.00  0.00    +0.000 A 
ATOM      6  C   UNL     1       2.038   8.414  19.273  0.00  0.00    +0.000 A 
ATOM      7  O   UNL     1       3.570   7.896  17.554  0.00  0.00    +0.000 OA
ATOM      8  C   UNL     1       4.711   7.064  17.259  0.00  0.00    +0.000 C 
ATOM      9  C   UNL     1       4.306   5.596  17.225  0.00  0.00    +0.000 C 
ATOM     10  C   UNL     1       5.432   4.590  17.046  0.00  0.00    +0.000 C 
ATOM     11  O   UNL     1       5.279   3.666  18.149  0.00  0.00    +0.000 OA
ATOM     12  C   UNL     1       4.292   4.083  18.991  0.00  0.00    +0.000 C 
ATOM     13  O   UNL     1       4.022   3.490  20.021  0.00  0.00    +0.000 OA
ATOM     14  N   UNL     1       3.751   5.237  18.494  0.00  0.00    +0.000 N 
ENDROOT
BRANCH   1  18
ATOM     15  C   UNL     1      -1.139  11.000  22.346  0.00  0.00    +0.000 A 
ATOM     16  C   UNL     1      -0.610   9.977  23.118  0.00  0.00    +0.000 A 
ATOM     17  C   UNL     1       0.190   9.023  22.489  0.00  0.00    +0.000 A 
ATOM     18  C   UNL     1       0.447   9.092  21.109  0.00  0.00    +0.000 A 
ATOM     19  C   UNL     1      -0.142  10.168  20.440  0.00  0.00    +0.000 A 
ATOM     20  N   UNL     1      -0.919  11.118  21.017  0.00  0.00    +0.000 NA
BRANCH  15  22
ATOM     21  N   UNL     1      -2.621  12.818  23.466  0.00  0.00    +0.000 NA
ATOM     22  C   UNL     1      -1.967  12.011  22.941  0.00  0.00    +0.000 C 
ENDBRANCH  15  22
ENDBRANCH   1  18
BRANCH  10  23
ATOM     23  C   UNL     1       5.294   3.776  15.761  0.00  0.00    +0.000 C 
BRANCH  23  24
ATOM     24  N   UNL     1       6.191   4.264  14.733  0.00  0.00    +0.000 N 
ATOM     25  C   UNL     1       6.242   3.903  13.420  0.00  0.00    +0.000 A 
ATOM     26  C   UNL     1       7.299   4.628  12.925  0.00  0.00    +0.000 A 
ATOM     27  N   UNL     1       7.829   5.396  13.923  0.00  0.00    +0.000 NA
ATOM     28  N   UNL     1       7.140   5.164  15.034  0.00  0.00    +0.000 NA
ENDBRANCH  23  24
ENDBRANCH  10  23
TORSDOF 4
ENDMDL
MODEL 2
REMARK VINA RESULT:      -8.2      0.859      1.152
REMARK  Name = 
REMARK  4 active torsions:
REMARK  status: ('A' for Active; 'I' for Inactive)
REMARK    1  A    between atoms: C_2  and  C_3
REMARK    2  A    between atoms: C_6  and  C_7
REMARK    3  A    between atoms: C_16  and  C_17
REMARK    4  A    between atoms: C_17  and  N_18
REMARK                            x       y       z     vdW  Elec       q    Type
REMARK                         _______ _______ _______ _____ _____    ______ ____
ROOT
ATOM      1  C   UNL     1       1.733   7.872  20.012  0.00  0.00    +0.000 A 
ATOM      2  C   UNL     1       2.020   6.613  20.570  0.00  0.00    +0.000 A 
ATOM      3  C   UNL     1       2.884   5.711  19.946  0.00  0.00    +0.000 A 
ATOM      4  C   UNL     1       3.472   6.037  18.730  0.00  0.00    +0.000 A 
ATOM      5  C   UNL     1       3.196   7.283  18.145  0.00  0.00    +0.000 A 
ATOM      6  C   UNL     1       2.334   8.184  18.777  0.00  0.00    +0.000 A 
ATOM      7  O   UNL     1       3.757   7.704  16.956  0.00  0.00    +0.000 OA
ATOM      8  C   UNL     1       4.962   6.990  16.610  0.00  0.00    +0.000 C 
ATOM      9  C   UNL     1       4.744   5.487  16.726  0.00  0.00    +0.000 C 
ATOM     10  C   UNL     1       5.966   4.610  16.510  0.00  0.00    +0.000 C 
ATOM     11  O   UNL     1       6.033   3.772  17.689  0.00  0.00    +0.000 OA
ATOM     12  C   UNL     1       5.082   4.141  18.592  0.00  0.00    +0.000 C 
ATOM     13  O   UNL     1       4.983   3.611  19.686  0.00  0.00    +0.000 OA
ATOM     14  N   UNL     1       4.356   5.176  18.068  0.00  0.00    +0.000 N 
ENDROOT
BRANCH   1  18
ATOM     15  C   UNL     1      -0.805  10.581  22.080  0.00  0.00    +0.000 A 
ATOM     16  C   UNL     1      -0.571  10.807  20.732  0.00  0.00    +0.000 A 
ATOM     17  C   UNL     1       0.257   9.916  20.048  0.00  0.00    +0.000 A 
ATOM     18  C   UNL     1       0.844   8.825  20.709  0.00  0.00    +0.000 A 
ATOM     19  C   UNL     1       0.534   8.704  22.066  0.00  0.00    +0.000 A 
ATOM     20  N   UNL     1      -0.271   9.544  22.762  0.00  0.00    +0.000 NA
BRANCH  15  22
ATOM     21  N   UNL     1      -2.372  12.167  23.414  0.00  0.00    +0.000 NA
ATOM     22  C   UNL     1      -1.650  11.464  22.832  0.00  0.00    +0.000 C 
ENDBRANCH  15  22
ENDBRANCH   1  18
BRANCH  10  23
ATOM     23  C   UNL     1       5.816   3.677  15.310  0.00  0.00    +0.000 C 
BRANCH  23  24
ATOM     24  N   UNL     1       6.508   4.200  14.149  0.00  0.00    +0.000 N 
ATOM     25  C   UNL     1       6.407   3.791  12.853  0.00  0.00    +0.000 A 
ATOM     26  C   UNL     1       7.310   4.587  12.191  0.00  0.00    +0.000 A 
ATOM     27  N   UNL     1       7.900   5.442  13.080  0.00  0.00    +0.000 NA
ATOM     28  N   UNL     1       7.400   5.194  14.284  0.00  0.00    +0.000 NA
ENDBRANCH  23  24
ENDBRANCH  10  23
TORSDOF 4
ENDMDL
MODEL 3
REMARK VINA RESULT:      -7.9      0.914      1.238
REMARK  Name = 
REMARK  4 active torsions:
REMARK  status: ('A' for Active; 'I' for Inactive)
REMARK    1  A    between atoms: C_2  and  C_3
REMARK    2  A    between atoms: C_6  and  C_7
REMARK    3  A    between atoms: C_16  and  C_17
REMARK    4  A    between atoms: C_17  and  N_18
REMARK                            x       y       z     vdW  Elec       q    Type
REMARK                         _______ _______ _______ _____ _____    ______ ____
ROOT
ATOM      1  C   UNL     1       0.795   8.807  20.636  0.00  0.00    +0.000 A 
ATOM      2  C   UNL     1       0.919   7.528  21.209  0.00  0.00    +0.000 A 
ATOM      3  C   UNL     1       1.724   6.540  20.637  0.00  0.00    +0.000 A 
ATOM      4  C   UNL     1       2.414   6.800  19.460  0.00  0.00    +0.000 A 
ATOM      5  C   UNL     1       2.301   8.065  18.861  0.00  0.00    +0.000 A 
ATOM      6  C   UNL     1       1.498   9.051  19.441  0.00  0.00    +0.000 A 
ATOM      7  O   UNL     1       2.973   8.422  17.709  0.00  0.00    +0.000 OA
ATOM      8  C   UNL     1       4.119   7.589  17.435  0.00  0.00    +0.000 C 
ATOM      9  C   UNL     1       3.743   6.116  17.536  0.00  0.00    +0.000 C 
ATOM     10  C   UNL     1       4.881   5.118  17.393  0.00  0.00    +0.000 C 
ATOM     11  O   UNL     1       4.791   4.284  18.572  0.00  0.00    +0.000 OA
ATOM     12  C   UNL     1       3.830   4.751  19.417  0.00  0.00    +0.000 C 
ATOM     13  O   UNL     1       3.612   4.239  20.502  0.00  0.00    +0.000 OA
ATOM     14  N   UNL     1       3.245   5.851  18.852  0.00  0.00    +0.000 N 
ENDROOT
BRANCH   1  18
ATOM     15  C   UNL     1      -1.565  11.777  22.552  0.00  0.00    +0.000 A 
ATOM     16  C   UNL     1      -1.434  11.838  21.173  0.00  0.00    +0.000 A 
ATOM     17  C   UNL     1      -0.665  10.861  20.540  0.00  0.00    +0.000 A 
ATOM     18  C   UNL     1      -0.034   9.848  21.280  0.00  0.00    +0.000 A 
ATOM     19  C   UNL     1      -0.240   9.892  22.661  0.00  0.00    +0.000 A 
ATOM     20  N   UNL     1      -0.985  10.820  23.311  0.00  0.00    +0.000 NA
BRANCH  15  22
ATOM     21  N   UNL     1      -3.000  13.558  23.784  0.00  0.00    +0.000 NA
ATOM     22  C   UNL     1      -2.347  12.754  23.255  0.00  0.00    +0.000 C 
ENDBRANCH  15  22
ENDBRANCH   1  18
BRANCH  10  23
ATOM     23  C   UNL     1       4.711   4.200  16.184  0.00  0.00    +0.000 C 
BRANCH  23  24
ATOM     24  N   UNL     1       5.729   4.454  15.185  0.00  0.00    +0.000 N 
ATOM     25  C   UNL     1       5.844   3.906  13.943  0.00  0.00    +0.000 A 
ATOM     26  C   UNL     1       7.004   4.455  13.452  0.00  0.00    +0.000 A 
ATOM     27  N   UNL     1       7.531   5.308  14.382  0.00  0.00    +0.000 NA
ATOM     28  N   UNL     1       6.738   5.299  15.447  0.00  0.00    +0.000 NA
ENDBRANCH  23  24
ENDBRANCH  10  23
TORSDOF 4
ENDMDL
MODEL 4
REMARK VINA RESULT:      -7.6      1.043      1.110
REMARK  Name = 
REMARK  4 active torsions:
REMARK  status: ('A' for Active; 'I' for Inactive)
REMARK    1  A    between atoms: C_2  and  C_3
REMARK    2  A    between atoms: C_6  and  C_7
REMARK    3  A    between atoms: C_16  and  C_17
REMARK    4  A    between atoms: C_17  and  N_18
REMARK                            x       y       z     vdW  Elec       q    Type
REMARK                         _______ _______ _______ _____ _____    ______ ____
ROOT
ATOM      1  C   UNL     1       1.608   8.447  19.409  0.00  0.00    +0.000 A 
ATOM      2  C   UNL     1       1.786   7.236  20.103  0.00  0.00    +0.000 A 
ATOM      3  C   UNL     1       2.664   6.249  19.649  0.00  0.00    +0.000 A 
ATOM      4  C   UNL     1       3.376   6.440  18.471  0.00  0.00    +0.000 A 
ATOM      5  C   UNL     1       3.211   7.634  17.752  0.00  0.00    +0.000 A 
ATOM      6  C   UNL     1       2.335   8.620  18.215  0.00  0.00    +0.000 A 
ATOM      7  O   UNL     1       3.898   7.922  16.589  0.00  0.00    +0.000 OA
ATOM      8  C   UNL     1       5.097   7.137  16.426  0.00  0.00    +0.000 C 
ATOM      9  C   UNL     1       4.803   5.660  16.656  0.00  0.00    +0.000 C 
ATOM     10  C   UNL     1       6.000   4.723  16.638  0.00  0.00    +0.000 C 
ATOM     11  O   UNL     1       5.920   3.998  17.888  0.00  0.00    +0.000 OA
ATOM     12  C   UNL     1       4.907   4.483  18.659  0.00  0.00    +0.000 C 
ATOM     13  O   UNL     1       4.684   4.062  19.781  0.00  0.00    +0.000 OA
ATOM     14  N   UNL     1       4.279   5.490  17.977  0.00  0.00    +0.000 N 
ENDROOT
BRANCH   1  18
ATOM     15  C   UNL     1      -1.036  11.448  20.844  0.00  0.00    +0.000 A 
ATOM     16  C   UNL     1      -0.120  10.907  21.733  0.00  0.00    +0.000 A 
ATOM     17  C   UNL     1       0.754   9.926  21.264  0.00  0.00    +0.000 A 
ATOM     18  C   UNL     1       0.702   9.491  19.929  0.00  0.00    +0.000 A 
ATOM     19  C   UNL     1      -0.264  10.110  19.131  0.00  0.00    +0.000 A 
ATOM     20  N   UNL     1      -1.125  11.071  19.549  0.00  0.00    +0.000 NA
BRANCH  15  22
ATOM     21  N   UNL     1      -2.735  13.250  21.627  0.00  0.00    +0.000 NA
ATOM     22  C   UNL     1      -1.957  12.462  21.271  0.00  0.00    +0.000 C 
ENDBRANCH  15  22
ENDBRANCH   1  18
BRANCH  10  23
ATOM     23  C   UNL     1       5.920   3.689  15.518  0.00  0.00    +0.000 C 
BRANCH  23  24
ATOM     24  N   UNL     1       6.537   4.183  14.303  0.00  0.00    +0.000 N 
ATOM     25  C   UNL     1       6.332   3.761  13.023  0.00  0.00    +0.000 A 
ATOM     26  C   UNL     1       7.201   4.529  12.286  0.00  0.00    +0.000 A 
ATOM     27  N   UNL     1       7.873   5.380  13.118  0.00  0.00    +0.000 NA
ATOM     28  N   UNL     1       7.457   5.158  14.359  0.00  0.00    +0.000 NA
ENDBRANCH  23  24
ENDBRANCH  10  23
TORSDOF 4
ENDMDL
MODEL 5
REMARK VINA RESULT:      -7.5      4.003     10.335
REMARK  Name = 
REMARK  4 active torsions:
REMARK  status: ('A' for Active; 'I' for Inactive)
REMARK    1  A    between atoms: C_2  and  C_3
REMARK    2  A    between atoms: C_6  and  C_7
REMARK    3  A    between atoms: C_16  and  C_17
REMARK    4  A    between atoms: C_17  and  N_18
REMARK                            x       y       z     vdW  Elec       q    Type
REMARK                         _______ _______ _______ _____ _____    ______ ____
ROOT
ATOM      1  C   UNL     1       1.561   7.697  20.118  0.00  0.00    +0.000 A 
ATOM      2  C   UNL     1       1.660   8.590  19.035  0.00  0.00    +0.000 A 
ATOM      3  C   UNL     1       1.062   9.851  19.064  0.00  0.00    +0.000 A 
ATOM      4  C   UNL     1       0.329  10.249  20.176  0.00  0.00    +0.000 A 
ATOM      5  C   UNL     1       0.205   9.375  21.267  0.00  0.00    +0.000 A 
ATOM      6  C   UNL     1       0.811   8.115  21.234  0.00  0.00    +0.000 A 
ATOM      7  O   UNL     1      -0.478   9.696  22.423  0.00  0.00    +0.000 OA
ATOM      8  C   UNL     1      -0.651  11.116  22.608  0.00  0.00    +0.000 C 
ATOM      9  C   UNL     1      -1.194  11.756  21.336  0.00  0.00    +0.000 C 
ATOM     10  C   UNL     1      -1.312  13.272  21.342  0.00  0.00    +0.000 C 
ATOM     11  O   UNL     1      -0.589  13.703  20.164  0.00  0.00    +0.000 OA
ATOM     12  C   UNL     1       0.019  12.643  19.560  0.00  0.00    +0.000 C 
ATOM     13  O   UNL     1       0.731  12.773  18.579  0.00  0.00    +0.000 OA
ATOM     14  N   UNL     1      -0.279  11.507  20.263  0.00  0.00    +0.000 N 
ENDROOT
BRANCH   1  18
ATOM     15  C   UNL     1       3.550   3.945  19.972  0.00  0.00    +0.000 A 
ATOM     16  C   UNL     1       2.394   4.040  20.730  0.00  0.00    +0.000 A 
ATOM     17  C   UNL     1       1.734   5.269  20.776  0.00  0.00    +0.000 A 
ATOM     18  C   UNL     1       2.234   6.382  20.079  0.00  0.00    +0.000 A 
ATOM     19  C   UNL     1       3.406   6.162  19.352  0.00  0.00    +0.000 A 
ATOM     20  N   UNL     1       4.071   4.982  19.278  0.00  0.00    +0.000 NA
BRANCH  15  22
ATOM     21  N   UNL     1       4.885   1.722  19.794  0.00  0.00    +0.000 NA
ATOM     22  C   UNL     1       4.268   2.705  19.887  0.00  0.00    +0.000 C 
ENDBRANCH  15  22
ENDBRANCH   1  18
BRANCH  10  23
ATOM     23  C   UNL     1      -2.753  13.750  21.179  0.00  0.00    +0.000 C 
BRANCH  23  24
ATOM     24  N   UNL     1      -3.568  13.352  22.309  0.00  0.00    +0.000 N 
ATOM     25  C   UNL     1      -3.395  13.665  23.624  0.00  0.00    +0.000 A 
ATOM     26  C   UNL     1      -4.412  12.991  24.255  0.00  0.00    +0.000 A 
ATOM     27  N   UNL     1      -5.158  12.323  23.325  0.00  0.00    +0.000 NA
ATOM     28  N   UNL     1      -4.629  12.551  22.129  0.00  0.00    +0.000 NA
ENDBRANCH  23  24
ENDBRANCH  10  23
TORSDOF 4
ENDMDL
MODEL 6
REMARK VINA RESULT:      -7.4      2.893     10.419
REMARK  Name = 
REMARK  4 active torsions:
REMARK  status: ('A' for Active; 'I' for Inactive)
REMARK    1  A    between atoms: C_2  and  C_3
REMARK    2  A    between atoms: C_6  and  C_7
REMARK    3  A    between atoms: C_16  and  C_17
REMARK    4  A    between atoms: C_17  and  N_18
REMARK                            x       y       z     vdW  Elec       q    Type
REMARK                         _______ _______ _______ _____ _____    ______ ____
ROOT
ATOM      1  C   UNL     1       2.181   7.867  19.059  0.00  0.00    +0.000 A 
ATOM      2  C   UNL     1       1.946   7.660  20.431  0.00  0.00    +0.000 A 
ATOM      3  C   UNL     1       1.196   8.559  21.192  0.00  0.00    +0.000 A 
ATOM      4  C   UNL     1       0.675   9.705  20.604  0.00  0.00    +0.000 A 
ATOM      5  C   UNL     1       0.902   9.942  19.239  0.00  0.00    +0.000 A 
ATOM      6  C   UNL     1       1.649   9.036  18.481  0.00  0.00    +0.000 A 
ATOM      7  O   UNL     1       0.399  11.036  18.564  0.00  0.00    +0.000 OA
ATOM      8  C   UNL     1      -0.724  11.650  19.230  0.00  0.00    +0.000 C 
ATOM      9  C   UNL     1      -0.407  11.886  20.702  0.00  0.00    +0.000 C 
ATOM     10  C   UNL     1      -1.544  12.417  21.560  0.00  0.00    +0.000 C 
ATOM     11  O   UNL     1      -1.635  11.488  22.667  0.00  0.00    +0.000 OA
ATOM     12  C   UNL     1      -0.780  10.442  22.487  0.00  0.00    +0.000 C 
ATOM     13  O   UNL     1      -0.723   9.507  23.266  0.00  0.00    +0.000 OA
ATOM     14  N   UNL     1      -0.095  10.632  21.317  0.00  0.00    +0.000 N 
ENDROOT
BRANCH   1  18
ATOM     15  C   UNL     1       4.429   5.088  16.761  0.00  0.00    +0.000 A 
ATOM     16  C   UNL     1       3.386   4.601  17.534  0.00  0.00    +0.000 A 
ATOM     17  C   UNL     1       2.642   5.511  18.285  0.00  0.00    +0.000 A 
ATOM     18  C   UNL     1       2.946   6.883  18.265  0.00  0.00    +0.000 A 
ATOM     19  C   UNL     1       4.019   7.251  17.449  0.00  0.00    +0.000 A 
ATOM     20  N   UNL     1       4.761   6.397  16.700  0.00  0.00    +0.000 NA
BRANCH  15  22
ATOM     21  N   UNL     1       5.907   3.510  15.319  0.00  0.00    +0.000 NA
ATOM     22  C   UNL     1       5.226   4.198  15.966  0.00  0.00    +0.000 C 
ENDBRANCH  15  22
ENDBRANCH   1  18
BRANCH  10  23
ATOM     23  C   UNL     1      -1.241  13.790  22.155  0.00  0.00    +0.000 C 
BRANCH  23  24
ATOM     24  N   UNL     1      -2.259  14.185  23.107  0.00  0.00    +0.000 N 
ATOM     25  C   UNL     1      -3.597  14.335  22.895  0.00  0.00    +0.000 A 
ATOM     26  C   UNL     1      -4.071  14.768  24.110  0.00  0.00    +0.000 A 
ATOM     27  N   UNL     1      -3.036  14.846  24.999  0.00  0.00    +0.000 NA
ATOM     28  N   UNL     1      -1.924  14.486  24.371  0.00  0.00    +0.000 NA
ENDBRANCH  23  24
ENDBRANCH  10  23
TORSDOF 4
ENDMDL
MODEL 7
REMARK VINA RESULT:      -7.4      2.601     10.536
REMARK  Name = 
REMARK  4 active torsions:
REMARK  status: ('A' for Active; 'I' for Inactive)
REMARK    1  A    between atoms: C_2  and  C_3
REMARK    2  A    between atoms: C_6  and  C_7
REMARK    3  A    between atoms: C_16  and  C_17
REMARK    4  A    between atoms: C_17  and  N_18
REMARK                            x       y       z     vdW  Elec       q    Type
REMARK                         _______ _______ _______ _____ _____    ______ ____
ROOT
ATOM      1  C   UNL     1       2.202   7.982  18.770  0.00  0.00    +0.000 A 
ATOM      2  C   UNL     1       1.759   9.143  18.110  0.00  0.00    +0.000 A 
ATOM      3  C   UNL     1       1.001  10.117  18.764  0.00  0.00    +0.000 A 
ATOM      4  C   UNL     1       0.647   9.945  20.096  0.00  0.00    +0.000 A 
ATOM      5  C   UNL     1       1.066   8.791  20.777  0.00  0.00    +0.000 A 
ATOM      6  C   UNL     1       1.829   7.823  20.119  0.00  0.00    +0.000 A 
ATOM      7  O   UNL     1       0.786   8.551  22.108  0.00  0.00    +0.000 OA
ATOM      8  C   UNL     1       0.445   9.744  22.844  0.00  0.00    +0.000 C 
ATOM      9  C   UNL     1      -0.610  10.549  22.095  0.00  0.00    +0.000 C 
ATOM     10  C   UNL     1      -0.978  11.897  22.693  0.00  0.00    +0.000 C 
ATOM     11  O   UNL     1      -0.800  12.842  21.611  0.00  0.00    +0.000 OA
ATOM     12  C   UNL     1      -0.268  12.224  20.519  0.00  0.00    +0.000 C 
ATOM     13  O   UNL     1       0.021  12.833  19.503  0.00  0.00    +0.000 OA
ATOM     14  N   UNL     1      -0.101  10.896  20.803  0.00  0.00    +0.000 N 
ENDROOT
BRANCH   1  18
ATOM     15  C   UNL     1       4.643   5.161  16.735  0.00  0.00    +0.000 A 
ATOM     16  C   UNL     1       3.575   4.682  17.479  0.00  0.00    +0.000 A 
ATOM     17  C   UNL     1       2.768   5.606  18.143  0.00  0.00    +0.000 A 
ATOM     18  C   UNL     1       3.034   6.983  18.068  0.00  0.00    +0.000 A 
ATOM     19  C   UNL     1       4.137   7.342  17.289  0.00  0.00    +0.000 A 
ATOM     20  N   UNL     1       4.940   6.476  16.623  0.00  0.00    +0.000 NA
BRANCH  15  22
ATOM     21  N   UNL     1       6.181   3.536  15.415  0.00  0.00    +0.000 NA
ATOM     22  C   UNL     1       5.505   4.257  16.028  0.00  0.00    +0.000 C 
ENDBRANCH  15  22
ENDBRANCH   1  18
BRANCH  10  23
ATOM     23  C   UNL     1      -2.444  11.973  23.112  0.00  0.00    +0.000 C 
BRANCH  23  24
ATOM     24  N   UNL     1      -2.858  13.346  23.326  0.00  0.00    +0.000 N 
ATOM     25  C   UNL     1      -2.336  14.256  24.196  0.00  0.00    +0.000 A 
ATOM     26  C   UNL     1      -3.130  15.364  24.021  0.00  0.00    +0.000 A 
ATOM     27  N   UNL     1      -4.070  15.101  23.064  0.00  0.00    +0.000 NA
ATOM     28  N   UNL     1      -3.895  13.855  22.643  0.00  0.00    +0.000 NA
ENDBRANCH  23  24
ENDBRANCH  10  23
TORSDOF 4
ENDMDL
MODEL 8
REMARK VINA RESULT:      -7.3      1.124      1.315
REMARK  Name = 
REMARK  4 active torsions:
REMARK  status: ('A' for Active; 'I' for Inactive)
REMARK    1  A    between atoms: C_2  and  C_3
REMARK    2  A    between atoms: C_6  and  C_7
REMARK    3  A    between atoms: C_16  and  C_17
REMARK    4  A    between atoms: C_17  and  N_18
REMARK                            x       y       z     vdW  Elec       q    Type
REMARK                         _______ _______ _______ _____ _____    ______ ____
ROOT
ATOM      1  C   UNL     1       0.647   8.966  20.568  0.00  0.00    +0.000 A 
ATOM      2  C   UNL     1       0.735   7.721  21.220  0.00  0.00    +0.000 A 
ATOM      3  C   UNL     1       1.529   6.686  20.724  0.00  0.00    +0.000 A 
ATOM      4  C   UNL     1       2.246   6.860  19.547  0.00  0.00    +0.000 A 
ATOM      5  C   UNL     1       2.169   8.088  18.870  0.00  0.00    +0.000 A 
ATOM      6  C   UNL     1       1.376   9.123  19.374  0.00  0.00    +0.000 A 
ATOM      7  O   UNL     1       2.868   8.361  17.711  0.00  0.00    +0.000 OA
ATOM      8  C   UNL     1       4.002   7.491  17.510  0.00  0.00    +0.000 C 
ATOM      9  C   UNL     1       3.595   6.034  17.693  0.00  0.00    +0.000 C 
ATOM     10  C   UNL     1       4.715   5.009  17.632  0.00  0.00    +0.000 C 
ATOM     11  O   UNL     1       4.587   4.249  18.858  0.00  0.00    +0.000 OA
ATOM     12  C   UNL     1       3.620   4.785  19.655  0.00  0.00    +0.000 C 
ATOM     13  O   UNL     1       3.373   4.345  20.764  0.00  0.00    +0.000 OA
ATOM     14  N   UNL     1       3.068   5.860  19.013  0.00  0.00    +0.000 N 
ENDROOT
BRANCH   1  18
ATOM     15  C   UNL     1      -1.723  12.131  22.123  0.00  0.00    +0.000 A 
ATOM     16  C   UNL     1      -1.235  11.186  23.012  0.00  0.00    +0.000 A 
ATOM     17  C   UNL     1      -0.451  10.149  22.506  0.00  0.00    +0.000 A 
ATOM     18  C   UNL     1      -0.172  10.059  21.132  0.00  0.00    +0.000 A 
ATOM     19  C   UNL     1      -0.720  11.069  20.338  0.00  0.00    +0.000 A 
ATOM     20  N   UNL     1      -1.480  12.096  20.793  0.00  0.00    +0.000 NA
BRANCH  15  22
ATOM     21  N   UNL     1      -3.174  14.131  22.928  0.00  0.00    +0.000 NA
ATOM     22  C   UNL     1      -2.533  13.222  22.588  0.00  0.00    +0.000 C 
ENDBRANCH  15  22
ENDBRANCH   1  18
BRANCH  10  23
ATOM     23  C   UNL     1       4.547   4.022  16.479  0.00  0.00    +0.000 C 
BRANCH  23  24
ATOM     24  N   UNL     1       5.563   4.223  15.465  0.00  0.00    +0.000 N 
ATOM     25  C   UNL     1       6.804   4.767  15.613  0.00  0.00    +0.000 A 
ATOM     26  C   UNL     1       7.315   4.760  14.338  0.00  0.00    +0.000 A 
ATOM     27  N   UNL     1       6.399   4.211  13.485  0.00  0.00    +0.000 NA
ATOM     28  N   UNL     1       5.322   3.884  14.189  0.00  0.00    +0.000 NA
ENDBRANCH  23  24
ENDBRANCH  10  23
TORSDOF 4
ENDMDL
MODEL 9
REMARK VINA RESULT:      -7.2      3.148      9.586
REMARK  Name = 
REMARK  4 active torsions:
REMARK  status: ('A' for Active; 'I' for Inactive)
REMARK    1  A    between atoms: C_2  and  C_3
REMARK    2  A    between atoms: C_6  and  C_7
REMARK    3  A    between atoms: C_16  and  C_17
REMARK    4  A    between atoms: C_17  and  N_18
REMARK                            x       y       z     vdW  Elec       q    Type
REMARK                         _______ _______ _______ _____ _____    ______ ____
ROOT
ATOM      1  C   UNL     1       1.943   8.114  19.151  0.00  0.00    +0.000 A 
ATOM      2  C   UNL     1       1.881   8.088  20.556  0.00  0.00    +0.000 A 
ATOM      3  C   UNL     1       1.120   9.011  21.276  0.00  0.00    +0.000 A 
ATOM      4  C   UNL     1       0.413  10.003  20.608  0.00  0.00    +0.000 A 
ATOM      5  C   UNL     1       0.465  10.060  19.206  0.00  0.00    +0.000 A 
ATOM      6  C   UNL     1       1.224   9.129  18.491  0.00  0.00    +0.000 A 
ATOM      7  O   UNL     1      -0.227  10.990  18.458  0.00  0.00    +0.000 OA
ATOM      8  C   UNL     1      -1.334  11.583  19.167  0.00  0.00    +0.000 C 
ATOM      9  C   UNL     1      -0.891  12.061  20.545  0.00  0.00    +0.000 C 
ATOM     10  C   UNL     1      -1.982  12.598  21.456  0.00  0.00    +0.000 C 
ATOM     11  O   UNL     1      -1.849  11.837  22.680  0.00  0.00    +0.000 OA
ATOM     12  C   UNL     1      -0.906  10.863  22.538  0.00  0.00    +0.000 C 
ATOM     13  O   UNL     1      -0.661  10.061  23.423  0.00  0.00    +0.000 OA
ATOM     14  N   UNL     1      -0.375  10.945  21.280  0.00  0.00    +0.000 N 
ENDROOT
BRANCH   1  18
ATOM     15  C   UNL     1       4.240   5.258  17.001  0.00  0.00    +0.000 A 
ATOM     16  C   UNL     1       3.172   4.800  17.755  0.00  0.00    +0.000 A 
ATOM     17  C   UNL     1       2.411   5.735  18.458  0.00  0.00    +0.000 A 
ATOM     18  C   UNL     1       2.725   7.103  18.409  0.00  0.00    +0.000 A 
ATOM     19  C   UNL     1       3.824   7.441  17.616  0.00  0.00    +0.000 A 
ATOM     20  N   UNL     1       4.583   6.563  16.914  0.00  0.00    +0.000 NA
BRANCH  15  22
ATOM     21  N   UNL     1       5.745   3.594  15.690  0.00  0.00    +0.000 NA
ATOM     22  C   UNL     1       5.055   4.341  16.256  0.00  0.00    +0.000 C 
ENDBRANCH  15  22
ENDBRANCH   1  18
BRANCH  10  23
ATOM     23  C   UNL     1      -1.774  14.066  21.821  0.00  0.00    +0.000 C 
BRANCH  23  24
ATOM     24  N   UNL     1      -0.394  14.464  21.628  0.00  0.00    +0.000 N 
ATOM     25  C   UNL     1       0.164  15.066  20.540  0.00  0.00    +0.000 A 
ATOM     26  C   UNL     1       1.494  15.165  20.872  0.00  0.00    +0.000 A 
ATOM     27  N   UNL     1       1.689  14.650  22.122  0.00  0.00    +0.000 NA
ATOM     28  N   UNL     1       0.520  14.219  22.579  0.00  0.00    +0.000 NA
ENDBRANCH  23  24
ENDBRANCH  10  23
TORSDOF 4
ENDMDL
