MODEL 1
REMARK VINA RESULT:      -6.6      0.000      0.000
REMARK  Name = 
REMARK  5 active torsions:
REMARK  status: ('A' for Active; 'I' for Inactive)
REMARK    1  A    between atoms: C_1  and  C_2
REMARK    2  A    between atoms: C_4  and  C_5
REMARK    3  A    between atoms: N_6  and  C_7
REMARK    4  A    between atoms: C_12  and  C_14
REMARK    5  A    between atoms: N_17  and  C_18
REMARK                            x       y       z     vdW  Elec       q    Type
REMARK                         _______ _______ _______ _____ _____    ______ ____
ROOT
ATOM      1  C   UNL     1       3.176   6.017  19.456  0.00  0.00    +0.000 C 
ATOM      2  C   UNL     1       2.611   7.092  18.503  0.00  0.00    +0.000 C 
ATOM      3  C   UNL     1       3.324   7.177  17.151  0.00  0.00    +0.000 C 
ATOM      4  C   UNL     1       4.849   7.136  17.309  0.00  0.00    +0.000 C 
ATOM      5  N   UNL     1       5.235   5.942  18.047  0.00  0.00    +0.000 N 
ATOM      6  C   UNL     1       5.778   4.764  17.549  0.00  0.00    +0.000 C 
ATOM      7  O   UNL     1       6.082   3.836  18.307  0.00  0.00    +0.000 OA
ATOM      8  C   UNL     1       4.717   5.943  19.420  0.00  0.00    +0.000 C 
ENDROOT
BRANCH   6   9
ATOM      9  C   UNL     1       6.080   4.602  16.078  0.00  0.00    +0.000 A 
ATOM     10  C   UNL     1       5.408   3.681  15.191  0.00  0.00    +0.000 A 
ATOM     11  C   UNL     1       5.710   3.628  13.890  0.00  0.00    +0.000 A 
ATOM     12  N   UNL     1       6.734   4.385  13.369  0.00  0.00    +0.000 N 
ATOM     13  C   UNL     1       7.092   4.246  11.970  0.00  0.00    +0.000 C 
ATOM     14  C   UNL     1       7.535   5.195  14.176  0.00  0.00    +0.000 A 
ATOM     15  O   UNL     1       8.517   5.813  13.775  0.00  0.00    +0.000 OA
ATOM     16  C   UNL     1       7.135   5.292  15.607  0.00  0.00    +0.000 A 
ENDBRANCH   6   9
BRANCH   1  22
ATOM     17  C   UNL     1       2.681   1.793  17.243  0.00  0.00    +0.000 C 
ATOM     18  C   UNL     1       2.520   2.789  18.328  0.00  0.00    +0.000 A 
ATOM     19  C   UNL     1       2.332   2.539  19.704  0.00  0.00    +0.000 A 
ATOM     20  C   UNL     1       2.368   3.777  20.308  0.00  0.00    +0.000 A 
ATOM     21  C   UNL     1       2.291   4.144  21.743  0.00  0.00    +0.000 C 
ATOM     22  N   UNL     1       2.622   4.673  19.290  0.00  0.00    +0.000 N 
ATOM     23  N   UNL     1       2.590   4.101  18.069  0.00  0.00    +0.000 NA
ENDBRANCH   1  22
TORSDOF 2
ENDMDL
MODEL 2
REMARK VINA RESULT:      -6.5      3.102      5.959
REMARK  Name = 
REMARK  5 active torsions:
REMARK  status: ('A' for Active; 'I' for Inactive)
REMARK    1  A    between atoms: C_1  and  C_2
REMARK    2  A    between atoms: C_4  and  C_5
REMARK    3  A    between atoms: N_6  and  C_7
REMARK    4  A    between atoms: C_12  and  C_14
REMARK    5  A    between atoms: N_17  and  C_18
REMARK                            x       y       z     vdW  Elec       q    Type
REMARK                         _______ _______ _______ _____ _____    ______ ____
ROOT
ATOM      1  C   UNL     1       5.146   3.837  18.000  0.00  0.00    +0.000 C 
ATOM      2  C   UNL     1       6.267   4.797  18.452  0.00  0.00    +0.000 C 
ATOM      3  C   UNL     1       5.815   6.246  18.657  0.00  0.00    +0.000 C 
ATOM      4  C   UNL     1       4.922   6.730  17.509  0.00  0.00    +0.000 C 
ATOM      5  N   UNL     1       3.788   5.829  17.354  0.00  0.00    +0.000 N 
ATOM      6  C   UNL     1       2.475   6.026  17.764  0.00  0.00    +0.000 C 
ATOM      7  O   UNL     1       1.608   5.174  17.540  0.00  0.00    +0.000 OA
ATOM      8  C   UNL     1       4.200   4.476  16.962  0.00  0.00    +0.000 C 
ENDROOT
BRANCH   6   9
ATOM      9  C   UNL     1       2.049   7.311  18.434  0.00  0.00    +0.000 A 
ATOM     10  C   UNL     1       1.888   8.580  17.763  0.00  0.00    +0.000 A 
ATOM     11  C   UNL     1       1.467   9.663  18.424  0.00  0.00    +0.000 A 
ATOM     12  N   UNL     1       1.262   9.628  19.785  0.00  0.00    +0.000 N 
ATOM     13  C   UNL     1       0.885  10.840  20.487  0.00  0.00    +0.000 C 
ATOM     14  C   UNL     1       1.532   8.486  20.540  0.00  0.00    +0.000 A 
ATOM     15  O   UNL     1       1.456   8.435  21.765  0.00  0.00    +0.000 OA
ATOM     16  C   UNL     1       1.930   7.273  19.773  0.00  0.00    +0.000 A 
ENDBRANCH   6   9
BRANCH   1  22
ATOM     17  C   UNL     1       2.042   3.957  21.651  0.00  0.00    +0.000 C 
ATOM     18  C   UNL     1       2.901   3.339  20.615  0.00  0.00    +0.000 A 
ATOM     19  C   UNL     1       2.731   2.085  19.992  0.00  0.00    +0.000 A 
ATOM     20  C   UNL     1       3.705   2.025  19.018  0.00  0.00    +0.000 A 
ATOM     21  C   UNL     1       3.979   0.980  18.002  0.00  0.00    +0.000 C 
ATOM     22  N   UNL     1       4.353   3.241  19.076  0.00  0.00    +0.000 N 
ATOM     23  N   UNL     1       3.959   3.996  20.123  0.00  0.00    +0.000 NA
ENDBRANCH   1  22
TORSDOF 2
ENDMDL
MODEL 3
REMARK VINA RESULT:      -6.3      6.036      8.322
REMARK  Name = 
REMARK  5 active torsions:
REMARK  status: ('A' for Active; 'I' for Inactive)
REMARK    1  A    between atoms: C_1  and  C_2
REMARK    2  A    between atoms: C_4  and  C_5
REMARK    3  A    between atoms: N_6  and  C_7
REMARK    4  A    between atoms: C_12  and  C_14
REMARK    5  A    between atoms: N_17  and  C_18
REMARK                            x       y       z     vdW  Elec       q    Type
REMARK                         _______ _______ _______ _____ _____    ______ ____
ROOT
ATOM      1  C   UNL     1      -0.889  13.243  19.752  0.00  0.00    +0.000 C 
ATOM      2  C   UNL     1       0.285  13.879  18.977  0.00  0.00    +0.000 C 
ATOM      3  C   UNL     1       1.446  12.921  18.689  0.00  0.00    +0.000 C 
ATOM      4  C   UNL     1       1.812  12.087  19.922  0.00  0.00    +0.000 C 
ATOM      5  N   UNL     1       0.635  11.376  20.402  0.00  0.00    +0.000 N 
ATOM      6  C   UNL     1       0.316  10.034  20.235  0.00  0.00    +0.000 C 
ATOM      7  O   UNL     1      -0.717   9.563  20.726  0.00  0.00    +0.000 OA
ATOM      8  C   UNL     1      -0.416  12.289  20.868  0.00  0.00    +0.000 C 
ENDROOT
BRANCH   6   9
ATOM      9  C   UNL     1       1.247   9.093  19.509  0.00  0.00    +0.000 A 
ATOM     10  C   UNL     1       1.668   9.240  18.135  0.00  0.00    +0.000 A 
ATOM     11  C   UNL     1       2.528   8.381  17.579  0.00  0.00    +0.000 A 
ATOM     12  N   UNL     1       2.972   7.275  18.269  0.00  0.00    +0.000 N 
ATOM     13  C   UNL     1       3.841   6.318  17.612  0.00  0.00    +0.000 C 
ATOM     14  C   UNL     1       2.506   6.972  19.550  0.00  0.00    +0.000 A 
ATOM     15  O   UNL     1       2.798   5.950  20.166  0.00  0.00    +0.000 OA
ATOM     16  C   UNL     1       1.606   7.979  20.175  0.00  0.00    +0.000 A 
ENDBRANCH   6   9
BRANCH   1  22
ATOM     17  C   UNL     1      -2.387   9.987  16.568  0.00  0.00    +0.000 C 
ATOM     18  C   UNL     1      -2.517  11.044  17.598  0.00  0.00    +0.000 A 
ATOM     19  C   UNL     1      -3.592  11.253  18.487  0.00  0.00    +0.000 A 
ATOM     20  C   UNL     1      -3.183  12.268  19.324  0.00  0.00    +0.000 A 
ATOM     21  C   UNL     1      -3.861  12.875  20.495  0.00  0.00    +0.000 C 
ATOM     22  N   UNL     1      -1.895  12.568  18.931  0.00  0.00    +0.000 N 
ATOM     23  N   UNL     1      -1.526  11.921  17.806  0.00  0.00    +0.000 NA
ENDBRANCH   1  22
TORSDOF 2
ENDMDL
MODEL 4
REMARK VINA RESULT:      -6.1      8.477     11.093
REMARK  Name = 
REMARK  5 active torsions:
REMARK  status: ('A' for Active; 'I' for Inactive)
REMARK    1  A    between atoms: C_1  and  C_2
REMARK    2  A    between atoms: C_4  and  C_5
REMARK    3  A    between atoms: N_6  and  C_7
REMARK    4  A    between atoms: C_12  and  C_14
REMARK    5  A    between atoms: N_17  and  C_18
REMARK                            x       y       z     vdW  Elec       q    Type
REMARK                         _______ _______ _______ _____ _____    ______ ____
ROOT
ATOM      1  C   UNL     1       1.008  12.244  20.534  0.00  0.00    +0.000 C 
ATOM      2  C   UNL     1       0.841  13.748  20.224  0.00  0.00    +0.000 C 
ATOM      3  C   UNL     1      -0.367  14.082  19.344  0.00  0.00    +0.000 C 
ATOM      4  C   UNL     1      -0.487  13.122  18.155  0.00  0.00    +0.000 C 
ATOM      5  N   UNL     1      -0.536  11.748  18.637  0.00  0.00    +0.000 N 
ATOM      6  C   UNL     1      -1.645  10.918  18.749  0.00  0.00    +0.000 C 
ATOM      7  O   UNL     1      -1.526   9.756  19.155  0.00  0.00    +0.000 OA
ATOM      8  C   UNL     1       0.703  11.350  19.314  0.00  0.00    +0.000 C 
ENDROOT
BRANCH   6   9
ATOM      9  C   UNL     1      -3.016  11.380  18.318  0.00  0.00    +0.000 A 
ATOM     10  C   UNL     1      -3.518  11.331  16.964  0.00  0.00    +0.000 A 
ATOM     11  C   UNL     1      -4.762  11.725  16.673  0.00  0.00    +0.000 A 
ATOM     12  N   UNL     1      -5.574  12.277  17.637  0.00  0.00    +0.000 N 
ATOM     13  C   UNL     1      -6.889  12.771  17.274  0.00  0.00    +0.000 C 
ATOM     14  C   UNL     1      -5.124  12.500  18.939  0.00  0.00    +0.000 A 
ATOM     15  O   UNL     1      -5.777  13.075  19.807  0.00  0.00    +0.000 OA
ATOM     16  C   UNL     1      -3.763  11.987  19.257  0.00  0.00    +0.000 A 
ENDBRANCH   6   9
BRANCH   1  22
ATOM     17  C   UNL     1      -2.798  12.012  23.438  0.00  0.00    +0.000 C 
ATOM     18  C   UNL     1      -1.484  11.615  22.883  0.00  0.00    +0.000 A 
ATOM     19  C   UNL     1      -0.892  10.335  22.902  0.00  0.00    +0.000 A 
ATOM     20  C   UNL     1       0.258  10.452  22.153  0.00  0.00    +0.000 A 
ATOM     21  C   UNL     1       1.257   9.426  21.765  0.00  0.00    +0.000 C 
ATOM     22  N   UNL     1       0.263  11.753  21.693  0.00  0.00    +0.000 N 
ATOM     23  N   UNL     1      -0.720  12.503  22.232  0.00  0.00    +0.000 NA
ENDBRANCH   1  22
TORSDOF 2
ENDMDL
MODEL 5
REMARK VINA RESULT:      -6.1      8.641     12.042
REMARK  Name = 
REMARK  5 active torsions:
REMARK  status: ('A' for Active; 'I' for Inactive)
REMARK    1  A    between atoms: C_1  and  C_2
REMARK    2  A    between atoms: C_4  and  C_5
REMARK    3  A    between atoms: N_6  and  C_7
REMARK    4  A    between atoms: C_12  and  C_14
REMARK    5  A    between atoms: N_17  and  C_18
REMARK                            x       y       z     vdW  Elec       q    Type
REMARK                         _______ _______ _______ _____ _____    ______ ____
ROOT
ATOM      1  C   UNL     1       1.196  12.597  19.622  0.00  0.00    +0.000 C 
ATOM      2  C   UNL     1       1.523  13.790  20.547  0.00  0.00    +0.000 C 
ATOM      3  C   UNL     1       0.297  14.447  21.189  0.00  0.00    +0.000 C 
ATOM      4  C   UNL     1      -0.832  14.658  20.174  0.00  0.00    +0.000 C 
ATOM      5  N   UNL     1      -1.170  13.389  19.543  0.00  0.00    +0.000 N 
ATOM      6  C   UNL     1      -2.261  12.568  19.801  0.00  0.00    +0.000 C 
ATOM      7  O   UNL     1      -2.431  11.523  19.162  0.00  0.00    +0.000 OA
ATOM      8  C   UNL     1      -0.058  12.844  18.757  0.00  0.00    +0.000 C 
ENDROOT
BRANCH   6   9
ATOM      9  C   UNL     1      -3.309  12.954  20.817  0.00  0.00    +0.000 A 
ATOM     10  C   UNL     1      -4.322  13.964  20.618  0.00  0.00    +0.000 A 
ATOM     11  C   UNL     1      -5.240  14.219  21.556  0.00  0.00    +0.000 A 
ATOM     12  N   UNL     1      -5.194  13.590  22.781  0.00  0.00    +0.000 N 
ATOM     13  C   UNL     1      -6.154  13.946  23.808  0.00  0.00    +0.000 C 
ATOM     14  C   UNL     1      -4.166  12.708  23.117  0.00  0.00    +0.000 A 
ATOM     15  O   UNL     1      -4.030  12.198  24.226  0.00  0.00    +0.000 OA
ATOM     16  C   UNL     1      -3.199  12.386  22.032  0.00  0.00    +0.000 A 
ENDBRANCH   6   9
BRANCH   1  22
ATOM     17  C   UNL     1      -0.371   9.615  23.033  0.00  0.00    +0.000 C 
ATOM     18  C   UNL     1       0.276  10.007  21.759  0.00  0.00    +0.000 A 
ATOM     19  C   UNL     1       0.404   9.234  20.586  0.00  0.00    +0.000 A 
ATOM     20  C   UNL     1       0.959  10.079  19.650  0.00  0.00    +0.000 A 
ATOM     21  C   UNL     1       1.268   9.851  18.218  0.00  0.00    +0.000 C 
ATOM     22  N   UNL     1       1.079  11.298  20.285  0.00  0.00    +0.000 N 
ATOM     23  N   UNL     1       0.787  11.234  21.601  0.00  0.00    +0.000 NA
ENDBRANCH   1  22
TORSDOF 2
ENDMDL
MODEL 6
REMARK VINA RESULT:      -6.1      9.200     11.866
REMARK  Name = 
REMARK  5 active torsions:
REMARK  status: ('A' for Active; 'I' for Inactive)
REMARK    1  A    between atoms: C_1  and  C_2
REMARK    2  A    between atoms: C_4  and  C_5
REMARK    3  A    between atoms: N_6  and  C_7
REMARK    4  A    between atoms: C_12  and  C_14
REMARK    5  A    between atoms: N_17  and  C_18
REMARK                            x       y       z     vdW  Elec       q    Type
REMARK                         _______ _______ _______ _____ _____    ______ ____
ROOT
ATOM      1  C   UNL     1      10.511  13.007  18.149  0.00  0.00    +0.000 C 
ATOM      2  C   UNL     1      10.059  11.544  17.950  0.00  0.00    +0.000 C 
ATOM      3  C   UNL     1       9.428  10.903  19.190  0.00  0.00    +0.000 C 
ATOM      4  C   UNL     1      10.237  11.202  20.458  0.00  0.00    +0.000 C 
ATOM      5  N   UNL     1      10.389  12.642  20.615  0.00  0.00    +0.000 N 
ATOM      6  C   UNL     1       9.705  13.487  21.481  0.00  0.00    +0.000 C 
ATOM      7  O   UNL     1       9.963  14.696  21.520  0.00  0.00    +0.000 OA
ATOM      8  C   UNL     1      11.167  13.243  19.526  0.00  0.00    +0.000 C 
ENDROOT
BRANCH   6   9
ATOM      9  C   UNL     1       8.677  12.951  22.448  0.00  0.00    +0.000 A 
ATOM     10  C   UNL     1       8.950  12.010  23.510  0.00  0.00    +0.000 A 
ATOM     11  C   UNL     1       7.988  11.615  24.349  0.00  0.00    +0.000 A 
ATOM     12  N   UNL     1       6.684  12.020  24.173  0.00  0.00    +0.000 N 
ATOM     13  C   UNL     1       5.647  11.510  25.050  0.00  0.00    +0.000 C 
ATOM     14  C   UNL     1       6.299  12.811  23.089  0.00  0.00    +0.000 A 
ATOM     15  O   UNL     1       5.137  13.119  22.837  0.00  0.00    +0.000 OA
ATOM     16  C   UNL     1       7.399  13.297  22.211  0.00  0.00    +0.000 A 
ENDBRANCH   6   9
BRANCH   1  22
ATOM     17  C   UNL     1       6.293  15.136  18.956  0.00  0.00    +0.000 C 
ATOM     18  C   UNL     1       7.653  14.981  18.391  0.00  0.00    +0.000 A 
ATOM     19  C   UNL     1       8.543  16.002  17.997  0.00  0.00    +0.000 A 
ATOM     20  C   UNL     1       9.714  15.358  17.663  0.00  0.00    +0.000 A 
ATOM     21  C   UNL     1      11.023  15.911  17.239  0.00  0.00    +0.000 C 
ATOM     22  N   UNL     1       9.482  14.022  17.922  0.00  0.00    +0.000 N 
ATOM     23  N   UNL     1       8.197  13.766  18.242  0.00  0.00    +0.000 NA
ENDBRANCH   1  22
TORSDOF 2
ENDMDL
MODEL 7
REMARK VINA RESULT:      -6.1      1.206      1.470
REMARK  Name = 
REMARK  5 active torsions:
REMARK  status: ('A' for Active; 'I' for Inactive)
REMARK    1  A    between atoms: C_1  and  C_2
REMARK    2  A    between atoms: C_4  and  C_5
REMARK    3  A    between atoms: N_6  and  C_7
REMARK    4  A    between atoms: C_12  and  C_14
REMARK    5  A    between atoms: N_17  and  C_18
REMARK                            x       y       z     vdW  Elec       q    Type
REMARK                         _______ _______ _______ _____ _____    ______ ____
ROOT
ATOM      1  C   UNL     1       3.917   5.548  19.635  0.00  0.00    +0.000 C 
ATOM      2  C   UNL     1       2.926   6.327  18.744  0.00  0.00    +0.000 C 
ATOM      3  C   UNL     1       3.365   6.470  17.284  0.00  0.00    +0.000 C 
ATOM      4  C   UNL     1       4.842   6.865  17.172  0.00  0.00    +0.000 C 
ATOM      5  N   UNL     1       5.665   5.902  17.890  0.00  0.00    +0.000 N 
ATOM      6  C   UNL     1       6.440   4.876  17.363  0.00  0.00    +0.000 C 
ATOM      7  O   UNL     1       7.111   4.146  18.102  0.00  0.00    +0.000 OA
ATOM      8  C   UNL     1       5.389   5.897  19.330  0.00  0.00    +0.000 C 
ENDROOT
BRANCH   6   9
ATOM      9  C   UNL     1       6.542   4.658  15.872  0.00  0.00    +0.000 A 
ATOM     10  C   UNL     1       5.781   3.686  15.123  0.00  0.00    +0.000 A 
ATOM     11  C   UNL     1       5.904   3.584  13.796  0.00  0.00    +0.000 A 
ATOM     12  N   UNL     1       6.827   4.340  13.109  0.00  0.00    +0.000 N 
ATOM     13  C   UNL     1       6.994   4.150  11.681  0.00  0.00    +0.000 C 
ATOM     14  C   UNL     1       7.708   5.200  13.767  0.00  0.00    +0.000 A 
ATOM     15  O   UNL     1       8.610   5.822  13.211  0.00  0.00    +0.000 OA
ATOM     16  C   UNL     1       7.504   5.350  15.234  0.00  0.00    +0.000 A 
ENDBRANCH   6   9
BRANCH   1  22
ATOM     17  C   UNL     1       5.186   1.063  20.755  0.00  0.00    +0.000 C 
ATOM     18  C   UNL     1       4.308   2.143  20.248  0.00  0.00    +0.000 A 
ATOM     19  C   UNL     1       2.898   2.156  20.204  0.00  0.00    +0.000 A 
ATOM     20  C   UNL     1       2.558   3.420  19.774  0.00  0.00    +0.000 A 
ATOM     21  C   UNL     1       1.224   4.043  19.595  0.00  0.00    +0.000 C 
ATOM     22  N   UNL     1       3.754   4.094  19.639  0.00  0.00    +0.000 N 
ATOM     23  N   UNL     1       4.827   3.294  19.801  0.00  0.00    +0.000 NA
ENDBRANCH   1  22
TORSDOF 2
ENDMDL
MODEL 8
REMARK VINA RESULT:      -6.0      3.160      5.997
REMARK  Name = 
REMARK  5 active torsions:
REMARK  status: ('A' for Active; 'I' for Inactive)
REMARK    1  A    between atoms: C_1  and  C_2
REMARK    2  A    between atoms: C_4  and  C_5
REMARK    3  A    between atoms: N_6  and  C_7
REMARK    4  A    between atoms: C_12  and  C_14
REMARK    5  A    between atoms: N_17  and  C_18
REMARK                            x       y       z     vdW  Elec       q    Type
REMARK                         _______ _______ _______ _____ _____    ______ ____
ROOT
ATOM      1  C   UNL     1       4.919   3.644  18.082  0.00  0.00    +0.000 C 
ATOM      2  C   UNL     1       6.040   4.394  18.834  0.00  0.00    +0.000 C 
ATOM      3  C   UNL     1       5.670   5.817  19.265  0.00  0.00    +0.000 C 
ATOM      4  C   UNL     1       4.967   6.586  18.141  0.00  0.00    +0.000 C 
ATOM      5  N   UNL     1       3.801   5.840  17.689  0.00  0.00    +0.000 N 
ATOM      6  C   UNL     1       2.463   6.080  17.980  0.00  0.00    +0.000 C 
ATOM      7  O   UNL     1       1.573   5.370  17.499  0.00  0.00    +0.000 OA
ATOM      8  C   UNL     1       4.161   4.550  17.089  0.00  0.00    +0.000 C 
ENDROOT
BRANCH   6   9
ATOM      9  C   UNL     1       2.047   7.254  18.835  0.00  0.00    +0.000 A 
ATOM     10  C   UNL     1       1.790   7.193  20.255  0.00  0.00    +0.000 A 
ATOM     11  C   UNL     1       1.463   8.289  20.946  0.00  0.00    +0.000 A 
ATOM     12  N   UNL     1       1.271   9.496  20.312  0.00  0.00    +0.000 N 
ATOM     13  C   UNL     1       0.838  10.650  21.077  0.00  0.00    +0.000 C 
ATOM     14  C   UNL     1       1.355   9.619  18.924  0.00  0.00    +0.000 A 
ATOM     15  O   UNL     1       1.100  10.650  18.307  0.00  0.00    +0.000 OA
ATOM     16  C   UNL     1       1.790   8.403  18.185  0.00  0.00    +0.000 A 
ENDBRANCH   6   9
BRANCH   1  22
ATOM     17  C   UNL     1       2.210   3.076  21.996  0.00  0.00    +0.000 C 
ATOM     18  C   UNL     1       2.705   2.789  20.629  0.00  0.00    +0.000 A 
ATOM     19  C   UNL     1       2.000   2.183  19.568  0.00  0.00    +0.000 A 
ATOM     20  C   UNL     1       2.841   2.258  18.480  0.00  0.00    +0.000 A 
ATOM     21  C   UNL     1       2.624   1.846  17.072  0.00  0.00    +0.000 C 
ATOM     22  N   UNL     1       3.956   2.937  18.927  0.00  0.00    +0.000 N 
ATOM     23  N   UNL     1       3.939   3.152  20.259  0.00  0.00    +0.000 NA
ENDBRANCH   1  22
TORSDOF 2
ENDMDL
MODEL 9
REMARK VINA RESULT:      -6.0      0.975      1.386
REMARK  Name = 
REMARK  5 active torsions:
REMARK  status: ('A' for Active; 'I' for Inactive)
REMARK    1  A    between atoms: C_1  and  C_2
REMARK    2  A    between atoms: C_4  and  C_5
REMARK    3  A    between atoms: N_6  and  C_7
REMARK    4  A    between atoms: C_12  and  C_14
REMARK    5  A    between atoms: N_17  and  C_18
REMARK                            x       y       z     vdW  Elec       q    Type
REMARK                         _______ _______ _______ _____ _____    ______ ____
ROOT
ATOM      1  C   UNL     1       2.950   5.857  19.549  0.00  0.00    +0.000 C 
ATOM      2  C   UNL     1       2.440   6.980  18.620  0.00  0.00    +0.000 C 
ATOM      3  C   UNL     1       3.259   7.162  17.339  0.00  0.00    +0.000 C 
ATOM      4  C   UNL     1       4.766   7.138  17.620  0.00  0.00    +0.000 C 
ATOM      5  N   UNL     1       5.118   5.907  18.313  0.00  0.00    +0.000 N 
ATOM      6  C   UNL     1       5.727   4.772  17.790  0.00  0.00    +0.000 C 
ATOM      7  O   UNL     1       5.988   3.804  18.513  0.00  0.00    +0.000 OA
ATOM      8  C   UNL     1       4.490   5.812  19.636  0.00  0.00    +0.000 C 
ENDROOT
BRANCH   6   9
ATOM      9  C   UNL     1       6.151   4.709  16.342  0.00  0.00    +0.000 A 
ATOM     10  C   UNL     1       7.378   5.257  15.814  0.00  0.00    +0.000 A 
ATOM     11  C   UNL     1       7.697   5.123  14.523  0.00  0.00    +0.000 A 
ATOM     12  N   UNL     1       6.823   4.539  13.634  0.00  0.00    +0.000 N 
ATOM     13  C   UNL     1       7.162   4.481  12.225  0.00  0.00    +0.000 C 
ATOM     14  C   UNL     1       5.553   4.112  14.024  0.00  0.00    +0.000 A 
ATOM     15  O   UNL     1       4.705   3.674  13.252  0.00  0.00    +0.000 OA
ATOM     16  C   UNL     1       5.250   4.206  15.479  0.00  0.00    +0.000 A 
ENDBRANCH   6   9
BRANCH   1  22
ATOM     17  C   UNL     1       2.581   1.855  16.936  0.00  0.00    +0.000 C 
ATOM     18  C   UNL     1       2.396   2.733  18.115  0.00  0.00    +0.000 A 
ATOM     19  C   UNL     1       2.232   2.344  19.461  0.00  0.00    +0.000 A 
ATOM     20  C   UNL     1       2.230   3.517  20.183  0.00  0.00    +0.000 A 
ATOM     21  C   UNL     1       2.156   3.739  21.648  0.00  0.00    +0.000 C 
ATOM     22  N   UNL     1       2.442   4.517  19.256  0.00  0.00    +0.000 N 
ATOM     23  N   UNL     1       2.418   4.066  17.985  0.00  0.00    +0.000 NA
ENDBRANCH   1  22
TORSDOF 2
ENDMDL
