MODEL 1
REMARK VINA RESULT:      -7.5      0.000      0.000
REMARK  Name = 
REMARK  9 active torsions:
REMARK  status: ('A' for Active; 'I' for Inactive)
REMARK    1  A    between atoms: C_1  and  O_2
REMARK    2  A    between atoms: O_2  and  C_3
REMARK    3  A    between atoms: C_9  and  N_10
REMARK    4  A    between atoms: N_10  and  C_11
REMARK    5  A    between atoms: C_16  and  C_17
REMARK    6  A    between atoms: C_17  and  C_18
REMARK    7  A    between atoms: N_22  and  C_23
REMARK    8  A    between atoms: C_26  and  C_27
REMARK    9  A    between atoms: C_26  and  C_28
REMARK                            x       y       z     vdW  Elec       q    Type
REMARK                         _______ _______ _______ _____ _____    ______ ____
ROOT
ATOM      1  C   UNL     1       1.275   8.699  21.007  0.00  0.00    +0.000 A 
ATOM      2  C   UNL     1       1.000   8.699  22.378  0.00  0.00    +0.000 A 
ATOM      3  C   UNL     1       0.067   9.584  22.912  0.00  0.00    +0.000 A 
ATOM      4  C   UNL     1      -0.572  10.509  22.090  0.00  0.00    +0.000 A 
ATOM      5  F   UNL     1      -1.519  11.271  22.649  0.00  0.00    +0.000 F 
ATOM      6  C   UNL     1      -0.260  10.624  20.728  0.00  0.00    +0.000 A 
ATOM      7  C   UNL     1       0.650   9.674  20.205  0.00  0.00    +0.000 A 
ENDROOT
BRANCH   6   8
ATOM      8  C   UNL     1      -0.840  11.744  19.826  0.00  0.00    +0.000 C 
ATOM      9  C   UNL     1      -0.868  11.238  18.343  0.00  0.00    +0.000 C 
ATOM     10  N   UNL     1      -2.282  11.807  20.087  0.00  0.00    +0.000 NA
ATOM     11  C   UNL     1      -2.942  12.857  20.380  0.00  0.00    +0.000 C 
ATOM     12  N   UNL     1      -4.285  12.687  20.497  0.00  0.00    +0.000 N 
ATOM     13  N   UNL     1      -2.368  14.077  20.585  0.00  0.00    +0.000 N 
ATOM     14  C   UNL     1      -3.142  15.254  20.959  0.00  0.00    +0.000 C 
ATOM     15  C   UNL     1      -1.000  14.250  20.554  0.00  0.00    +0.000 C 
ATOM     16  O   UNL     1      -0.497  15.322  20.922  0.00  0.00    +0.000 OA
ATOM     17  C   UNL     1      -0.114  13.143  19.974  0.00  0.00    +0.000 C 
ATOM     18  C   UNL     1       0.388  13.719  18.621  0.00  0.00    +0.000 C 
ATOM     19  C   UNL     1       1.130  13.100  20.903  0.00  0.00    +0.000 C 
ATOM     20  H   UNL     1      -4.523  11.699  20.466  0.00  0.00    +0.000 HD
ATOM     21  H   UNL     1      -4.733  13.144  21.278  0.00  0.00    +0.000 HD
ENDBRANCH   6   8
BRANCH   1  22
ATOM     22  N   UNL     1       2.215   7.779  20.499  0.00  0.00    +0.000 N 
ATOM     23  H   UNL     1       3.181   8.094  20.490  0.00  0.00    +0.000 HD
BRANCH  22  30
ATOM     24  C   UNL     1       2.284   6.267  18.560  0.00  0.00    +0.000 A 
ATOM     25  C   UNL     1       2.170   4.969  18.038  0.00  0.00    +0.000 A 
ATOM     26  C   UNL     1       1.794   3.904  18.862  0.00  0.00    +0.000 A 
ATOM     27  C   UNL     1       1.540   4.133  20.208  0.00  0.00    +0.000 A 
ATOM     28 CL   UNL     1       1.044   2.835  21.224  0.00  0.00    +0.000 Cl
ATOM     29  C   UNL     1       1.677   5.410  20.745  0.00  0.00    +0.000 A 
ATOM     30  C   UNL     1       2.048   6.494  19.938  0.00  0.00    +0.000 A 
BRANCH  24  32
ATOM     31  C   UNL     1       3.983   7.387  17.320  0.00  0.00    +0.000 C 
ATOM     32  O   UNL     1       2.639   7.362  17.803  0.00  0.00    +0.000 OA
ENDBRANCH  24  32
ENDBRANCH  22  30
ENDBRANCH   1  22
TORSDOF 4
ENDMDL
MODEL 2
REMARK VINA RESULT:      -7.2      6.573      8.253
REMARK  Name = 
REMARK  9 active torsions:
REMARK  status: ('A' for Active; 'I' for Inactive)
REMARK    1  A    between atoms: C_1  and  O_2
REMARK    2  A    between atoms: O_2  and  C_3
REMARK    3  A    between atoms: C_9  and  N_10
REMARK    4  A    between atoms: N_10  and  C_11
REMARK    5  A    between atoms: C_16  and  C_17
REMARK    6  A    between atoms: C_17  and  C_18
REMARK    7  A    between atoms: N_22  and  C_23
REMARK    8  A    between atoms: C_26  and  C_27
REMARK    9  A    between atoms: C_26  and  C_28
REMARK                            x       y       z     vdW  Elec       q    Type
REMARK                         _______ _______ _______ _____ _____    ______ ____
ROOT
ATOM      1  C   UNL     1       7.498  14.913  17.985  0.00  0.00    +0.000 A 
ATOM      2  C   UNL     1       8.049  16.179  18.208  0.00  0.00    +0.000 A 
ATOM      3  C   UNL     1       7.266  17.211  18.720  0.00  0.00    +0.000 A 
ATOM      4  C   UNL     1       5.913  17.004  18.974  0.00  0.00    +0.000 A 
ATOM      5  F   UNL     1       5.238  18.008  19.544  0.00  0.00    +0.000 F 
ATOM      6  C   UNL     1       5.283  15.788  18.671  0.00  0.00    +0.000 A 
ATOM      7  C   UNL     1       6.117  14.742  18.206  0.00  0.00    +0.000 A 
ENDROOT
BRANCH   6   8
ATOM      8  C   UNL     1       3.752  15.581  18.797  0.00  0.00    +0.000 C 
ATOM      9  C   UNL     1       3.019  16.682  17.956  0.00  0.00    +0.000 C 
ATOM     10  N   UNL     1       3.408  14.399  18.000  0.00  0.00    +0.000 NA
ATOM     11  C   UNL     1       2.732  13.397  18.404  0.00  0.00    +0.000 C 
ATOM     12  N   UNL     1       2.466  12.455  17.462  0.00  0.00    +0.000 N 
ATOM     13  N   UNL     1       2.304  13.245  19.690  0.00  0.00    +0.000 N 
ATOM     14  C   UNL     1       1.566  12.069  20.136  0.00  0.00    +0.000 C 
ATOM     15  C   UNL     1       2.636  14.148  20.678  0.00  0.00    +0.000 C 
ATOM     16  O   UNL     1       2.393  13.893  21.867  0.00  0.00    +0.000 OA
ATOM     17  C   UNL     1       3.224  15.508  20.288  0.00  0.00    +0.000 C 
ATOM     18  C   UNL     1       2.084  16.521  20.584  0.00  0.00    +0.000 C 
ATOM     19  C   UNL     1       4.323  15.787  21.348  0.00  0.00    +0.000 C 
ATOM     20  H   UNL     1       2.983  12.649  16.609  0.00  0.00    +0.000 HD
ATOM     21  H   UNL     1       2.575  11.491  17.742  0.00  0.00    +0.000 HD
ENDBRANCH   6   8
BRANCH   1  22
ATOM     22  N   UNL     1       8.324  13.889  17.480  0.00  0.00    +0.000 N 
ATOM     23  H   UNL     1       8.600  13.983  16.507  0.00  0.00    +0.000 HD
BRANCH  22  30
ATOM     24  C   UNL     1       9.812  12.742  19.070  0.00  0.00    +0.000 A 
ATOM     25  C   UNL     1      10.227  11.554  19.690  0.00  0.00    +0.000 A 
ATOM     26  C   UNL     1       9.676  10.326  19.312  0.00  0.00    +0.000 A 
ATOM     27  C   UNL     1       8.702  10.286  18.321  0.00  0.00    +0.000 A 
ATOM     28 CL   UNL     1       8.041   8.776  17.826  0.00  0.00    +0.000 Cl
ATOM     29  C   UNL     1       8.260  11.459  17.718  0.00  0.00    +0.000 A 
ATOM     30  C   UNL     1       8.802  12.701  18.077  0.00  0.00    +0.000 A 
BRANCH  24  32
ATOM     31  C   UNL     1      11.650  14.251  18.936  0.00  0.00    +0.000 C 
ATOM     32  O   UNL     1      10.321  13.983  19.385  0.00  0.00    +0.000 OA
ENDBRANCH  24  32
ENDBRANCH  22  30
ENDBRANCH   1  22
TORSDOF 4
ENDMDL
MODEL 3
REMARK VINA RESULT:      -7.2      1.917      2.844
REMARK  Name = 
REMARK  9 active torsions:
REMARK  status: ('A' for Active; 'I' for Inactive)
REMARK    1  A    between atoms: C_1  and  O_2
REMARK    2  A    between atoms: O_2  and  C_3
REMARK    3  A    between atoms: C_9  and  N_10
REMARK    4  A    between atoms: N_10  and  C_11
REMARK    5  A    between atoms: C_16  and  C_17
REMARK    6  A    between atoms: C_17  and  C_18
REMARK    7  A    between atoms: N_22  and  C_23
REMARK    8  A    between atoms: C_26  and  C_27
REMARK    9  A    between atoms: C_26  and  C_28
REMARK                            x       y       z     vdW  Elec       q    Type
REMARK                         _______ _______ _______ _____ _____    ______ ____
ROOT
ATOM      1  C   UNL     1       1.072   8.999  21.557  0.00  0.00    +0.000 A 
ATOM      2  C   UNL     1       0.168   8.472  22.485  0.00  0.00    +0.000 A 
ATOM      3  C   UNL     1      -0.853   9.264  23.005  0.00  0.00    +0.000 A 
ATOM      4  C   UNL     1      -0.957  10.603  22.638  0.00  0.00    +0.000 A 
ATOM      5  F   UNL     1      -2.008  11.285  23.107  0.00  0.00    +0.000 F 
ATOM      6  C   UNL     1      -0.017  11.211  21.794  0.00  0.00    +0.000 A 
ATOM      7  C   UNL     1       0.974  10.367  21.237  0.00  0.00    +0.000 A 
ENDROOT
BRANCH   6   8
ATOM      8  C   UNL     1      -0.019  12.733  21.494  0.00  0.00    +0.000 C 
ATOM      9  C   UNL     1      -0.554  13.498  22.752  0.00  0.00    +0.000 C 
ATOM     10  N   UNL     1       1.378  13.180  21.515  0.00  0.00    +0.000 NA
ATOM     11  C   UNL     1       1.961  13.850  20.601  0.00  0.00    +0.000 C 
ATOM     12  N   UNL     1       3.238  14.224  20.877  0.00  0.00    +0.000 N 
ATOM     13  N   UNL     1       1.376  14.173  19.413  0.00  0.00    +0.000 N 
ATOM     14  C   UNL     1       2.079  14.908  18.368  0.00  0.00    +0.000 C 
ATOM     15  C   UNL     1       0.112  13.731  19.081  0.00  0.00    +0.000 C 
ATOM     16  O   UNL     1      -0.321  13.882  17.929  0.00  0.00    +0.000 OA
ATOM     17  C   UNL     1      -0.787  13.135  20.169  0.00  0.00    +0.000 C 
ATOM     18  C   UNL     1      -1.880  14.214  20.400  0.00  0.00    +0.000 C 
ATOM     19  C   UNL     1      -1.507  11.943  19.484  0.00  0.00    +0.000 C 
ATOM     20  H   UNL     1       3.564  13.774  21.729  0.00  0.00    +0.000 HD
ATOM     21  H   UNL     1       3.911  14.121  20.132  0.00  0.00    +0.000 HD
ENDBRANCH   6   8
BRANCH   1  22
ATOM     22  N   UNL     1       2.084   8.163  21.041  0.00  0.00    +0.000 N 
ATOM     23  H   UNL     1       3.037   8.435  21.262  0.00  0.00    +0.000 HD
BRANCH  22  30
ATOM     24  C   UNL     1       2.349   7.109  18.833  0.00  0.00    +0.000 A 
ATOM     25  C   UNL     1       2.330   5.951  18.041  0.00  0.00    +0.000 A 
ATOM     26  C   UNL     1       1.951   4.723  18.588  0.00  0.00    +0.000 A 
ATOM     27  C   UNL     1       1.601   4.647  19.930  0.00  0.00    +0.000 A 
ATOM     28 CL   UNL     1       1.101   3.145  20.606  0.00  0.00    +0.000 Cl
ATOM     29  C   UNL     1       1.643   5.781  20.735  0.00  0.00    +0.000 A 
ATOM     30  C   UNL     1       2.014   7.025  20.207  0.00  0.00    +0.000 A 
BRANCH  24  32
ATOM     31  C   UNL     1       1.657   9.110  17.742  0.00  0.00    +0.000 C 
ATOM     32  O   UNL     1       2.700   8.352  18.356  0.00  0.00    +0.000 OA
ENDBRANCH  24  32
ENDBRANCH  22  30
ENDBRANCH   1  22
TORSDOF 4
ENDMDL
MODEL 4
REMARK VINA RESULT:      -7.0      3.999      6.346
REMARK  Name = 
REMARK  9 active torsions:
REMARK  status: ('A' for Active; 'I' for Inactive)
REMARK    1  A    between atoms: C_1  and  O_2
REMARK    2  A    between atoms: O_2  and  C_3
REMARK    3  A    between atoms: C_9  and  N_10
REMARK    4  A    between atoms: N_10  and  C_11
REMARK    5  A    between atoms: C_16  and  C_17
REMARK    6  A    between atoms: C_17  and  C_18
REMARK    7  A    between atoms: N_22  and  C_23
REMARK    8  A    between atoms: C_26  and  C_27
REMARK    9  A    between atoms: C_26  and  C_28
REMARK                            x       y       z     vdW  Elec       q    Type
REMARK                         _______ _______ _______ _____ _____    ______ ____
ROOT
ATOM      1  C   UNL     1      -3.587  11.723  18.135  0.00  0.00    +0.000 A 
ATOM      2  C   UNL     1      -4.485  11.429  17.104  0.00  0.00    +0.000 A 
ATOM      3  C   UNL     1      -5.847  11.673  17.261  0.00  0.00    +0.000 A 
ATOM      4  C   UNL     1      -6.335  12.173  18.465  0.00  0.00    +0.000 A 
ATOM      5  F   UNL     1      -7.639  12.465  18.521  0.00  0.00    +0.000 F 
ATOM      6  C   UNL     1      -5.496  12.388  19.568  0.00  0.00    +0.000 A 
ATOM      7  C   UNL     1      -4.111  12.185  19.358  0.00  0.00    +0.000 A 
ENDROOT
BRANCH   6   8
ATOM      8  C   UNL     1      -6.034  12.795  20.964  0.00  0.00    +0.000 C 
ATOM      9  C   UNL     1      -7.293  11.924  21.298  0.00  0.00    +0.000 C 
ATOM     10  N   UNL     1      -5.099  12.260  21.960  0.00  0.00    +0.000 NA
ATOM     11  C   UNL     1      -4.554  12.922  22.903  0.00  0.00    +0.000 C 
ATOM     12  N   UNL     1      -3.786  12.195  23.757  0.00  0.00    +0.000 N 
ATOM     13  N   UNL     1      -4.700  14.268  23.063  0.00  0.00    +0.000 N 
ATOM     14  C   UNL     1      -4.033  15.008  24.128  0.00  0.00    +0.000 C 
ATOM     15  C   UNL     1      -5.406  15.034  22.159  0.00  0.00    +0.000 C 
ATOM     16  O   UNL     1      -5.369  16.272  22.225  0.00  0.00    +0.000 OA
ATOM     17  C   UNL     1      -6.308  14.345  21.131  0.00  0.00    +0.000 C 
ATOM     18  C   UNL     1      -7.752  14.663  21.610  0.00  0.00    +0.000 C 
ATOM     19  C   UNL     1      -6.111  15.154  19.820  0.00  0.00    +0.000 C 
ATOM     20  H   UNL     1      -3.663  11.249  23.407  0.00  0.00    +0.000 HD
ATOM     21  H   UNL     1      -2.901  12.600  24.027  0.00  0.00    +0.000 HD
ENDBRANCH   6   8
BRANCH   1  22
ATOM     22  N   UNL     1      -2.214  11.476  17.935  0.00  0.00    +0.000 N 
ATOM     23  H   UNL     1      -1.933  11.294  16.976  0.00  0.00    +0.000 HD
BRANCH  22  30
ATOM     24  C   UNL     1      -0.280  12.479  19.080  0.00  0.00    +0.000 A 
ATOM     25  C   UNL     1       0.738  12.377  20.039  0.00  0.00    +0.000 A 
ATOM     26  C   UNL     1       0.929  11.188  20.748  0.00  0.00    +0.000 A 
ATOM     27  C   UNL     1       0.096  10.103  20.506  0.00  0.00    +0.000 A 
ATOM     28 CL   UNL     1       0.342   8.623  21.350  0.00  0.00    +0.000 Cl
ATOM     29  C   UNL     1      -0.937  10.199  19.579  0.00  0.00    +0.000 A 
ATOM     30  C   UNL     1      -1.144  11.380  18.851  0.00  0.00    +0.000 A 
BRANCH  24  32
ATOM     31  C   UNL     1      -0.047  14.844  18.897  0.00  0.00    +0.000 C 
ATOM     32  O   UNL     1      -0.516  13.616  18.337  0.00  0.00    +0.000 OA
ENDBRANCH  24  32
ENDBRANCH  22  30
ENDBRANCH   1  22
TORSDOF 4
ENDMDL
MODEL 5
REMARK VINA RESULT:      -6.9      2.393      3.461
REMARK  Name = 
REMARK  9 active torsions:
REMARK  status: ('A' for Active; 'I' for Inactive)
REMARK    1  A    between atoms: C_1  and  O_2
REMARK    2  A    between atoms: O_2  and  C_3
REMARK    3  A    between atoms: C_9  and  N_10
REMARK    4  A    between atoms: N_10  and  C_11
REMARK    5  A    between atoms: C_16  and  C_17
REMARK    6  A    between atoms: C_17  and  C_18
REMARK    7  A    between atoms: N_22  and  C_23
REMARK    8  A    between atoms: C_26  and  C_27
REMARK    9  A    between atoms: C_26  and  C_28
REMARK                            x       y       z     vdW  Elec       q    Type
REMARK                         _______ _______ _______ _____ _____    ______ ____
ROOT
ATOM      1  C   UNL     1       2.176   7.435  19.785  0.00  0.00    +0.000 A 
ATOM      2  C   UNL     1       2.463   7.616  18.429  0.00  0.00    +0.000 A 
ATOM      3  C   UNL     1       2.268   8.855  17.823  0.00  0.00    +0.000 A 
ATOM      4  C   UNL     1       1.744   9.917  18.555  0.00  0.00    +0.000 A 
ATOM      5  F   UNL     1       1.662  11.101  17.938  0.00  0.00    +0.000 F 
ATOM      6  C   UNL     1       1.340   9.765  19.889  0.00  0.00    +0.000 A 
ATOM      7  C   UNL     1       1.603   8.511  20.491  0.00  0.00    +0.000 A 
ENDROOT
BRANCH   6   8
ATOM      8  C   UNL     1       0.611  10.884  20.678  0.00  0.00    +0.000 C 
ATOM      9  C   UNL     1       0.411  10.413  22.159  0.00  0.00    +0.000 C 
ATOM     10  N   UNL     1       1.582  11.962  20.896  0.00  0.00    +0.000 NA
ATOM     11  C   UNL     1       1.402  13.194  20.624  0.00  0.00    +0.000 C 
ATOM     12  N   UNL     1       2.413  14.025  20.991  0.00  0.00    +0.000 N 
ATOM     13  N   UNL     1       0.292  13.673  19.994  0.00  0.00    +0.000 N 
ATOM     14  C   UNL     1       0.129  15.083  19.658  0.00  0.00    +0.000 C 
ATOM     15  C   UNL     1      -0.704  12.835  19.539  0.00  0.00    +0.000 C 
ATOM     16  O   UNL     1      -1.607  13.274  18.811  0.00  0.00    +0.000 OA
ATOM     17  C   UNL     1      -0.737  11.378  20.012  0.00  0.00    +0.000 C 
ATOM     18  C   UNL     1      -1.955  11.314  20.975  0.00  0.00    +0.000 C 
ATOM     19  C   UNL     1      -1.146  10.560  18.758  0.00  0.00    +0.000 C 
ATOM     20  H   UNL     1       3.218  13.489  21.303  0.00  0.00    +0.000 HD
ATOM     21  H   UNL     1       2.683  14.732  20.323  0.00  0.00    +0.000 HD
ENDBRANCH   6   8
BRANCH   1  22
ATOM     22  N   UNL     1       2.399   6.171  20.367  0.00  0.00    +0.000 N 
ATOM     23  H   UNL     1       2.433   6.152  21.383  0.00  0.00    +0.000 HD
BRANCH  22  30
ATOM     24  C   UNL     1       3.966   4.485  19.498  0.00  0.00    +0.000 A 
ATOM     25  C   UNL     1       4.188   3.203  18.973  0.00  0.00    +0.000 A 
ATOM     26  C   UNL     1       3.114   2.352  18.700  0.00  0.00    +0.000 A 
ATOM     27  C   UNL     1       1.817   2.778  18.960  0.00  0.00    +0.000 A 
ATOM     28 CL   UNL     1       0.485   1.751  18.597  0.00  0.00    +0.000 Cl
ATOM     29  C   UNL     1       1.584   4.036  19.507  0.00  0.00    +0.000 A 
ATOM     30  C   UNL     1       2.645   4.909  19.784  0.00  0.00    +0.000 A 
BRANCH  24  32
ATOM     31  C   UNL     1       6.127   5.316  18.933  0.00  0.00    +0.000 C 
ATOM     32  O   UNL     1       4.977   5.378  19.779  0.00  0.00    +0.000 OA
ENDBRANCH  24  32
ENDBRANCH  22  30
ENDBRANCH   1  22
TORSDOF 4
ENDMDL
MODEL 6
REMARK VINA RESULT:      -6.9      2.253      2.896
REMARK  Name = 
REMARK  9 active torsions:
REMARK  status: ('A' for Active; 'I' for Inactive)
REMARK    1  A    between atoms: C_1  and  O_2
REMARK    2  A    between atoms: O_2  and  C_3
REMARK    3  A    between atoms: C_9  and  N_10
REMARK    4  A    between atoms: N_10  and  C_11
REMARK    5  A    between atoms: C_16  and  C_17
REMARK    6  A    between atoms: C_17  and  C_18
REMARK    7  A    between atoms: N_22  and  C_23
REMARK    8  A    between atoms: C_26  and  C_27
REMARK    9  A    between atoms: C_26  and  C_28
REMARK                            x       y       z     vdW  Elec       q    Type
REMARK                         _______ _______ _______ _____ _____    ______ ____
ROOT
ATOM      1  C   UNL     1       1.635   8.425  19.103  0.00  0.00    +0.000 A 
ATOM      2  C   UNL     1       1.866   7.851  20.357  0.00  0.00    +0.000 A 
ATOM      3  C   UNL     1       1.344   8.436  21.509  0.00  0.00    +0.000 A 
ATOM      4  C   UNL     1       0.621   9.622  21.426  0.00  0.00    +0.000 A 
ATOM      5  F   UNL     1       0.075  10.085  22.556  0.00  0.00    +0.000 F 
ATOM      6  C   UNL     1       0.447  10.296  20.209  0.00  0.00    +0.000 A 
ATOM      7  C   UNL     1       0.940   9.649  19.050  0.00  0.00    +0.000 A 
ENDROOT
BRANCH   6   8
ATOM      8  C   UNL     1      -0.218  11.694  20.111  0.00  0.00    +0.000 C 
ATOM      9  C   UNL     1      -0.882  11.843  18.699  0.00  0.00    +0.000 C 
ATOM     10  N   UNL     1      -1.426  11.658  20.943  0.00  0.00    +0.000 NA
ATOM     11  C   UNL     1      -1.734  12.501  21.848  0.00  0.00    +0.000 C 
ATOM     12  N   UNL     1      -2.945  12.311  22.433  0.00  0.00    +0.000 N 
ATOM     13  N   UNL     1      -0.919  13.523  22.236  0.00  0.00    +0.000 N 
ATOM     14  C   UNL     1      -1.278  14.450  23.302  0.00  0.00    +0.000 C 
ATOM     15  C   UNL     1       0.348  13.680  21.714  0.00  0.00    +0.000 C 
ATOM     16  O   UNL     1       1.133  14.500  22.212  0.00  0.00    +0.000 OA
ATOM     17  C   UNL     1       0.746  12.900  20.456  0.00  0.00    +0.000 C 
ATOM     18  C   UNL     1       0.805  13.977  19.337  0.00  0.00    +0.000 C 
ATOM     19  C   UNL     1       2.216  12.467  20.704  0.00  0.00    +0.000 C 
ATOM     20  H   UNL     1      -3.348  11.426  22.137  0.00  0.00    +0.000 HD
ATOM     21  H   UNL     1      -2.984  12.410  23.437  0.00  0.00    +0.000 HD
ENDBRANCH   6   8
BRANCH   1  22
ATOM     22  N   UNL     1       2.167   7.798  17.958  0.00  0.00    +0.000 N 
ATOM     23  H   UNL     1       1.700   8.009  17.081  0.00  0.00    +0.000 HD
BRANCH  22  30
ATOM     24  C   UNL     1       2.961   5.473  17.818  0.00  0.00    +0.000 A 
ATOM     25  C   UNL     1       4.015   4.570  17.610  0.00  0.00    +0.000 A 
ATOM     26  C   UNL     1       5.321   5.032  17.431  0.00  0.00    +0.000 A 
ATOM     27  C   UNL     1       5.575   6.398  17.448  0.00  0.00    +0.000 A 
ATOM     28 CL   UNL     1       7.185   6.977  17.261  0.00  0.00    +0.000 Cl
ATOM     29  C   UNL     1       4.536   7.306  17.624  0.00  0.00    +0.000 A 
ATOM     30  C   UNL     1       3.218   6.866  17.812  0.00  0.00    +0.000 A 
BRANCH  24  32
ATOM     31  C   UNL     1       1.448   3.983  18.898  0.00  0.00    +0.000 C 
ATOM     32  O   UNL     1       1.654   5.085  18.013  0.00  0.00    +0.000 OA
ENDBRANCH  24  32
ENDBRANCH  22  30
ENDBRANCH   1  22
TORSDOF 4
ENDMDL
MODEL 7
REMARK VINA RESULT:      -6.9      1.032      1.051
REMARK  Name = 
REMARK  9 active torsions:
REMARK  status: ('A' for Active; 'I' for Inactive)
REMARK    1  A    between atoms: C_1  and  O_2
REMARK    2  A    between atoms: O_2  and  C_3
REMARK    3  A    between atoms: C_9  and  N_10
REMARK    4  A    between atoms: N_10  and  C_11
REMARK    5  A    between atoms: C_16  and  C_17
REMARK    6  A    between atoms: C_17  and  C_18
REMARK    7  A    between atoms: N_22  and  C_23
REMARK    8  A    between atoms: C_26  and  C_27
REMARK    9  A    between atoms: C_26  and  C_28
REMARK                            x       y       z     vdW  Elec       q    Type
REMARK                         _______ _______ _______ _____ _____    ______ ____
ROOT
ATOM      1  C   UNL     1       1.314   8.742  20.107  0.00  0.00    +0.000 A 
ATOM      2  C   UNL     1       1.445   8.519  21.481  0.00  0.00    +0.000 A 
ATOM      3  C   UNL     1       0.753   9.310  22.395  0.00  0.00    +0.000 A 
ATOM      4  C   UNL     1      -0.043  10.361  21.949  0.00  0.00    +0.000 A 
ATOM      5  F   UNL     1      -0.747  11.028  22.871  0.00  0.00    +0.000 F 
ATOM      6  C   UNL     1      -0.129  10.697  20.590  0.00  0.00    +0.000 A 
ATOM      7  C   UNL     1       0.539   9.839  19.684  0.00  0.00    +0.000 A 
ENDROOT
BRANCH   6   8
ATOM      8  C   UNL     1      -0.882  11.954  20.082  0.00  0.00    +0.000 C 
ATOM      9  C   UNL     1      -1.299  11.727  18.589  0.00  0.00    +0.000 C 
ATOM     10  N   UNL     1      -2.209  11.946  20.707  0.00  0.00    +0.000 NA
ATOM     11  C   UNL     1      -2.740  12.914  21.343  0.00  0.00    +0.000 C 
ATOM     12  N   UNL     1      -4.015  12.706  21.764  0.00  0.00    +0.000 N 
ATOM     13  N   UNL     1      -2.094  14.085  21.612  0.00  0.00    +0.000 N 
ATOM     14  C   UNL     1      -2.711  15.163  22.376  0.00  0.00    +0.000 C 
ATOM     15  C   UNL     1      -0.774  14.282  21.266  0.00  0.00    +0.000 C 
ATOM     16  O   UNL     1      -0.160  15.276  21.682  0.00  0.00    +0.000 OA
ATOM     17  C   UNL     1      -0.097  13.313  20.291  0.00  0.00    +0.000 C 
ATOM     18  C   UNL     1       0.065  14.133  18.982  0.00  0.00    +0.000 C 
ATOM     19  C   UNL     1       1.338  13.120  20.851  0.00  0.00    +0.000 C 
ATOM     20  H   UNL     1      -4.284  11.737  21.616  0.00  0.00    +0.000 HD
ATOM     21  H   UNL     1      -4.237  13.005  22.703  0.00  0.00    +0.000 HD
ENDBRANCH   6   8
BRANCH   1  22
ATOM     22  N   UNL     1       2.017   7.911  19.211  0.00  0.00    +0.000 N 
ATOM     23  H   UNL     1       2.163   8.290  18.279  0.00  0.00    +0.000 HD
BRANCH  22  30
ATOM     24  C   UNL     1       3.617   6.149  18.584  0.00  0.00    +0.000 A 
ATOM     25  C   UNL     1       4.133   4.861  18.792  0.00  0.00    +0.000 A 
ATOM     26  C   UNL     1       3.552   4.007  19.732  0.00  0.00    +0.000 A 
ATOM     27  C   UNL     1       2.461   4.441  20.474  0.00  0.00    +0.000 A 
ATOM     28 CL   UNL     1       1.717   3.386  21.612  0.00  0.00    +0.000 Cl
ATOM     29  C   UNL     1       1.956   5.726  20.299  0.00  0.00    +0.000 A 
ATOM     30  C   UNL     1       2.518   6.599  19.358  0.00  0.00    +0.000 A 
BRANCH  24  32
ATOM     31  C   UNL     1       4.844   6.467  16.567  0.00  0.00    +0.000 C 
ATOM     32  O   UNL     1       4.133   7.038  17.666  0.00  0.00    +0.000 OA
ENDBRANCH  24  32
ENDBRANCH  22  30
ENDBRANCH   1  22
TORSDOF 4
ENDMDL
MODEL 8
REMARK VINA RESULT:      -6.9      2.180      3.166
REMARK  Name = 
REMARK  9 active torsions:
REMARK  status: ('A' for Active; 'I' for Inactive)
REMARK    1  A    between atoms: C_1  and  O_2
REMARK    2  A    between atoms: O_2  and  C_3
REMARK    3  A    between atoms: C_9  and  N_10
REMARK    4  A    between atoms: N_10  and  C_11
REMARK    5  A    between atoms: C_16  and  C_17
REMARK    6  A    between atoms: C_17  and  C_18
REMARK    7  A    between atoms: N_22  and  C_23
REMARK    8  A    between atoms: C_26  and  C_27
REMARK    9  A    between atoms: C_26  and  C_28
REMARK                            x       y       z     vdW  Elec       q    Type
REMARK                         _______ _______ _______ _____ _____    ______ ____
ROOT
ATOM      1  C   UNL     1       1.909   7.971  19.561  0.00  0.00    +0.000 A 
ATOM      2  C   UNL     1       1.553   7.032  20.534  0.00  0.00    +0.000 A 
ATOM      3  C   UNL     1       0.664   7.371  21.551  0.00  0.00    +0.000 A 
ATOM      4  C   UNL     1       0.153   8.663  21.633  0.00  0.00    +0.000 A 
ATOM      5  F   UNL     1      -0.761   8.900  22.581  0.00  0.00    +0.000 F 
ATOM      6  C   UNL     1       0.556   9.673  20.748  0.00  0.00    +0.000 A 
ATOM      7  C   UNL     1       1.416   9.284  19.693  0.00  0.00    +0.000 A 
ENDROOT
BRANCH   6   8
ATOM      8  C   UNL     1       0.125  11.154  20.911  0.00  0.00    +0.000 C 
ATOM      9  C   UNL     1      -0.512  11.344  22.330  0.00  0.00    +0.000 C 
ATOM     10  N   UNL     1       1.348  11.944  21.088  0.00  0.00    +0.000 NA
ATOM     11  C   UNL     1       1.668  12.984  20.424  0.00  0.00    +0.000 C 
ATOM     12  N   UNL     1       2.812  13.599  20.820  0.00  0.00    +0.000 N 
ATOM     13  N   UNL     1       0.941  13.461  19.374  0.00  0.00    +0.000 N 
ATOM     14  C   UNL     1       1.350  14.631  18.605  0.00  0.00    +0.000 C 
ATOM     15  C   UNL     1      -0.176  12.802  18.904  0.00  0.00    +0.000 C 
ATOM     16  O   UNL     1      -0.709  13.153  17.841  0.00  0.00    +0.000 OA
ATOM     17  C   UNL     1      -0.808  11.693  19.751  0.00  0.00    +0.000 C 
ATOM     18  C   UNL     1      -2.134  12.313  20.271  0.00  0.00    +0.000 C 
ATOM     19  C   UNL     1      -1.224  10.599  18.732  0.00  0.00    +0.000 C 
ATOM     20  H   UNL     1       3.302  13.031  21.506  0.00  0.00    +0.000 HD
ATOM     21  H   UNL     1       3.438  13.907  20.090  0.00  0.00    +0.000 HD
ENDBRANCH   6   8
BRANCH   1  22
ATOM     22  N   UNL     1       2.801   7.589  18.538  0.00  0.00    +0.000 N 
ATOM     23  H   UNL     1       3.257   8.349  18.042  0.00  0.00    +0.000 HD
BRANCH  22  30
ATOM     24  C   UNL     1       4.340   6.121  17.299  0.00  0.00    +0.000 A 
ATOM     25  C   UNL     1       4.684   4.835  16.857  0.00  0.00    +0.000 A 
ATOM     26  C   UNL     1       3.838   3.750  17.101  0.00  0.00    +0.000 A 
ATOM     27  C   UNL     1       2.652   3.947  17.798  0.00  0.00    +0.000 A 
ATOM     28 CL   UNL     1       1.587   2.624  18.076  0.00  0.00    +0.000 Cl
ATOM     29  C   UNL     1       2.311   5.211  18.268  0.00  0.00    +0.000 A 
ATOM     30  C   UNL     1       3.141   6.316  18.029  0.00  0.00    +0.000 A 
BRANCH  24  32
ATOM     31  C   UNL     1       6.523   7.075  17.301  0.00  0.00    +0.000 C 
ATOM     32  O   UNL     1       5.120   7.235  17.082  0.00  0.00    +0.000 OA
ENDBRANCH  24  32
ENDBRANCH  22  30
ENDBRANCH   1  22
TORSDOF 4
ENDMDL
MODEL 9
REMARK VINA RESULT:      -6.9      2.672      4.006
REMARK  Name = 
REMARK  9 active torsions:
REMARK  status: ('A' for Active; 'I' for Inactive)
REMARK    1  A    between atoms: C_1  and  O_2
REMARK    2  A    between atoms: O_2  and  C_3
REMARK    3  A    between atoms: C_9  and  N_10
REMARK    4  A    between atoms: N_10  and  C_11
REMARK    5  A    between atoms: C_16  and  C_17
REMARK    6  A    between atoms: C_17  and  C_18
REMARK    7  A    between atoms: N_22  and  C_23
REMARK    8  A    between atoms: C_26  and  C_27
REMARK    9  A    between atoms: C_26  and  C_28
REMARK                            x       y       z     vdW  Elec       q    Type
REMARK                         _______ _______ _______ _____ _____    ______ ____
ROOT
ATOM      1  C   UNL     1       2.056   7.248  19.428  0.00  0.00    +0.000 A 
ATOM      2  C   UNL     1       2.364   7.544  18.096  0.00  0.00    +0.000 A 
ATOM      3  C   UNL     1       2.252   8.847  17.617  0.00  0.00    +0.000 A 
ATOM      4  C   UNL     1       1.788   9.862  18.449  0.00  0.00    +0.000 A 
ATOM      5  F   UNL     1       1.785  11.105  17.954  0.00  0.00    +0.000 F 
ATOM      6  C   UNL     1       1.365   9.605  19.761  0.00  0.00    +0.000 A 
ATOM      7  C   UNL     1       1.546   8.283  20.236  0.00  0.00    +0.000 A 
ENDROOT
BRANCH   6   8
ATOM      8  C   UNL     1       0.701  10.683  20.656  0.00  0.00    +0.000 C 
ATOM      9  C   UNL     1       0.570  10.123  22.114  0.00  0.00    +0.000 C 
ATOM     10  N   UNL     1       1.703  11.729  20.888  0.00  0.00    +0.000 NA
ATOM     11  C   UNL     1       1.533  12.979  20.703  0.00  0.00    +0.000 C 
ATOM     12  N   UNL     1       2.578  13.769  21.066  0.00  0.00    +0.000 N 
ATOM     13  N   UNL     1       0.401  13.515  20.164  0.00  0.00    +0.000 N 
ATOM     14  C   UNL     1       0.248  14.945  19.926  0.00  0.00    +0.000 C 
ATOM     15  C   UNL     1      -0.634  12.723  19.713  0.00  0.00    +0.000 C 
ATOM     16  O   UNL     1      -1.566  13.222  19.064  0.00  0.00    +0.000 OA
ATOM     17  C   UNL     1      -0.670  11.240  20.096  0.00  0.00    +0.000 C 
ATOM     18  C   UNL     1      -1.836  11.135  21.118  0.00  0.00    +0.000 C 
ATOM     19  C   UNL     1      -1.161  10.509  18.818  0.00  0.00    +0.000 C 
ATOM     20  H   UNL     1       3.388  13.201  21.300  0.00  0.00    +0.000 HD
ATOM     21  H   UNL     1       2.827  14.512  20.429  0.00  0.00    +0.000 HD
ENDBRANCH   6   8
BRANCH   1  22
ATOM     22  N   UNL     1       2.196   5.921  19.882  0.00  0.00    +0.000 N 
ATOM     23  H   UNL     1       2.017   5.772  20.871  0.00  0.00    +0.000 HD
BRANCH  22  30
ATOM     24  C   UNL     1       2.012   3.495  19.516  0.00  0.00    +0.000 A 
ATOM     25  C   UNL     1       2.390   2.353  18.793  0.00  0.00    +0.000 A 
ATOM     26  C   UNL     1       3.367   2.435  17.797  0.00  0.00    +0.000 A 
ATOM     27  C   UNL     1       3.960   3.660  17.515  0.00  0.00    +0.000 A 
ATOM     28 CL   UNL     1       5.187   3.765  16.313  0.00  0.00    +0.000 Cl
ATOM     29  C   UNL     1       3.574   4.805  18.204  0.00  0.00    +0.000 A 
ATOM     30  C   UNL     1       2.601   4.747  19.211  0.00  0.00    +0.000 A 
BRANCH  24  32
ATOM     31  C   UNL     1       1.412   2.765  21.703  0.00  0.00    +0.000 C 
ATOM     32  O   UNL     1       1.066   3.483  20.517  0.00  0.00    +0.000 OA
ENDBRANCH  24  32
ENDBRANCH  22  30
ENDBRANCH   1  22
TORSDOF 4
ENDMDL
