MODEL 1
REMARK VINA RESULT:      -8.0      0.000      0.000
REMARK  Name = 
REMARK  13 active torsions:
REMARK  status: ('A' for Active; 'I' for Inactive)
REMARK    1  A    between atoms: C_1  and  C_2
REMARK    2  A    between atoms: C_4  and  N_5
REMARK    3  A    between atoms: N_5  and  C_6
REMARK    4  A    between atoms: C_8  and  C_9
REMARK    5  A    between atoms: N_16  and  C_17
REMARK    6  A    between atoms: C_20  and  C_21
REMARK    7  A    between atoms: C_21  and  C_22
REMARK    8  A    between atoms: C_22  and  N_23
REMARK    9  A    between atoms: C_24  and  O_26
REMARK   10  A    between atoms: O_26  and  C_27
REMARK   11  A    between atoms: C_27  and  C_28
REMARK   12  A    between atoms: C_27  and  C_29
REMARK   13  A    between atoms: C_27  and  C_30
REMARK                            x       y       z     vdW  Elec       q    Type
REMARK                         _______ _______ _______ _____ _____    ______ ____
ROOT
ATOM      1  C   UNL     1      -0.481   9.812  22.921  0.00  0.00    +0.000 C 
ATOM      2  C   UNL     1       0.345   9.399  21.740  0.00  0.00    +0.000 A 
ATOM      3  C   UNL     1       0.496  10.246  20.667  0.00  0.00    +0.000 A 
ATOM      4  C   UNL     1       1.215   9.767  19.598  0.00  0.00    +0.000 A 
ATOM      5  N   UNL     1       1.721   8.534  19.588  0.00  0.00    +0.000 NA
ATOM      6  C   UNL     1       1.550   7.763  20.666  0.00  0.00    +0.000 A 
ATOM      7  N   UNL     1       2.108   6.489  20.703  0.00  0.00    +0.000 N 
ATOM      8  N   UNL     1       0.885   8.164  21.763  0.00  0.00    +0.000 NA
ATOM      9  H   UNL     1       1.987   6.068  21.612  0.00  0.00    +0.000 HD
ENDROOT
BRANCH   7  10
ATOM     10  C   UNL     1       2.678   5.704  19.693  0.00  0.00    +0.000 A 
ATOM     11  C   UNL     1       3.926   5.118  19.914  0.00  0.00    +0.000 A 
ATOM     12  C   UNL     1       4.562   4.376  18.916  0.00  0.00    +0.000 A 
ATOM     13  C   UNL     1       3.953   4.165  17.672  0.00  0.00    +0.000 A 
ATOM     14  C   UNL     1       2.731   4.794  17.425  0.00  0.00    +0.000 A 
ATOM     15  C   UNL     1       2.109   5.552  18.423  0.00  0.00    +0.000 A 
BRANCH  13  16
ATOM     16  C   UNL     1       4.599   3.328  16.590  0.00  0.00    +0.000 C 
BRANCH  16  17
ATOM     17  C   UNL     1       5.116   4.159  15.407  0.00  0.00    +0.000 C 
BRANCH  17  18
ATOM     18  N   UNL     1       5.762   5.385  15.819  0.00  0.00    +0.000 N 
ATOM     19  C   UNL     1       7.110   5.413  16.013  0.00  0.00    +0.000 C 
ATOM     20  O   UNL     1       7.824   4.425  15.920  0.00  0.00    +0.000 OA
ATOM     21  H   UNL     1       5.250   6.250  15.916  0.00  0.00    +0.000 HD
BRANCH  19  22
ATOM     22  O   UNL     1       7.521   6.669  16.312  0.00  0.00    +0.000 OA
BRANCH  22  23
ATOM     23  C   UNL     1       7.249   7.181  17.644  0.00  0.00    +0.000 C 
ATOM     24  C   UNL     1       7.699   6.191  18.730  0.00  0.00    +0.000 C 
ATOM     25  C   UNL     1       8.089   8.459  17.793  0.00  0.00    +0.000 C 
ATOM     26  C   UNL     1       5.770   7.568  17.782  0.00  0.00    +0.000 C 
ENDBRANCH  22  23
ENDBRANCH  19  22
ENDBRANCH  17  18
ENDBRANCH  16  17
ENDBRANCH  13  16
ENDBRANCH   7  10
BRANCH   4  27
ATOM     27  N   UNL     1       1.413  10.513  18.433  0.00  0.00    +0.000 N 
ATOM     28  H   UNL     1       1.939   9.944  17.769  0.00  0.00    +0.000 HD
BRANCH  27  29
ATOM     29  C   UNL     1       1.559  11.857  18.362  0.00  0.00    +0.000 A 
ATOM     30  C   UNL     1       2.681  12.643  18.465  0.00  0.00    +0.000 A 
ATOM     31  C   UNL     1       2.198  13.964  18.388  0.00  0.00    +0.000 A 
ATOM     32  N   UNL     1       0.869  14.024  18.260  0.00  0.00    +0.000 NA
ATOM     33  N   UNL     1       0.504  12.724  18.271  0.00  0.00    +0.000 N 
ATOM     34  H   UNL     1      -0.485  12.504  18.247  0.00  0.00    +0.000 HD
BRANCH  31  35
ATOM     35  C   UNL     1       3.096  15.183  18.466  0.00  0.00    +0.000 C 
ATOM     36  C   UNL     1       4.496  15.110  17.893  0.00  0.00    +0.000 C 
ATOM     37  C   UNL     1       3.447  15.879  17.166  0.00  0.00    +0.000 C 
ENDBRANCH  31  35
ENDBRANCH  27  29
ENDBRANCH   4  27
TORSDOF 9
ENDMDL
MODEL 2
REMARK VINA RESULT:      -8.0      3.323      4.564
REMARK  Name = 
REMARK  13 active torsions:
REMARK  status: ('A' for Active; 'I' for Inactive)
REMARK    1  A    between atoms: C_1  and  C_2
REMARK    2  A    between atoms: C_4  and  N_5
REMARK    3  A    between atoms: N_5  and  C_6
REMARK    4  A    between atoms: C_8  and  C_9
REMARK    5  A    between atoms: N_16  and  C_17
REMARK    6  A    between atoms: C_20  and  C_21
REMARK    7  A    between atoms: C_21  and  C_22
REMARK    8  A    between atoms: C_22  and  N_23
REMARK    9  A    between atoms: C_24  and  O_26
REMARK   10  A    between atoms: O_26  and  C_27
REMARK   11  A    between atoms: C_27  and  C_28
REMARK   12  A    between atoms: C_27  and  C_29
REMARK   13  A    between atoms: C_27  and  C_30
REMARK                            x       y       z     vdW  Elec       q    Type
REMARK                         _______ _______ _______ _____ _____    ______ ____
ROOT
ATOM      1  C   UNL     1      -0.141  12.744  22.140  0.00  0.00    +0.000 C 
ATOM      2  C   UNL     1       0.055  11.711  21.073  0.00  0.00    +0.000 A 
ATOM      3  C   UNL     1      -0.544  11.859  19.844  0.00  0.00    +0.000 A 
ATOM      4  C   UNL     1      -0.366  10.837  18.942  0.00  0.00    +0.000 A 
ATOM      5  N   UNL     1       0.332   9.743  19.249  0.00  0.00    +0.000 NA
ATOM      6  C   UNL     1       0.899   9.664  20.456  0.00  0.00    +0.000 A 
ATOM      7  N   UNL     1       1.673   8.555  20.787  0.00  0.00    +0.000 N 
ATOM      8  N   UNL     1       0.798  10.630  21.384  0.00  0.00    +0.000 NA
ATOM      9  H   UNL     1       2.119   8.681  21.683  0.00  0.00    +0.000 HD
ENDROOT
BRANCH   7  10
ATOM     10  C   UNL     1       1.824   7.316  20.153  0.00  0.00    +0.000 A 
ATOM     11  C   UNL     1       1.519   6.152  20.861  0.00  0.00    +0.000 A 
ATOM     12  C   UNL     1       1.711   4.890  20.293  0.00  0.00    +0.000 A 
ATOM     13  C   UNL     1       2.181   4.751  18.980  0.00  0.00    +0.000 A 
ATOM     14  C   UNL     1       2.539   5.910  18.286  0.00  0.00    +0.000 A 
ATOM     15  C   UNL     1       2.363   7.169  18.869  0.00  0.00    +0.000 A 
BRANCH  13  16
ATOM     16  C   UNL     1       2.353   3.400  18.325  0.00  0.00    +0.000 C 
BRANCH  16  17
ATOM     17  C   UNL     1       3.704   2.741  18.638  0.00  0.00    +0.000 C 
BRANCH  17  18
ATOM     18  N   UNL     1       4.746   3.124  17.713  0.00  0.00    +0.000 N 
ATOM     19  C   UNL     1       5.705   4.014  18.096  0.00  0.00    +0.000 C 
ATOM     20  O   UNL     1       5.708   4.573  19.183  0.00  0.00    +0.000 OA
ATOM     21  H   UNL     1       4.823   2.709  16.796  0.00  0.00    +0.000 HD
BRANCH  19  22
ATOM     22  O   UNL     1       6.627   4.171  17.115  0.00  0.00    +0.000 OA
BRANCH  22  23
ATOM     23  C   UNL     1       6.587   5.389  16.326  0.00  0.00    +0.000 C 
ATOM     24  C   UNL     1       7.258   6.559  17.062  0.00  0.00    +0.000 C 
ATOM     25  C   UNL     1       7.401   5.103  15.053  0.00  0.00    +0.000 C 
ATOM     26  C   UNL     1       5.147   5.711  15.904  0.00  0.00    +0.000 C 
ENDBRANCH  22  23
ENDBRANCH  19  22
ENDBRANCH  17  18
ENDBRANCH  16  17
ENDBRANCH  13  16
ENDBRANCH   7  10
BRANCH   4  27
ATOM     27  N   UNL     1      -0.949  10.848  17.672  0.00  0.00    +0.000 N 
ATOM     28  H   UNL     1      -0.253  11.171  16.998  0.00  0.00    +0.000 HD
BRANCH  27  29
ATOM     29  C   UNL     1      -2.252  11.089  17.394  0.00  0.00    +0.000 A 
ATOM     30  C   UNL     1      -3.279  11.505  18.206  0.00  0.00    +0.000 A 
ATOM     31  C   UNL     1      -4.414  11.503  17.373  0.00  0.00    +0.000 A 
ATOM     32  N   UNL     1      -4.143  11.102  16.126  0.00  0.00    +0.000 NA
ATOM     33  N   UNL     1      -2.820  10.833  16.176  0.00  0.00    +0.000 N 
ATOM     34  H   UNL     1      -2.380  10.447  15.349  0.00  0.00    +0.000 HD
BRANCH  31  35
ATOM     35  C   UNL     1      -5.798  11.892  17.853  0.00  0.00    +0.000 C 
ATOM     36  C   UNL     1      -6.738  10.815  18.354  0.00  0.00    +0.000 C 
ATOM     37  C   UNL     1      -6.097  11.740  19.331  0.00  0.00    +0.000 C 
ENDBRANCH  31  35
ENDBRANCH  27  29
ENDBRANCH   4  27
TORSDOF 9
ENDMDL
MODEL 3
REMARK VINA RESULT:      -8.0      3.460      5.881
REMARK  Name = 
REMARK  13 active torsions:
REMARK  status: ('A' for Active; 'I' for Inactive)
REMARK    1  A    between atoms: C_1  and  C_2
REMARK    2  A    between atoms: C_4  and  N_5
REMARK    3  A    between atoms: N_5  and  C_6
REMARK    4  A    between atoms: C_8  and  C_9
REMARK    5  A    between atoms: N_16  and  C_17
REMARK    6  A    between atoms: C_20  and  C_21
REMARK    7  A    between atoms: C_21  and  C_22
REMARK    8  A    between atoms: C_22  and  N_23
REMARK    9  A    between atoms: C_24  and  O_26
REMARK   10  A    between atoms: O_26  and  C_27
REMARK   11  A    between atoms: C_27  and  C_28
REMARK   12  A    between atoms: C_27  and  C_29
REMARK   13  A    between atoms: C_27  and  C_30
REMARK                            x       y       z     vdW  Elec       q    Type
REMARK                         _______ _______ _______ _____ _____    ______ ____
ROOT
ATOM      1  C   UNL     1       0.555   2.397  19.507  0.00  0.00    +0.000 C 
ATOM      2  C   UNL     1       1.438   3.591  19.710  0.00  0.00    +0.000 A 
ATOM      3  C   UNL     1       0.981   4.682  20.411  0.00  0.00    +0.000 A 
ATOM      4  C   UNL     1       1.829   5.760  20.498  0.00  0.00    +0.000 A 
ATOM      5  N   UNL     1       3.026   5.762  19.911  0.00  0.00    +0.000 NA
ATOM      6  C   UNL     1       3.417   4.666  19.254  0.00  0.00    +0.000 A 
ATOM      7  N   UNL     1       4.680   4.621  18.672  0.00  0.00    +0.000 N 
ATOM      8  N   UNL     1       2.662   3.561  19.145  0.00  0.00    +0.000 NA
ATOM      9  H   UNL     1       4.875   3.703  18.304  0.00  0.00    +0.000 HD
ENDROOT
BRANCH   7  10
ATOM     10  C   UNL     1       5.620   5.632  18.432  0.00  0.00    +0.000 A 
ATOM     11  C   UNL     1       5.335   6.607  17.474  0.00  0.00    +0.000 A 
ATOM     12  C   UNL     1       6.265   7.600  17.157  0.00  0.00    +0.000 A 
ATOM     13  C   UNL     1       7.500   7.672  17.814  0.00  0.00    +0.000 A 
ATOM     14  C   UNL     1       7.813   6.668  18.734  0.00  0.00    +0.000 A 
ATOM     15  C   UNL     1       6.884   5.665  19.032  0.00  0.00    +0.000 A 
BRANCH  13  16
ATOM     16  C   UNL     1       8.506   8.763  17.523  0.00  0.00    +0.000 C 
BRANCH  16  17
ATOM     17  C   UNL     1       9.108   9.387  18.789  0.00  0.00    +0.000 C 
BRANCH  17  18
ATOM     18  N   UNL     1       9.481  10.772  18.613  0.00  0.00    +0.000 N 
ATOM     19  C   UNL     1       9.657  11.575  19.700  0.00  0.00    +0.000 C 
ATOM     20  O   UNL     1       9.453  11.207  20.848  0.00  0.00    +0.000 OA
ATOM     21  H   UNL     1       9.674  11.160  17.700  0.00  0.00    +0.000 HD
BRANCH  19  22
ATOM     22  O   UNL     1      10.082  12.804  19.319  0.00  0.00    +0.000 OA
BRANCH  22  23
ATOM     23  C   UNL     1      11.482  12.967  18.967  0.00  0.00    +0.000 C 
ATOM     24  C   UNL     1      11.676  13.027  17.445  0.00  0.00    +0.000 C 
ATOM     25  C   UNL     1      11.918  14.319  19.554  0.00  0.00    +0.000 C 
ATOM     26  C   UNL     1      12.333  11.871  19.623  0.00  0.00    +0.000 C 
ENDBRANCH  22  23
ENDBRANCH  19  22
ENDBRANCH  17  18
ENDBRANCH  16  17
ENDBRANCH  13  16
ENDBRANCH   7  10
BRANCH   4  27
ATOM     27  N   UNL     1       1.473   6.943  21.153  0.00  0.00    +0.000 N 
ATOM     28  H   UNL     1       0.964   6.702  22.004  0.00  0.00    +0.000 HD
BRANCH  27  29
ATOM     29  C   UNL     1       1.184   8.127  20.562  0.00  0.00    +0.000 A 
ATOM     30  C   UNL     1       0.254   9.085  20.883  0.00  0.00    +0.000 A 
ATOM     31  C   UNL     1       0.369  10.048  19.863  0.00  0.00    +0.000 A 
ATOM     32  N   UNL     1       1.291   9.729  18.949  0.00  0.00    +0.000 NA
ATOM     33  N   UNL     1       1.754   8.539  19.388  0.00  0.00    +0.000 N 
ATOM     34  H   UNL     1       2.435   8.051  18.819  0.00  0.00    +0.000 HD
BRANCH  31  35
ATOM     35  C   UNL     1      -0.482  11.302  19.803  0.00  0.00    +0.000 C 
ATOM     36  C   UNL     1      -0.251  12.300  18.688  0.00  0.00    +0.000 C 
ATOM     37  C   UNL     1      -1.460  11.430  18.652  0.00  0.00    +0.000 C 
ENDBRANCH  31  35
ENDBRANCH  27  29
ENDBRANCH   4  27
TORSDOF 9
ENDMDL
MODEL 4
REMARK VINA RESULT:      -7.8      3.029      3.976
REMARK  Name = 
REMARK  13 active torsions:
REMARK  status: ('A' for Active; 'I' for Inactive)
REMARK    1  A    between atoms: C_1  and  C_2
REMARK    2  A    between atoms: C_4  and  N_5
REMARK    3  A    between atoms: N_5  and  C_6
REMARK    4  A    between atoms: C_8  and  C_9
REMARK    5  A    between atoms: N_16  and  C_17
REMARK    6  A    between atoms: C_20  and  C_21
REMARK    7  A    between atoms: C_21  and  C_22
REMARK    8  A    between atoms: C_22  and  N_23
REMARK    9  A    between atoms: C_24  and  O_26
REMARK   10  A    between atoms: O_26  and  C_27
REMARK   11  A    between atoms: C_27  and  C_28
REMARK   12  A    between atoms: C_27  and  C_29
REMARK   13  A    between atoms: C_27  and  C_30
REMARK                            x       y       z     vdW  Elec       q    Type
REMARK                         _______ _______ _______ _____ _____    ______ ____
ROOT
ATOM      1  C   UNL     1      -0.556  10.823  23.065  0.00  0.00    +0.000 C 
ATOM      2  C   UNL     1      -0.110  10.253  21.752  0.00  0.00    +0.000 A 
ATOM      3  C   UNL     1      -0.586  10.774  20.571  0.00  0.00    +0.000 A 
ATOM      4  C   UNL     1      -0.177  10.154  19.415  0.00  0.00    +0.000 A 
ATOM      5  N   UNL     1       0.621   9.086  19.433  0.00  0.00    +0.000 NA
ATOM      6  C   UNL     1       1.058   8.636  20.613  0.00  0.00    +0.000 A 
ATOM      7  N   UNL     1       1.930   7.552  20.660  0.00  0.00    +0.000 N 
ATOM      8  N   UNL     1       0.730   9.199  21.787  0.00  0.00    +0.000 NA
ATOM      9  H   UNL     1       2.255   7.391  21.602  0.00  0.00    +0.000 HD
ENDROOT
BRANCH   7  10
ATOM     10  C   UNL     1       2.311   6.633  19.674  0.00  0.00    +0.000 A 
ATOM     11  C   UNL     1       2.132   5.269  19.915  0.00  0.00    +0.000 A 
ATOM     12  C   UNL     1       2.551   4.312  18.988  0.00  0.00    +0.000 A 
ATOM     13  C   UNL     1       3.133   4.689  17.770  0.00  0.00    +0.000 A 
ATOM     14  C   UNL     1       3.366   6.049  17.548  0.00  0.00    +0.000 A 
ATOM     15  C   UNL     1       2.961   7.000  18.490  0.00  0.00    +0.000 A 
BRANCH  13  16
ATOM     16  C   UNL     1       3.554   3.675  16.730  0.00  0.00    +0.000 C 
BRANCH  16  17
ATOM     17  C   UNL     1       4.961   3.928  16.171  0.00  0.00    +0.000 C 
BRANCH  17  18
ATOM     18  N   UNL     1       5.978   3.966  17.198  0.00  0.00    +0.000 N 
ATOM     19  C   UNL     1       7.202   4.499  16.927  0.00  0.00    +0.000 C 
ATOM     20  O   UNL     1       7.528   4.905  15.821  0.00  0.00    +0.000 OA
ATOM     21  H   UNL     1       5.793   3.656  18.142  0.00  0.00    +0.000 HD
BRANCH  19  22
ATOM     22  O   UNL     1       7.972   4.513  18.041  0.00  0.00    +0.000 OA
BRANCH  22  23
ATOM     23  C   UNL     1       7.677   5.497  19.067  0.00  0.00    +0.000 C 
ATOM     24  C   UNL     1       8.606   5.341  20.281  0.00  0.00    +0.000 C 
ATOM     25  C   UNL     1       7.951   6.871  18.436  0.00  0.00    +0.000 C 
ATOM     26  C   UNL     1       6.193   5.443  19.455  0.00  0.00    +0.000 C 
ENDBRANCH  22  23
ENDBRANCH  19  22
ENDBRANCH  17  18
ENDBRANCH  16  17
ENDBRANCH  13  16
ENDBRANCH   7  10
BRANCH   4  27
ATOM     27  N   UNL     1      -0.614  10.563  18.151  0.00  0.00    +0.000 N 
ATOM     28  H   UNL     1       0.179  10.962  17.647  0.00  0.00    +0.000 HD
BRANCH  27  29
ATOM     29  C   UNL     1      -1.849  11.023  17.844  0.00  0.00    +0.000 A 
ATOM     30  C   UNL     1      -2.893  11.396  18.656  0.00  0.00    +0.000 A 
ATOM     31  C   UNL     1      -3.939  11.711  17.767  0.00  0.00    +0.000 A 
ATOM     32  N   UNL     1      -3.601  11.540  16.485  0.00  0.00    +0.000 NA
ATOM     33  N   UNL     1      -2.328  11.096  16.564  0.00  0.00    +0.000 N 
ATOM     34  H   UNL     1      -1.859  10.831  15.706  0.00  0.00    +0.000 HD
BRANCH  31  35
ATOM     35  C   UNL     1      -5.309  12.172  18.225  0.00  0.00    +0.000 C 
ATOM     36  C   UNL     1      -6.383  12.443  17.192  0.00  0.00    +0.000 C 
ATOM     37  C   UNL     1      -6.470  11.217  18.035  0.00  0.00    +0.000 C 
ENDBRANCH  31  35
ENDBRANCH  27  29
ENDBRANCH   4  27
TORSDOF 9
ENDMDL
MODEL 5
REMARK VINA RESULT:      -7.6      3.175      8.661
REMARK  Name = 
REMARK  13 active torsions:
REMARK  status: ('A' for Active; 'I' for Inactive)
REMARK    1  A    between atoms: C_1  and  C_2
REMARK    2  A    between atoms: C_4  and  N_5
REMARK    3  A    between atoms: N_5  and  C_6
REMARK    4  A    between atoms: C_8  and  C_9
REMARK    5  A    between atoms: N_16  and  C_17
REMARK    6  A    between atoms: C_20  and  C_21
REMARK    7  A    between atoms: C_21  and  C_22
REMARK    8  A    between atoms: C_22  and  N_23
REMARK    9  A    between atoms: C_24  and  O_26
REMARK   10  A    between atoms: O_26  and  C_27
REMARK   11  A    between atoms: C_27  and  C_28
REMARK   12  A    between atoms: C_27  and  C_29
REMARK   13  A    between atoms: C_27  and  C_30
REMARK                            x       y       z     vdW  Elec       q    Type
REMARK                         _______ _______ _______ _____ _____    ______ ____
ROOT
ATOM      1  C   UNL     1       4.358   2.431  20.084  0.00  0.00    +0.000 C 
ATOM      2  C   UNL     1       4.044   3.801  19.561  0.00  0.00    +0.000 A 
ATOM      3  C   UNL     1       4.755   4.320  18.505  0.00  0.00    +0.000 A 
ATOM      4  C   UNL     1       4.448   5.606  18.127  0.00  0.00    +0.000 A 
ATOM      5  N   UNL     1       3.526   6.325  18.766  0.00  0.00    +0.000 NA
ATOM      6  C   UNL     1       2.861   5.759  19.778  0.00  0.00    +0.000 A 
ATOM      7  N   UNL     1       1.860   6.469  20.433  0.00  0.00    +0.000 N 
ATOM      8  N   UNL     1       3.079   4.500  20.192  0.00  0.00    +0.000 NA
ATOM      9  H   UNL     1       1.379   5.884  21.099  0.00  0.00    +0.000 HD
ENDROOT
BRANCH   7  10
ATOM     10  C   UNL     1       1.516   7.826  20.391  0.00  0.00    +0.000 A 
ATOM     11  C   UNL     1       1.581   8.503  19.172  0.00  0.00    +0.000 A 
ATOM     12  C   UNL     1       1.305   9.870  19.090  0.00  0.00    +0.000 A 
ATOM     13  C   UNL     1       0.920  10.600  20.222  0.00  0.00    +0.000 A 
ATOM     14  C   UNL     1       0.906   9.941  21.454  0.00  0.00    +0.000 A 
ATOM     15  C   UNL     1       1.203   8.577  21.531  0.00  0.00    +0.000 A 
BRANCH  13  16
ATOM     16  C   UNL     1       0.572  12.070  20.153  0.00  0.00    +0.000 C 
BRANCH  16  17
ATOM     17  C   UNL     1       1.688  12.984  20.679  0.00  0.00    +0.000 C 
BRANCH  17  18
ATOM     18  N   UNL     1       2.639  13.357  19.657  0.00  0.00    +0.000 N 
ATOM     19  C   UNL     1       2.918  14.672  19.433  0.00  0.00    +0.000 C 
ATOM     20  O   UNL     1       2.355  15.588  20.015  0.00  0.00    +0.000 OA
ATOM     21  H   UNL     1       3.154  12.666  19.131  0.00  0.00    +0.000 HD
BRANCH  19  22
ATOM     22  O   UNL     1       3.890  14.799  18.497  0.00  0.00    +0.000 OA
BRANCH  22  23
ATOM     23  C   UNL     1       5.173  15.340  18.910  0.00  0.00    +0.000 C 
ATOM     24  C   UNL     1       5.534  14.906  20.339  0.00  0.00    +0.000 C 
ATOM     25  C   UNL     1       6.219  14.742  17.955  0.00  0.00    +0.000 C 
ATOM     26  C   UNL     1       5.195  16.865  18.739  0.00  0.00    +0.000 C 
ENDBRANCH  22  23
ENDBRANCH  19  22
ENDBRANCH  17  18
ENDBRANCH  16  17
ENDBRANCH  13  16
ENDBRANCH   7  10
BRANCH   4  27
ATOM     27  N   UNL     1       5.119   6.263  17.091  0.00  0.00    +0.000 N 
ATOM     28  H   UNL     1       4.649   7.151  16.913  0.00  0.00    +0.000 HD
BRANCH  27  29
ATOM     29  C   UNL     1       5.760   5.672  16.055  0.00  0.00    +0.000 A 
ATOM     30  C   UNL     1       5.341   4.702  15.178  0.00  0.00    +0.000 A 
ATOM     31  C   UNL     1       6.467   4.439  14.375  0.00  0.00    +0.000 A 
ATOM     32  N   UNL     1       7.532   5.171  14.717  0.00  0.00    +0.000 NA
ATOM     33  N   UNL     1       7.078   5.897  15.761  0.00  0.00    +0.000 N 
ATOM     34  H   UNL     1       7.732   6.500  16.245  0.00  0.00    +0.000 HD
BRANCH  31  35
ATOM     35  C   UNL     1       6.470   3.415  13.256  0.00  0.00    +0.000 C 
ATOM     36  C   UNL     1       5.402   3.486  12.185  0.00  0.00    +0.000 C 
ATOM     37  C   UNL     1       6.795   3.904  11.859  0.00  0.00    +0.000 C 
ENDBRANCH  31  35
ENDBRANCH  27  29
ENDBRANCH   4  27
TORSDOF 9
ENDMDL
MODEL 6
REMARK VINA RESULT:      -7.6      2.429      3.463
REMARK  Name = 
REMARK  13 active torsions:
REMARK  status: ('A' for Active; 'I' for Inactive)
REMARK    1  A    between atoms: C_1  and  C_2
REMARK    2  A    between atoms: C_4  and  N_5
REMARK    3  A    between atoms: N_5  and  C_6
REMARK    4  A    between atoms: C_8  and  C_9
REMARK    5  A    between atoms: N_16  and  C_17
REMARK    6  A    between atoms: C_20  and  C_21
REMARK    7  A    between atoms: C_21  and  C_22
REMARK    8  A    between atoms: C_22  and  N_23
REMARK    9  A    between atoms: C_24  and  O_26
REMARK   10  A    between atoms: O_26  and  C_27
REMARK   11  A    between atoms: C_27  and  C_28
REMARK   12  A    between atoms: C_27  and  C_29
REMARK   13  A    between atoms: C_27  and  C_30
REMARK                            x       y       z     vdW  Elec       q    Type
REMARK                         _______ _______ _______ _____ _____    ______ ____
ROOT
ATOM      1  C   UNL     1      -0.336   9.872  23.403  0.00  0.00    +0.000 C 
ATOM      2  C   UNL     1       0.292   9.407  22.124  0.00  0.00    +0.000 A 
ATOM      3  C   UNL     1       0.161  10.152  20.975  0.00  0.00    +0.000 A 
ATOM      4  C   UNL     1       0.712   9.625  19.831  0.00  0.00    +0.000 A 
ATOM      5  N   UNL     1       1.323   8.441  19.827  0.00  0.00    +0.000 NA
ATOM      6  C   UNL     1       1.429   7.771  20.979  0.00  0.00    +0.000 A 
ATOM      7  N   UNL     1       2.103   6.554  21.014  0.00  0.00    +0.000 N 
ATOM      8  N   UNL     1       0.943   8.227  22.145  0.00  0.00    +0.000 NA
ATOM      9  H   UNL     1       2.192   6.218  21.961  0.00  0.00    +0.000 HD
ENDROOT
BRANCH   7  10
ATOM     10  C   UNL     1       2.548   5.718  19.982  0.00  0.00    +0.000 A 
ATOM     11  C   UNL     1       3.341   4.614  20.301  0.00  0.00    +0.000 A 
ATOM     12  C   UNL     1       3.859   3.785  19.302  0.00  0.00    +0.000 A 
ATOM     13  C   UNL     1       3.570   4.014  17.950  0.00  0.00    +0.000 A 
ATOM     14  C   UNL     1       2.824   5.148  17.621  0.00  0.00    +0.000 A 
ATOM     15  C   UNL     1       2.325   5.984  18.625  0.00  0.00    +0.000 A 
BRANCH  13  16
ATOM     16  C   UNL     1       4.080   3.106  16.853  0.00  0.00    +0.000 C 
BRANCH  16  17
ATOM     17  C   UNL     1       4.839   3.856  15.749  0.00  0.00    +0.000 C 
BRANCH  17  18
ATOM     18  N   UNL     1       6.043   4.496  16.226  0.00  0.00    +0.000 N 
ATOM     19  C   UNL     1       6.324   5.779  15.861  0.00  0.00    +0.000 C 
ATOM     20  O   UNL     1       5.636   6.422  15.082  0.00  0.00    +0.000 OA
ATOM     21  H   UNL     1       6.667   4.040  16.876  0.00  0.00    +0.000 HD
BRANCH  19  22
ATOM     22  O   UNL     1       7.448   6.213  16.480  0.00  0.00    +0.000 OA
BRANCH  22  23
ATOM     23  C   UNL     1       7.308   6.921  17.740  0.00  0.00    +0.000 C 
ATOM     24  C   UNL     1       8.029   8.277  17.708  0.00  0.00    +0.000 C 
ATOM     25  C   UNL     1       5.805   7.190  17.916  0.00  0.00    +0.000 C 
ATOM     26  C   UNL     1       7.771   6.040  18.908  0.00  0.00    +0.000 C 
ENDBRANCH  22  23
ENDBRANCH  19  22
ENDBRANCH  17  18
ENDBRANCH  16  17
ENDBRANCH  13  16
ENDBRANCH   7  10
BRANCH   4  27
ATOM     27  N   UNL     1       0.620  10.264  18.591  0.00  0.00    +0.000 N 
ATOM     28  H   UNL     1       1.334  10.992  18.548  0.00  0.00    +0.000 HD
BRANCH  27  29
ATOM     29  C   UNL     1      -0.512  10.451  17.873  0.00  0.00    +0.000 A 
ATOM     30  C   UNL     1      -1.240   9.576  17.104  0.00  0.00    +0.000 A 
ATOM     31  C   UNL     1      -2.265  10.362  16.544  0.00  0.00    +0.000 A 
ATOM     32  N   UNL     1      -2.194  11.646  16.911  0.00  0.00    +0.000 NA
ATOM     33  N   UNL     1      -1.100  11.675  17.702  0.00  0.00    +0.000 N 
ATOM     34  H   UNL     1      -0.795  12.571  18.064  0.00  0.00    +0.000 HD
BRANCH  31  35
ATOM     35  C   UNL     1      -3.320   9.809  15.607  0.00  0.00    +0.000 C 
ATOM     36  C   UNL     1      -4.086  10.759  14.710  0.00  0.00    +0.000 C 
ATOM     37  C   UNL     1      -3.041   9.877  14.118  0.00  0.00    +0.000 C 
ENDBRANCH  31  35
ENDBRANCH  27  29
ENDBRANCH   4  27
TORSDOF 9
ENDMDL
MODEL 7
REMARK VINA RESULT:      -7.6      3.162      5.745
REMARK  Name = 
REMARK  13 active torsions:
REMARK  status: ('A' for Active; 'I' for Inactive)
REMARK    1  A    between atoms: C_1  and  C_2
REMARK    2  A    between atoms: C_4  and  N_5
REMARK    3  A    between atoms: N_5  and  C_6
REMARK    4  A    between atoms: C_8  and  C_9
REMARK    5  A    between atoms: N_16  and  C_17
REMARK    6  A    between atoms: C_20  and  C_21
REMARK    7  A    between atoms: C_21  and  C_22
REMARK    8  A    between atoms: C_22  and  N_23
REMARK    9  A    between atoms: C_24  and  O_26
REMARK   10  A    between atoms: O_26  and  C_27
REMARK   11  A    between atoms: C_27  and  C_28
REMARK   12  A    between atoms: C_27  and  C_29
REMARK   13  A    between atoms: C_27  and  C_30
REMARK                            x       y       z     vdW  Elec       q    Type
REMARK                         _______ _______ _______ _____ _____    ______ ____
ROOT
ATOM      1  C   UNL     1       0.656   2.281  19.287  0.00  0.00    +0.000 C 
ATOM      2  C   UNL     1       1.575   3.443  19.516  0.00  0.00    +0.000 A 
ATOM      3  C   UNL     1       1.192   4.482  20.332  0.00  0.00    +0.000 A 
ATOM      4  C   UNL     1       2.066   5.537  20.439  0.00  0.00    +0.000 A 
ATOM      5  N   UNL     1       3.218   5.567  19.769  0.00  0.00    +0.000 NA
ATOM      6  C   UNL     1       3.538   4.521  19.002  0.00  0.00    +0.000 A 
ATOM      7  N   UNL     1       4.756   4.503  18.327  0.00  0.00    +0.000 N 
ATOM      8  N   UNL     1       2.755   3.438  18.863  0.00  0.00    +0.000 NA
ATOM      9  H   UNL     1       4.905   3.614  17.876  0.00  0.00    +0.000 HD
ENDROOT
BRANCH   7  10
ATOM     10  C   UNL     1       5.696   5.516  18.099  0.00  0.00    +0.000 A 
ATOM     11  C   UNL     1       6.893   5.501  18.817  0.00  0.00    +0.000 A 
ATOM     12  C   UNL     1       7.837   6.521  18.668  0.00  0.00    +0.000 A 
ATOM     13  C   UNL     1       7.628   7.574  17.767  0.00  0.00    +0.000 A 
ATOM     14  C   UNL     1       6.409   7.623  17.087  0.00  0.00    +0.000 A 
ATOM     15  C   UNL     1       5.461   6.609  17.256  0.00  0.00    +0.000 A 
BRANCH  13  16
ATOM     16  C   UNL     1       8.652   8.665  17.553  0.00  0.00    +0.000 C 
BRANCH  16  17
ATOM     17  C   UNL     1       8.636   9.737  18.652  0.00  0.00    +0.000 C 
BRANCH  17  18
ATOM     18  N   UNL     1       8.744  11.081  18.131  0.00  0.00    +0.000 N 
ATOM     19  C   UNL     1       9.956  11.703  18.095  0.00  0.00    +0.000 C 
ATOM     20  O   UNL     1      10.979  11.208  18.545  0.00  0.00    +0.000 OA
ATOM     21  H   UNL     1       7.950  11.564  17.736  0.00  0.00    +0.000 HD
BRANCH  19  22
ATOM     22  O   UNL     1       9.850  12.915  17.499  0.00  0.00    +0.000 OA
BRANCH  22  23
ATOM     23  C   UNL     1       9.633  14.078  18.341  0.00  0.00    +0.000 C 
ATOM     24  C   UNL     1       9.844  13.744  19.826  0.00  0.00    +0.000 C 
ATOM     25  C   UNL     1      10.697  15.109  17.933  0.00  0.00    +0.000 C 
ATOM     26  C   UNL     1       8.252  14.690  18.070  0.00  0.00    +0.000 C 
ENDBRANCH  22  23
ENDBRANCH  19  22
ENDBRANCH  17  18
ENDBRANCH  16  17
ENDBRANCH  13  16
ENDBRANCH   7  10
BRANCH   4  27
ATOM     27  N   UNL     1       1.782   6.670  21.208  0.00  0.00    +0.000 N 
ATOM     28  H   UNL     1       1.565   6.370  22.159  0.00  0.00    +0.000 HD
BRANCH  27  29
ATOM     29  C   UNL     1       1.209   7.813  20.763  0.00  0.00    +0.000 A 
ATOM     30  C   UNL     1       1.508   8.601  19.678  0.00  0.00    +0.000 A 
ATOM     31  C   UNL     1       0.622   9.691  19.776  0.00  0.00    +0.000 A 
ATOM     32  N   UNL     1      -0.173   9.619  20.848  0.00  0.00    +0.000 NA
ATOM     33  N   UNL     1       0.225   8.475  21.445  0.00  0.00    +0.000 N 
ATOM     34  H   UNL     1      -0.198   8.226  22.332  0.00  0.00    +0.000 HD
BRANCH  31  35
ATOM     35  C   UNL     1       0.596  10.834  18.780  0.00  0.00    +0.000 C 
ATOM     36  C   UNL     1       0.707  12.258  19.284  0.00  0.00    +0.000 C 
ATOM     37  C   UNL     1       1.871  11.632  18.595  0.00  0.00    +0.000 C 
ENDBRANCH  31  35
ENDBRANCH  27  29
ENDBRANCH   4  27
TORSDOF 9
ENDMDL
MODEL 8
REMARK VINA RESULT:      -7.6      3.206      8.748
REMARK  Name = 
REMARK  13 active torsions:
REMARK  status: ('A' for Active; 'I' for Inactive)
REMARK    1  A    between atoms: C_1  and  C_2
REMARK    2  A    between atoms: C_4  and  N_5
REMARK    3  A    between atoms: N_5  and  C_6
REMARK    4  A    between atoms: C_8  and  C_9
REMARK    5  A    between atoms: N_16  and  C_17
REMARK    6  A    between atoms: C_20  and  C_21
REMARK    7  A    between atoms: C_21  and  C_22
REMARK    8  A    between atoms: C_22  and  N_23
REMARK    9  A    between atoms: C_24  and  O_26
REMARK   10  A    between atoms: O_26  and  C_27
REMARK   11  A    between atoms: C_27  and  C_28
REMARK   12  A    between atoms: C_27  and  C_29
REMARK   13  A    between atoms: C_27  and  C_30
REMARK                            x       y       z     vdW  Elec       q    Type
REMARK                         _______ _______ _______ _____ _____    ______ ____
ROOT
ATOM      1  C   UNL     1       4.060   2.421  19.972  0.00  0.00    +0.000 C 
ATOM      2  C   UNL     1       3.828   3.826  19.503  0.00  0.00    +0.000 A 
ATOM      3  C   UNL     1       4.572   4.345  18.469  0.00  0.00    +0.000 A 
ATOM      4  C   UNL     1       4.342   5.660  18.142  0.00  0.00    +0.000 A 
ATOM      5  N   UNL     1       3.460   6.406  18.808  0.00  0.00    +0.000 NA
ATOM      6  C   UNL     1       2.760   5.839  19.795  0.00  0.00    +0.000 A 
ATOM      7  N   UNL     1       1.799   6.581  20.477  0.00  0.00    +0.000 N 
ATOM      8  N   UNL     1       2.903   4.555  20.160  0.00  0.00    +0.000 NA
ATOM      9  H   UNL     1       1.283   5.998  21.118  0.00  0.00    +0.000 HD
ENDROOT
BRANCH   7  10
ATOM     10  C   UNL     1       1.534   7.956  20.488  0.00  0.00    +0.000 A 
ATOM     11  C   UNL     1       1.252   8.580  21.704  0.00  0.00    +0.000 A 
ATOM     12  C   UNL     1       0.923   9.937  21.760  0.00  0.00    +0.000 A 
ATOM     13  C   UNL     1       0.900  10.724  20.601  0.00  0.00    +0.000 A 
ATOM     14  C   UNL     1       1.127  10.093  19.375  0.00  0.00    +0.000 A 
ATOM     15  C   UNL     1       1.436   8.730  19.326  0.00  0.00    +0.000 A 
BRANCH  13  16
ATOM     16  C   UNL     1       0.592  12.204  20.638  0.00  0.00    +0.000 C 
BRANCH  16  17
ATOM     17  C   UNL     1       0.184  12.774  19.273  0.00  0.00    +0.000 C 
BRANCH  17  18
ATOM     18  N   UNL     1       1.285  13.389  18.567  0.00  0.00    +0.000 N 
ATOM     19  C   UNL     1       1.492  14.733  18.665  0.00  0.00    +0.000 C 
ATOM     20  O   UNL     1       0.750  15.484  19.280  0.00  0.00    +0.000 OA
ATOM     21  H   UNL     1       1.950  12.844  18.038  0.00  0.00    +0.000 HD
BRANCH  19  22
ATOM     22  O   UNL     1       2.617  15.090  17.998  0.00  0.00    +0.000 OA
BRANCH  22  23
ATOM     23  C   UNL     1       3.831  15.304  18.766  0.00  0.00    +0.000 C 
ATOM     24  C   UNL     1       3.939  16.757  19.255  0.00  0.00    +0.000 C 
ATOM     25  C   UNL     1       3.723  14.396  20.002  0.00  0.00    +0.000 C 
ATOM     26  C   UNL     1       5.062  14.864  17.962  0.00  0.00    +0.000 C 
ENDBRANCH  22  23
ENDBRANCH  19  22
ENDBRANCH  17  18
ENDBRANCH  16  17
ENDBRANCH  13  16
ENDBRANCH   7  10
BRANCH   4  27
ATOM     27  N   UNL     1       5.054   6.317  17.134  0.00  0.00    +0.000 N 
ATOM     28  H   UNL     1       4.578   7.194  16.921  0.00  0.00    +0.000 HD
BRANCH  27  29
ATOM     29  C   UNL     1       5.759   5.727  16.141  0.00  0.00    +0.000 A 
ATOM     30  C   UNL     1       5.376   4.808  15.194  0.00  0.00    +0.000 A 
ATOM     31  C   UNL     1       6.558   4.512  14.488  0.00  0.00    +0.000 A 
ATOM     32  N   UNL     1       7.621   5.175  14.954  0.00  0.00    +0.000 NA
ATOM     33  N   UNL     1       7.108   5.890  15.978  0.00  0.00    +0.000 N 
ATOM     34  H   UNL     1       7.744   6.442  16.542  0.00  0.00    +0.000 HD
BRANCH  31  35
ATOM     35  C   UNL     1       6.615   3.525  13.338  0.00  0.00    +0.000 C 
ATOM     36  C   UNL     1       5.483   3.495  12.333  0.00  0.00    +0.000 C 
ATOM     37  C   UNL     1       6.793   4.086  11.941  0.00  0.00    +0.000 C 
ENDBRANCH  31  35
ENDBRANCH  27  29
ENDBRANCH   4  27
TORSDOF 9
ENDMDL
MODEL 9
REMARK VINA RESULT:      -7.6      4.438     10.082
REMARK  Name = 
REMARK  13 active torsions:
REMARK  status: ('A' for Active; 'I' for Inactive)
REMARK    1  A    between atoms: C_1  and  C_2
REMARK    2  A    between atoms: C_4  and  N_5
REMARK    3  A    between atoms: N_5  and  C_6
REMARK    4  A    between atoms: C_8  and  C_9
REMARK    5  A    between atoms: N_16  and  C_17
REMARK    6  A    between atoms: C_20  and  C_21
REMARK    7  A    between atoms: C_21  and  C_22
REMARK    8  A    between atoms: C_22  and  N_23
REMARK    9  A    between atoms: C_24  and  O_26
REMARK   10  A    between atoms: O_26  and  C_27
REMARK   11  A    between atoms: C_27  and  C_28
REMARK   12  A    between atoms: C_27  and  C_29
REMARK   13  A    between atoms: C_27  and  C_30
REMARK                            x       y       z     vdW  Elec       q    Type
REMARK                         _______ _______ _______ _____ _____    ______ ____
ROOT
ATOM      1  C   UNL     1       4.404   2.526  19.964  0.00  0.00    +0.000 C 
ATOM      2  C   UNL     1       4.038   3.884  19.445  0.00  0.00    +0.000 A 
ATOM      3  C   UNL     1       4.664   4.394  18.332  0.00  0.00    +0.000 A 
ATOM      4  C   UNL     1       4.316   5.671  17.959  0.00  0.00    +0.000 A 
ATOM      5  N   UNL     1       3.435   6.391  18.654  0.00  0.00    +0.000 NA
ATOM      6  C   UNL     1       2.853   5.833  19.719  0.00  0.00    +0.000 A 
ATOM      7  N   UNL     1       1.894   6.544  20.436  0.00  0.00    +0.000 N 
ATOM      8  N   UNL     1       3.115   4.583  20.135  0.00  0.00    +0.000 NA
ATOM      9  H   UNL     1       1.470   5.964  21.144  0.00  0.00    +0.000 HD
ENDROOT
BRANCH   7  10
ATOM     10  C   UNL     1       1.533   7.896  20.400  0.00  0.00    +0.000 A 
ATOM     11  C   UNL     1       1.570   8.574  19.179  0.00  0.00    +0.000 A 
ATOM     12  C   UNL     1       1.276   9.938  19.102  0.00  0.00    +0.000 A 
ATOM     13  C   UNL     1       0.900  10.663  20.240  0.00  0.00    +0.000 A 
ATOM     14  C   UNL     1       0.915  10.004  21.472  0.00  0.00    +0.000 A 
ATOM     15  C   UNL     1       1.229   8.643  21.544  0.00  0.00    +0.000 A 
BRANCH  13  16
ATOM     16  C   UNL     1       0.533  12.129  20.176  0.00  0.00    +0.000 C 
BRANCH  16  17
ATOM     17  C   UNL     1      -0.004  12.678  21.505  0.00  0.00    +0.000 C 
BRANCH  17  18
ATOM     18  N   UNL     1      -1.420  12.966  21.465  0.00  0.00    +0.000 N 
ATOM     19  C   UNL     1      -1.971  13.805  22.387  0.00  0.00    +0.000 C 
ATOM     20  O   UNL     1      -1.340  14.298  23.310  0.00  0.00    +0.000 OA
ATOM     21  H   UNL     1      -2.016  12.605  20.735  0.00  0.00    +0.000 HD
BRANCH  19  22
ATOM     22  O   UNL     1      -3.285  14.003  22.122  0.00  0.00    +0.000 OA
BRANCH  22  23
ATOM     23  C   UNL     1      -4.255  13.596  23.123  0.00  0.00    +0.000 C 
ATOM     24  C   UNL     1      -4.712  14.786  23.981  0.00  0.00    +0.000 C 
ATOM     25  C   UNL     1      -5.477  13.074  22.350  0.00  0.00    +0.000 C 
ATOM     26  C   UNL     1      -3.703  12.441  23.971  0.00  0.00    +0.000 C 
ENDBRANCH  22  23
ENDBRANCH  19  22
ENDBRANCH  17  18
ENDBRANCH  16  17
ENDBRANCH  13  16
ENDBRANCH   7  10
BRANCH   4  27
ATOM     27  N   UNL     1       4.902   6.318  16.867  0.00  0.00    +0.000 N 
ATOM     28  H   UNL     1       4.287   7.078  16.573  0.00  0.00    +0.000 HD
BRANCH  27  29
ATOM     29  C   UNL     1       5.685   5.743  15.924  0.00  0.00    +0.000 A 
ATOM     30  C   UNL     1       5.381   4.835  14.939  0.00  0.00    +0.000 A 
ATOM     31  C   UNL     1       6.615   4.552  14.324  0.00  0.00    +0.000 A 
ATOM     32  N   UNL     1       7.636   5.213  14.879  0.00  0.00    +0.000 NA
ATOM     33  N   UNL     1       7.042   5.913  15.869  0.00  0.00    +0.000 N 
ATOM     34  H   UNL     1       7.629   6.460  16.487  0.00  0.00    +0.000 HD
BRANCH  31  35
ATOM     35  C   UNL     1       6.766   3.580  13.170  0.00  0.00    +0.000 C 
ATOM     36  C   UNL     1       5.644   3.450  12.161  0.00  0.00    +0.000 C 
ATOM     37  C   UNL     1       6.895   4.161  11.776  0.00  0.00    +0.000 C 
ENDBRANCH  31  35
ENDBRANCH  27  29
ENDBRANCH   4  27
TORSDOF 9
ENDMDL
