MODEL 1
REMARK VINA RESULT:      -7.4      0.000      0.000
REMARK  Name = 
REMARK  8 active torsions:
REMARK  status: ('A' for Active; 'I' for Inactive)
REMARK    1  A    between atoms: C_1  and  C_2
REMARK    2  A    between atoms: C_2  and  C_3
REMARK    3  A    between atoms: C_5  and  O_6
REMARK    4  A    between atoms: C_8  and  S_9
REMARK    5  A    between atoms: S_9  and  C_10
REMARK    6  A    between atoms: C_10  and  C_11
REMARK    7  A    between atoms: N_13  and  C_14
REMARK    8  A    between atoms: C_14  and  C_15
REMARK                            x       y       z     vdW  Elec       q    Type
REMARK                         _______ _______ _______ _____ _____    ______ ____
ROOT
ATOM      1  S   UNL     1       5.358   5.309  16.260  0.00  0.00    +0.000 S 
ENDROOT
BRANCH   1   6
ATOM      2  C   UNL     1       6.161   3.702  12.719  0.00  0.00    +0.000 A 
ATOM      3  C   UNL     1       7.346   4.326  12.369  0.00  0.00    +0.000 A 
ATOM      4  C   UNL     1       7.832   5.228  13.280  0.00  0.00    +0.000 A 
ATOM      5  N   UNL     1       7.243   5.510  14.440  0.00  0.00    +0.000 NA
ATOM      6  C   UNL     1       6.105   4.858  14.711  0.00  0.00    +0.000 A 
ATOM      7  N   UNL     1       5.526   3.954  13.892  0.00  0.00    +0.000 NA
BRANCH   2   9
ATOM      8  C   UNL     1       4.184   3.159  11.256  0.00  0.00    +0.000 C 
ATOM      9  C   UNL     1       5.545   2.710  11.764  0.00  0.00    +0.000 C 
ENDBRANCH   2   9
BRANCH   4  10
ATOM     10  O   UNL     1       8.979   5.925  13.038  0.00  0.00    +0.000 OA
ATOM     11  H   UNL     1       9.305   5.701  12.157  0.00  0.00    +0.000 HD
ENDBRANCH   4  10
ENDBRANCH   1   6
BRANCH   1  12
ATOM     12  C   UNL     1       6.687   4.954  17.439  0.00  0.00    +0.000 C 
BRANCH  12  13
ATOM     13  C   UNL     1       6.082   4.488  18.760  0.00  0.00    +0.000 C 
ATOM     14  O   UNL     1       6.356   5.036  19.827  0.00  0.00    +0.000 OA
ATOM     15  N   UNL     1       5.270   3.370  18.682  0.00  0.00    +0.000 N 
ATOM     16  H   UNL     1       4.837   3.180  17.783  0.00  0.00    +0.000 HD
BRANCH  15  17
ATOM     17  C   UNL     1       4.542   2.898  19.855  0.00  0.00    +0.000 C 
BRANCH  17  18
ATOM     18  C   UNL     1       3.022   3.045  19.742  0.00  0.00    +0.000 C 
ATOM     19  C   UNL     1       2.308   1.912  19.026  0.00  0.00    +0.000 C 
ATOM     20  C   UNL     1       0.985   2.561  18.698  0.00  0.00    +0.000 C 
ATOM     21  C   UNL     1       1.379   3.995  18.398  0.00  0.00    +0.000 C 
ATOM     22  O   UNL     1       2.654   4.236  19.021  0.00  0.00    +0.000 OA
ENDBRANCH  17  18
ENDBRANCH  15  17
ENDBRANCH  12  13
ENDBRANCH   1  12
TORSDOF 7
ENDMDL
MODEL 2
REMARK VINA RESULT:      -7.0      1.125      1.125
REMARK  Name = 
REMARK  8 active torsions:
REMARK  status: ('A' for Active; 'I' for Inactive)
REMARK    1  A    between atoms: C_1  and  C_2
REMARK    2  A    between atoms: C_2  and  C_3
REMARK    3  A    between atoms: C_5  and  O_6
REMARK    4  A    between atoms: C_8  and  S_9
REMARK    5  A    between atoms: S_9  and  C_10
REMARK    6  A    between atoms: C_10  and  C_11
REMARK    7  A    between atoms: N_13  and  C_14
REMARK    8  A    between atoms: C_14  and  C_15
REMARK                            x       y       z     vdW  Elec       q    Type
REMARK                         _______ _______ _______ _____ _____    ______ ____
ROOT
ATOM      1  S   UNL     1       5.473   5.226  16.254  0.00  0.00    +0.000 S 
ENDROOT
BRANCH   1   6
ATOM      2  C   UNL     1       6.219   3.753  12.644  0.00  0.00    +0.000 A 
ATOM      3  C   UNL     1       7.394   4.395  12.295  0.00  0.00    +0.000 A 
ATOM      4  C   UNL     1       7.893   5.265  13.230  0.00  0.00    +0.000 A 
ATOM      5  N   UNL     1       7.323   5.502  14.410  0.00  0.00    +0.000 NA
ATOM      6  C   UNL     1       6.193   4.836  14.676  0.00  0.00    +0.000 A 
ATOM      7  N   UNL     1       5.604   3.959  13.836  0.00  0.00    +0.000 NA
BRANCH   2   9
ATOM      8  C   UNL     1       4.163   3.181  11.304  0.00  0.00    +0.000 C 
ATOM      9  C   UNL     1       5.589   2.793  11.663  0.00  0.00    +0.000 C 
ENDBRANCH   2   9
BRANCH   4  10
ATOM     10  O   UNL     1       9.032   5.976  12.993  0.00  0.00    +0.000 OA
ATOM     11  H   UNL     1       9.352   5.774  12.104  0.00  0.00    +0.000 HD
ENDBRANCH   4  10
ENDBRANCH   1   6
BRANCH   1  12
ATOM     12  C   UNL     1       5.076   3.584  16.908  0.00  0.00    +0.000 C 
BRANCH  12  13
ATOM     13  C   UNL     1       4.927   3.664  18.424  0.00  0.00    +0.000 C 
ATOM     14  O   UNL     1       5.214   4.682  19.051  0.00  0.00    +0.000 OA
ATOM     15  N   UNL     1       4.520   2.495  19.045  0.00  0.00    +0.000 N 
ATOM     16  H   UNL     1       4.003   1.831  18.477  0.00  0.00    +0.000 HD
BRANCH  15  17
ATOM     17  C   UNL     1       4.230   2.476  20.474  0.00  0.00    +0.000 C 
BRANCH  17  18
ATOM     18  C   UNL     1       2.780   2.833  20.818  0.00  0.00    +0.000 C 
ATOM     19  C   UNL     1       1.741   2.385  19.805  0.00  0.00    +0.000 C 
ATOM     20  C   UNL     1       0.566   3.252  20.190  0.00  0.00    +0.000 C 
ATOM     21  C   UNL     1       1.229   4.552  20.604  0.00  0.00    +0.000 C 
ATOM     22  O   UNL     1       2.596   4.256  20.940  0.00  0.00    +0.000 OA
ENDBRANCH  17  18
ENDBRANCH  15  17
ENDBRANCH  12  13
ENDBRANCH   1  12
TORSDOF 7
ENDMDL
MODEL 3
REMARK VINA RESULT:      -7.0      1.450      1.589
REMARK  Name = 
REMARK  8 active torsions:
REMARK  status: ('A' for Active; 'I' for Inactive)
REMARK    1  A    between atoms: C_1  and  C_2
REMARK    2  A    between atoms: C_2  and  C_3
REMARK    3  A    between atoms: C_5  and  O_6
REMARK    4  A    between atoms: C_8  and  S_9
REMARK    5  A    between atoms: S_9  and  C_10
REMARK    6  A    between atoms: C_10  and  C_11
REMARK    7  A    between atoms: N_13  and  C_14
REMARK    8  A    between atoms: C_14  and  C_15
REMARK                            x       y       z     vdW  Elec       q    Type
REMARK                         _______ _______ _______ _____ _____    ______ ____
ROOT
ATOM      1  S   UNL     1       6.467   4.648  16.532  0.00  0.00    +0.000 S 
ENDROOT
BRANCH   1   6
ATOM      2  C   UNL     1       6.315   3.632  12.697  0.00  0.00    +0.000 A 
ATOM      3  C   UNL     1       7.241   4.486  12.124  0.00  0.00    +0.000 A 
ATOM      4  C   UNL     1       7.871   5.343  12.989  0.00  0.00    +0.000 A 
ATOM      5  N   UNL     1       7.644   5.381  14.301  0.00  0.00    +0.000 NA
ATOM      6  C   UNL     1       6.740   4.517  14.780  0.00  0.00    +0.000 A 
ATOM      7  N   UNL     1       6.054   3.631  14.029  0.00  0.00    +0.000 NA
BRANCH   2   9
ATOM      8  C   UNL     1       4.229   3.231  11.344  0.00  0.00    +0.000 C 
ATOM      9  C   UNL     1       5.561   2.668  11.813  0.00  0.00    +0.000 C 
ENDBRANCH   2   9
BRANCH   4  10
ATOM     10  O   UNL     1       8.785   6.250  12.542  0.00  0.00    +0.000 OA
ATOM     11  H   UNL     1       9.439   6.408  13.236  0.00  0.00    +0.000 HD
ENDBRANCH   4  10
ENDBRANCH   1   6
BRANCH   1  12
ATOM     12  C   UNL     1       5.853   6.344  16.695  0.00  0.00    +0.000 C 
BRANCH  12  13
ATOM     13  C   UNL     1       4.665   6.364  17.653  0.00  0.00    +0.000 C 
ATOM     14  O   UNL     1       3.732   7.154  17.512  0.00  0.00    +0.000 OA
ATOM     15  N   UNL     1       4.748   5.489  18.723  0.00  0.00    +0.000 N 
ATOM     16  H   UNL     1       5.344   4.675  18.604  0.00  0.00    +0.000 HD
BRANCH  15  17
ATOM     17  C   UNL     1       3.626   5.332  19.642  0.00  0.00    +0.000 C 
BRANCH  17  18
ATOM     18  C   UNL     1       2.953   3.959  19.569  0.00  0.00    +0.000 C 
ATOM     19  C   UNL     1       3.482   3.029  18.492  0.00  0.00    +0.000 C 
ATOM     20  C   UNL     1       2.360   2.023  18.397  0.00  0.00    +0.000 C 
ATOM     21  C   UNL     1       1.126   2.875  18.625  0.00  0.00    +0.000 C 
ATOM     22  O   UNL     1       1.541   4.070  19.308  0.00  0.00    +0.000 OA
ENDBRANCH  17  18
ENDBRANCH  15  17
ENDBRANCH  12  13
ENDBRANCH   1  12
TORSDOF 7
ENDMDL
MODEL 4
REMARK VINA RESULT:      -7.0      1.617      2.180
REMARK  Name = 
REMARK  8 active torsions:
REMARK  status: ('A' for Active; 'I' for Inactive)
REMARK    1  A    between atoms: C_1  and  C_2
REMARK    2  A    between atoms: C_2  and  C_3
REMARK    3  A    between atoms: C_5  and  O_6
REMARK    4  A    between atoms: C_8  and  S_9
REMARK    5  A    between atoms: S_9  and  C_10
REMARK    6  A    between atoms: C_10  and  C_11
REMARK    7  A    between atoms: N_13  and  C_14
REMARK    8  A    between atoms: C_14  and  C_15
REMARK                            x       y       z     vdW  Elec       q    Type
REMARK                         _______ _______ _______ _____ _____    ______ ____
ROOT
ATOM      1  S   UNL     1       6.112   4.512  16.622  0.00  0.00    +0.000 S 
ENDROOT
BRANCH   1   6
ATOM      2  C   UNL     1       6.242   3.692  12.740  0.00  0.00    +0.000 A 
ATOM      3  C   UNL     1       7.287   4.485  12.301  0.00  0.00    +0.000 A 
ATOM      4  C   UNL     1       7.902   5.242  13.265  0.00  0.00    +0.000 A 
ATOM      5  N   UNL     1       7.555   5.239  14.551  0.00  0.00    +0.000 NA
ATOM      6  C   UNL     1       6.539   4.438  14.898  0.00  0.00    +0.000 A 
ATOM      7  N   UNL     1       5.855   3.653  14.041  0.00  0.00    +0.000 NA
BRANCH   2   9
ATOM      8  C   UNL     1       6.291   1.620  11.309  0.00  0.00    +0.000 C 
ATOM      9  C   UNL     1       5.496   2.842  11.740  0.00  0.00    +0.000 C 
ENDBRANCH   2   9
BRANCH   4  10
ATOM     10  O   UNL     1       8.929   6.083  12.953  0.00  0.00    +0.000 OA
ATOM     11  H   UNL     1       9.744   5.570  12.874  0.00  0.00    +0.000 HD
ENDBRANCH   4  10
ENDBRANCH   1   6
BRANCH   1  12
ATOM     12  C   UNL     1       5.615   6.243  16.818  0.00  0.00    +0.000 C 
BRANCH  12  13
ATOM     13  C   UNL     1       4.182   6.305  17.336  0.00  0.00    +0.000 C 
ATOM     14  O   UNL     1       3.638   7.373  17.613  0.00  0.00    +0.000 OA
ATOM     15  N   UNL     1       3.569   5.080  17.540  0.00  0.00    +0.000 N 
ATOM     16  H   UNL     1       3.926   4.294  17.004  0.00  0.00    +0.000 HD
BRANCH  15  17
ATOM     17  C   UNL     1       2.163   5.008  17.923  0.00  0.00    +0.000 C 
BRANCH  17  18
ATOM     18  C   UNL     1       1.904   4.163  19.173  0.00  0.00    +0.000 C 
ATOM     19  C   UNL     1       2.025   4.900  20.496  0.00  0.00    +0.000 C 
ATOM     20  C   UNL     1       2.166   3.747  21.460  0.00  0.00    +0.000 C 
ATOM     21  C   UNL     1       2.980   2.742  20.667  0.00  0.00    +0.000 C 
ATOM     22  O   UNL     1       2.825   3.060  19.273  0.00  0.00    +0.000 OA
ENDBRANCH  17  18
ENDBRANCH  15  17
ENDBRANCH  12  13
ENDBRANCH   1  12
TORSDOF 7
ENDMDL
MODEL 5
REMARK VINA RESULT:      -6.9      1.587      1.854
REMARK  Name = 
REMARK  8 active torsions:
REMARK  status: ('A' for Active; 'I' for Inactive)
REMARK    1  A    between atoms: C_1  and  C_2
REMARK    2  A    between atoms: C_2  and  C_3
REMARK    3  A    between atoms: C_5  and  O_6
REMARK    4  A    between atoms: C_8  and  S_9
REMARK    5  A    between atoms: S_9  and  C_10
REMARK    6  A    between atoms: C_10  and  C_11
REMARK    7  A    between atoms: N_13  and  C_14
REMARK    8  A    between atoms: C_14  and  C_15
REMARK                            x       y       z     vdW  Elec       q    Type
REMARK                         _______ _______ _______ _____ _____    ______ ____
ROOT
ATOM      1  S   UNL     1       6.548   4.816  16.494  0.00  0.00    +0.000 S 
ENDROOT
BRANCH   1   6
ATOM      2  C   UNL     1       6.303   3.652  12.706  0.00  0.00    +0.000 A 
ATOM      3  C   UNL     1       7.221   4.476  12.079  0.00  0.00    +0.000 A 
ATOM      4  C   UNL     1       7.875   5.362  12.896  0.00  0.00    +0.000 A 
ATOM      5  N   UNL     1       7.679   5.453  14.210  0.00  0.00    +0.000 NA
ATOM      6  C   UNL     1       6.780   4.615  14.743  0.00  0.00    +0.000 A 
ATOM      7  N   UNL     1       6.072   3.705  14.043  0.00  0.00    +0.000 NA
BRANCH   2   9
ATOM      8  C   UNL     1       6.420   1.635  11.202  0.00  0.00    +0.000 C 
ATOM      9  C   UNL     1       5.523   2.660  11.878  0.00  0.00    +0.000 C 
ENDBRANCH   2   9
BRANCH   4  10
ATOM     10  O   UNL     1       8.785   6.244  12.393  0.00  0.00    +0.000 OA
ATOM     11  H   UNL     1       8.508   7.144  12.611  0.00  0.00    +0.000 HD
ENDBRANCH   4  10
ENDBRANCH   1   6
BRANCH   1  12
ATOM     12  C   UNL     1       4.815   4.330  16.705  0.00  0.00    +0.000 C 
BRANCH  12  13
ATOM     13  C   UNL     1       4.403   4.536  18.160  0.00  0.00    +0.000 C 
ATOM     14  O   UNL     1       4.960   3.940  19.081  0.00  0.00    +0.000 OA
ATOM     15  N   UNL     1       3.320   5.375  18.360  0.00  0.00    +0.000 N 
ATOM     16  H   UNL     1       3.132   6.060  17.634  0.00  0.00    +0.000 HD
BRANCH  15  17
ATOM     17  C   UNL     1       2.905   5.742  19.709  0.00  0.00    +0.000 C 
BRANCH  17  18
ATOM     18  C   UNL     1       1.834   4.819  20.300  0.00  0.00    +0.000 C 
ATOM     19  C   UNL     1       2.325   3.843  21.355  0.00  0.00    +0.000 C 
ATOM     20  C   UNL     1       1.195   2.842  21.374  0.00  0.00    +0.000 C 
ATOM     21  C   UNL     1       0.769   2.788  19.918  0.00  0.00    +0.000 C 
ATOM     22  O   UNL     1       1.218   4.001  19.288  0.00  0.00    +0.000 OA
ENDBRANCH  17  18
ENDBRANCH  15  17
ENDBRANCH  12  13
ENDBRANCH   1  12
TORSDOF 7
ENDMDL
MODEL 6
REMARK VINA RESULT:      -6.9      1.957      2.348
REMARK  Name = 
REMARK  8 active torsions:
REMARK  status: ('A' for Active; 'I' for Inactive)
REMARK    1  A    between atoms: C_1  and  C_2
REMARK    2  A    between atoms: C_2  and  C_3
REMARK    3  A    between atoms: C_5  and  O_6
REMARK    4  A    between atoms: C_8  and  S_9
REMARK    5  A    between atoms: S_9  and  C_10
REMARK    6  A    between atoms: C_10  and  C_11
REMARK    7  A    between atoms: N_13  and  C_14
REMARK    8  A    between atoms: C_14  and  C_15
REMARK                            x       y       z     vdW  Elec       q    Type
REMARK                         _______ _______ _______ _____ _____    ______ ____
ROOT
ATOM      1  S   UNL     1       5.328   5.285  16.284  0.00  0.00    +0.000 S 
ENDROOT
BRANCH   1   6
ATOM      2  C   UNL     1       6.173   3.734  12.729  0.00  0.00    +0.000 A 
ATOM      3  C   UNL     1       7.363   4.362  12.402  0.00  0.00    +0.000 A 
ATOM      4  C   UNL     1       7.838   5.249  13.334  0.00  0.00    +0.000 A 
ATOM      5  N   UNL     1       7.235   5.513  14.491  0.00  0.00    +0.000 NA
ATOM      6  C   UNL     1       6.093   4.858  14.737  0.00  0.00    +0.000 A 
ATOM      7  N   UNL     1       5.524   3.967  13.898  0.00  0.00    +0.000 NA
BRANCH   2   9
ATOM      8  C   UNL     1       4.175   3.170  11.302  0.00  0.00    +0.000 C 
ATOM      9  C   UNL     1       5.568   2.757  11.750  0.00  0.00    +0.000 C 
ENDBRANCH   2   9
BRANCH   4  10
ATOM     10  O   UNL     1       8.988   5.949  13.117  0.00  0.00    +0.000 OA
ATOM     11  H   UNL     1       9.722   5.494  13.550  0.00  0.00    +0.000 HD
ENDBRANCH   4  10
ENDBRANCH   1   6
BRANCH   1  12
ATOM     12  C   UNL     1       4.685   3.686  16.844  0.00  0.00    +0.000 C 
BRANCH  12  13
ATOM     13  C   UNL     1       3.225   3.843  17.257  0.00  0.00    +0.000 C 
ATOM     14  O   UNL     1       2.362   3.040  16.907  0.00  0.00    +0.000 OA
ATOM     15  N   UNL     1       2.931   4.984  17.986  0.00  0.00    +0.000 N 
ATOM     16  H   UNL     1       3.697   5.407  18.502  0.00  0.00    +0.000 HD
BRANCH  15  17
ATOM     17  C   UNL     1       1.597   5.189  18.537  0.00  0.00    +0.000 C 
BRANCH  17  18
ATOM     18  C   UNL     1       1.401   4.582  19.929  0.00  0.00    +0.000 C 
ATOM     19  C   UNL     1       2.658   4.469  20.774  0.00  0.00    +0.000 C 
ATOM     20  C   UNL     1       2.220   3.468  21.816  0.00  0.00    +0.000 C 
ATOM     21  C   UNL     1       1.320   2.535  21.028  0.00  0.00    +0.000 C 
ATOM     22  O   UNL     1       0.875   3.244  19.858  0.00  0.00    +0.000 OA
ENDBRANCH  17  18
ENDBRANCH  15  17
ENDBRANCH  12  13
ENDBRANCH   1  12
TORSDOF 7
ENDMDL
MODEL 7
REMARK VINA RESULT:      -6.9      2.575      3.175
REMARK  Name = 
REMARK  8 active torsions:
REMARK  status: ('A' for Active; 'I' for Inactive)
REMARK    1  A    between atoms: C_1  and  C_2
REMARK    2  A    between atoms: C_2  and  C_3
REMARK    3  A    between atoms: C_5  and  O_6
REMARK    4  A    between atoms: C_8  and  S_9
REMARK    5  A    between atoms: S_9  and  C_10
REMARK    6  A    between atoms: C_10  and  C_11
REMARK    7  A    between atoms: N_13  and  C_14
REMARK    8  A    between atoms: C_14  and  C_15
REMARK                            x       y       z     vdW  Elec       q    Type
REMARK                         _______ _______ _______ _____ _____    ______ ____
ROOT
ATOM      1  S   UNL     1       6.046   4.910  16.623  0.00  0.00    +0.000 S 
ENDROOT
BRANCH   1   6
ATOM      2  C   UNL     1       6.293   3.713  12.846  0.00  0.00    +0.000 A 
ATOM      3  C   UNL     1       7.359   4.454  12.365  0.00  0.00    +0.000 A 
ATOM      4  C   UNL     1       7.947   5.299  13.271  0.00  0.00    +0.000 A 
ATOM      5  N   UNL     1       7.560   5.424  14.538  0.00  0.00    +0.000 NA
ATOM      6  C   UNL     1       6.528   4.666  14.929  0.00  0.00    +0.000 A 
ATOM      7  N   UNL     1       5.865   3.803  14.131  0.00  0.00    +0.000 NA
BRANCH   2   9
ATOM      8  C   UNL     1       4.239   3.328  11.440  0.00  0.00    +0.000 C 
ATOM      9  C   UNL     1       5.573   2.772  11.910  0.00  0.00    +0.000 C 
ENDBRANCH   2   9
BRANCH   4  10
ATOM     10  O   UNL     1       8.990   6.100  12.911  0.00  0.00    +0.000 OA
ATOM     11  H   UNL     1       9.588   6.198  13.664  0.00  0.00    +0.000 HD
ENDBRANCH   4  10
ENDBRANCH   1   6
BRANCH   1  12
ATOM     12  C   UNL     1       4.637   3.782  16.783  0.00  0.00    +0.000 C 
BRANCH  12  13
ATOM     13  C   UNL     1       3.640   4.354  17.787  0.00  0.00    +0.000 C 
ATOM     14  O   UNL     1       2.557   3.814  18.005  0.00  0.00    +0.000 OA
ATOM     15  N   UNL     1       4.008   5.553  18.374  0.00  0.00    +0.000 N 
ATOM     16  H   UNL     1       5.002   5.761  18.407  0.00  0.00    +0.000 HD
BRANCH  15  17
ATOM     17  C   UNL     1       3.196   6.141  19.433  0.00  0.00    +0.000 C 
BRANCH  17  18
ATOM     18  C   UNL     1       2.178   7.171  18.934  0.00  0.00    +0.000 C 
ATOM     19  C   UNL     1       2.676   8.105  17.844  0.00  0.00    +0.000 C 
ATOM     20  C   UNL     1       1.654   9.213  17.921  0.00  0.00    +0.000 C 
ATOM     21  C   UNL     1       1.356   9.295  19.406  0.00  0.00    +0.000 C 
ATOM     22  O   UNL     1       1.732   8.037  19.995  0.00  0.00    +0.000 OA
ENDBRANCH  17  18
ENDBRANCH  15  17
ENDBRANCH  12  13
ENDBRANCH   1  12
TORSDOF 7
ENDMDL
MODEL 8
REMARK VINA RESULT:      -6.8      1.524      1.650
REMARK  Name = 
REMARK  8 active torsions:
REMARK  status: ('A' for Active; 'I' for Inactive)
REMARK    1  A    between atoms: C_1  and  C_2
REMARK    2  A    between atoms: C_2  and  C_3
REMARK    3  A    between atoms: C_5  and  O_6
REMARK    4  A    between atoms: C_8  and  S_9
REMARK    5  A    between atoms: S_9  and  C_10
REMARK    6  A    between atoms: C_10  and  C_11
REMARK    7  A    between atoms: N_13  and  C_14
REMARK    8  A    between atoms: C_14  and  C_15
REMARK                            x       y       z     vdW  Elec       q    Type
REMARK                         _______ _______ _______ _____ _____    ______ ____
ROOT
ATOM      1  S   UNL     1       7.098   4.747  16.491  0.00  0.00    +0.000 S 
ENDROOT
BRANCH   1   6
ATOM      2  C   UNL     1       6.404   3.693  12.727  0.00  0.00    +0.000 A 
ATOM      3  C   UNL     1       7.192   4.582  12.016  0.00  0.00    +0.000 A 
ATOM      4  C   UNL     1       7.908   5.473  12.773  0.00  0.00    +0.000 A 
ATOM      5  N   UNL     1       7.884   5.512  14.104  0.00  0.00    +0.000 NA
ATOM      6  C   UNL     1       7.104   4.613  14.718  0.00  0.00    +0.000 A 
ATOM      7  N   UNL     1       6.351   3.691  14.083  0.00  0.00    +0.000 NA
BRANCH   2   9
ATOM      8  C   UNL     1       4.283   3.295  11.428  0.00  0.00    +0.000 C 
ATOM      9  C   UNL     1       5.567   2.689  11.971  0.00  0.00    +0.000 C 
ENDBRANCH   2   9
BRANCH   4  10
ATOM     10  O   UNL     1       8.701   6.416  12.189  0.00  0.00    +0.000 OA
ATOM     11  H   UNL     1       9.627   6.207  12.371  0.00  0.00    +0.000 HD
ENDBRANCH   4  10
ENDBRANCH   1   6
BRANCH   1  12
ATOM     12  C   UNL     1       5.396   5.271  16.826  0.00  0.00    +0.000 C 
BRANCH  12  13
ATOM     13  C   UNL     1       4.653   4.151  17.548  0.00  0.00    +0.000 C 
ATOM     14  O   UNL     1       3.858   3.418  16.962  0.00  0.00    +0.000 OA
ATOM     15  N   UNL     1       4.880   4.068  18.912  0.00  0.00    +0.000 N 
ATOM     16  H   UNL     1       5.752   4.458  19.256  0.00  0.00    +0.000 HD
BRANCH  15  17
ATOM     17  C   UNL     1       4.319   2.970  19.692  0.00  0.00    +0.000 C 
BRANCH  17  18
ATOM     18  C   UNL     1       3.069   3.353  20.489  0.00  0.00    +0.000 C 
ATOM     19  C   UNL     1       2.631   2.345  21.538  0.00  0.00    +0.000 C 
ATOM     20  C   UNL     1       1.207   2.781  21.785  0.00  0.00    +0.000 C 
ATOM     21  C   UNL     1       0.748   3.226  20.409  0.00  0.00    +0.000 C 
ATOM     22  O   UNL     1       1.923   3.526  19.635  0.00  0.00    +0.000 OA
ENDBRANCH  17  18
ENDBRANCH  15  17
ENDBRANCH  12  13
ENDBRANCH   1  12
TORSDOF 7
ENDMDL
MODEL 9
REMARK VINA RESULT:      -6.7      3.218      4.981
REMARK  Name = 
REMARK  8 active torsions:
REMARK  status: ('A' for Active; 'I' for Inactive)
REMARK    1  A    between atoms: C_1  and  C_2
REMARK    2  A    between atoms: C_2  and  C_3
REMARK    3  A    between atoms: C_5  and  O_6
REMARK    4  A    between atoms: C_8  and  S_9
REMARK    5  A    between atoms: S_9  and  C_10
REMARK    6  A    between atoms: C_10  and  C_11
REMARK    7  A    between atoms: N_13  and  C_14
REMARK    8  A    between atoms: C_14  and  C_15
REMARK                            x       y       z     vdW  Elec       q    Type
REMARK                         _______ _______ _______ _____ _____    ______ ____
ROOT
ATOM      1  S   UNL     1       6.735   4.685  15.545  0.00  0.00    +0.000 S 
ENDROOT
BRANCH   1   6
ATOM      2  C   UNL     1       7.907   7.782  17.735  0.00  0.00    +0.000 A 
ATOM      3  C   UNL     1       8.217   7.191  18.948  0.00  0.00    +0.000 A 
ATOM      4  C   UNL     1       8.038   5.833  19.007  0.00  0.00    +0.000 A 
ATOM      5  N   UNL     1       7.606   5.091  17.990  0.00  0.00    +0.000 NA
ATOM      6  C   UNL     1       7.337   5.734  16.847  0.00  0.00    +0.000 A 
ATOM      7  N   UNL     1       7.468   7.066  16.668  0.00  0.00    +0.000 NA
BRANCH   2   9
ATOM      8  C   UNL     1       8.883   9.891  18.706  0.00  0.00    +0.000 C 
ATOM      9  C   UNL     1       8.056   9.277  17.588  0.00  0.00    +0.000 C 
ENDBRANCH   2   9
BRANCH   4  10
ATOM     10  O   UNL     1       8.285   5.140  20.155  0.00  0.00    +0.000 OA
ATOM     11  H   UNL     1       7.497   5.162  20.713  0.00  0.00    +0.000 HD
ENDBRANCH   4  10
ENDBRANCH   1   6
BRANCH   1  12
ATOM     12  C   UNL     1       4.939   4.803  15.761  0.00  0.00    +0.000 C 
BRANCH  12  13
ATOM     13  C   UNL     1       4.566   4.350  17.169  0.00  0.00    +0.000 C 
ATOM     14  O   UNL     1       4.483   3.159  17.465  0.00  0.00    +0.000 OA
ATOM     15  N   UNL     1       4.257   5.364  18.059  0.00  0.00    +0.000 N 
ATOM     16  H   UNL     1       4.650   6.280  17.864  0.00  0.00    +0.000 HD
BRANCH  15  17
ATOM     17  C   UNL     1       3.997   5.066  19.463  0.00  0.00    +0.000 C 
BRANCH  17  18
ATOM     18  C   UNL     1       2.863   4.061  19.684  0.00  0.00    +0.000 C 
ATOM     19  C   UNL     1       1.563   4.648  20.204  0.00  0.00    +0.000 C 
ATOM     20  C   UNL     1       0.870   3.411  20.721  0.00  0.00    +0.000 C 
ATOM     21  C   UNL     1       2.019   2.588  21.272  0.00  0.00    +0.000 C 
ATOM     22  O   UNL     1       3.227   3.048  20.641  0.00  0.00    +0.000 OA
ENDBRANCH  17  18
ENDBRANCH  15  17
ENDBRANCH  12  13
ENDBRANCH   1  12
TORSDOF 7
ENDMDL
