MODEL 1
REMARK VINA RESULT:      -8.7      0.000      0.000
REMARK  Name = 
REMARK  6 active torsions:
REMARK  status: ('A' for Active; 'I' for Inactive)
REMARK    1  A    between atoms: C_2  and  C_15
REMARK    2  A    between atoms: N_3  and  C_4
REMARK    3  A    between atoms: C_7  and  O_8
REMARK    4  A    between atoms: O_8  and  C_9
REMARK    5  A    between atoms: C_18  and  C_19
REMARK    6  A    between atoms: C_19  and  N_20
REMARK                            x       y       z     vdW  Elec       q    Type
REMARK                         _______ _______ _______ _____ _____    ______ ____
ROOT
ATOM      1  C   UNL     1       8.352   8.745  18.462  0.00  0.00    +0.000 A 
ATOM      2  C   UNL     1       8.621   7.589  19.202  0.00  0.00    +0.000 A 
ATOM      3  C   UNL     1       8.037   6.369  18.847  0.00  0.00    +0.000 A 
ATOM      4  C   UNL     1       7.168   6.285  17.752  0.00  0.00    +0.000 A 
ATOM      5  C   UNL     1       6.902   7.446  17.012  0.00  0.00    +0.000 A 
ATOM      6  C   UNL     1       7.490   8.669  17.342  0.00  0.00    +0.000 A 
ENDROOT
BRANCH   1   8
ATOM      7  O   UNL     1       9.413  10.124  20.002  0.00  0.00    +0.000 OA
ATOM      8  C   UNL     1       9.026  10.010  18.846  0.00  0.00    +0.000 C 
ATOM      9  N   UNL     1       9.075  10.975  17.855  0.00  0.00    +0.000 N 
ATOM     10  H   UNL     1       8.551  10.794  17.006  0.00  0.00    +0.000 HD
BRANCH   9  11
ATOM     11  C   UNL     1       9.665  12.253  17.958  0.00  0.00    +0.000 A 
ATOM     12  C   UNL     1      10.973  12.536  17.572  0.00  0.00    +0.000 A 
ATOM     13  C   UNL     1      11.485  13.834  17.702  0.00  0.00    +0.000 A 
ATOM     14  C   UNL     1      10.694  14.868  18.201  0.00  0.00    +0.000 A 
ATOM     15  C   UNL     1       9.393  14.584  18.613  0.00  0.00    +0.000 A 
ATOM     16  C   UNL     1       8.876  13.289  18.466  0.00  0.00    +0.000 A 
BRANCH  14  17
ATOM     17  O   UNL     1      11.316  16.069  18.318  0.00  0.00    +0.000 OA
BRANCH  17  18
ATOM     18  C   UNL     1      10.980  17.125  17.428  0.00  0.00    +0.000 C 
ATOM     19  F   UNL     1      10.444  16.722  16.258  0.00  0.00    +0.000 F 
ATOM     20  F   UNL     1      10.104  17.954  18.037  0.00  0.00    +0.000 F 
ATOM     21  F   UNL     1      12.100  17.832  17.151  0.00  0.00    +0.000 F 
ENDBRANCH  17  18
ENDBRANCH  14  17
ENDBRANCH   9  11
ENDBRANCH   1   8
BRANCH   4  22
ATOM     22  C   UNL     1       6.584   4.941  17.349  0.00  0.00    +0.000 C 
BRANCH  22  23
ATOM     23  N   UNL     1       5.135   4.812  17.331  0.00  0.00    +0.000 NA
ATOM     24  C   UNL     1       4.385   5.433  18.418  0.00  0.00    +0.000 C 
ATOM     25  C   UNL     1       2.878   5.514  18.043  0.00  0.00    +0.000 C 
ATOM     26  C   UNL     1       2.357   4.107  17.830  0.00  0.00    +0.000 A 
ATOM     27  C   UNL     1       1.059   3.758  18.187  0.00  0.00    +0.000 A 
ATOM     28  C   UNL     1       0.865   2.520  18.785  0.00  0.00    +0.000 A 
ATOM     29  C   UNL     1       1.957   1.669  18.987  0.00  0.00    +0.000 A 
ATOM     30  C   UNL     1       3.185   1.943  18.380  0.00  0.00    +0.000 A 
ATOM     31  C   UNL     1       3.347   3.129  17.678  0.00  0.00    +0.000 A 
ATOM     32  C   UNL     1       4.598   3.516  16.921  0.00  0.00    +0.000 C 
ENDBRANCH  22  23
ENDBRANCH   4  22
TORSDOF 6
ENDMDL
MODEL 2
REMARK VINA RESULT:      -8.6      1.574      2.388
REMARK  Name = 
REMARK  6 active torsions:
REMARK  status: ('A' for Active; 'I' for Inactive)
REMARK    1  A    between atoms: C_2  and  C_15
REMARK    2  A    between atoms: N_3  and  C_4
REMARK    3  A    between atoms: C_7  and  O_8
REMARK    4  A    between atoms: O_8  and  C_9
REMARK    5  A    between atoms: C_18  and  C_19
REMARK    6  A    between atoms: C_19  and  N_20
REMARK                            x       y       z     vdW  Elec       q    Type
REMARK                         _______ _______ _______ _____ _____    ______ ____
ROOT
ATOM      1  C   UNL     1       7.295   6.967  17.733  0.00  0.00    +0.000 A 
ATOM      2  C   UNL     1       6.431   7.226  16.665  0.00  0.00    +0.000 A 
ATOM      3  C   UNL     1       5.601   6.219  16.165  0.00  0.00    +0.000 A 
ATOM      4  C   UNL     1       5.625   4.933  16.717  0.00  0.00    +0.000 A 
ATOM      5  C   UNL     1       6.492   4.677  17.790  0.00  0.00    +0.000 A 
ATOM      6  C   UNL     1       7.315   5.676  18.313  0.00  0.00    +0.000 A 
ENDROOT
BRANCH   1   8
ATOM      7  O   UNL     1       8.879   7.832  19.197  0.00  0.00    +0.000 OA
ATOM      8  C   UNL     1       8.129   8.075  18.261  0.00  0.00    +0.000 C 
ATOM      9  N   UNL     1       7.905   9.309  17.676  0.00  0.00    +0.000 N 
ATOM     10  H   UNL     1       7.122   9.384  17.036  0.00  0.00    +0.000 HD
BRANCH   9  11
ATOM     11  C   UNL     1       8.567  10.517  17.986  0.00  0.00    +0.000 A 
ATOM     12  C   UNL     1       9.700  10.595  18.792  0.00  0.00    +0.000 A 
ATOM     13  C   UNL     1      10.302  11.833  19.050  0.00  0.00    +0.000 A 
ATOM     14  C   UNL     1       9.795  13.006  18.493  0.00  0.00    +0.000 A 
ATOM     15  C   UNL     1       8.646  12.936  17.706  0.00  0.00    +0.000 A 
ATOM     16  C   UNL     1       8.055  11.694  17.434  0.00  0.00    +0.000 A 
BRANCH  14  17
ATOM     17  O   UNL     1      10.440  14.145  18.850  0.00  0.00    +0.000 OA
BRANCH  17  18
ATOM     18  C   UNL     1      10.714  15.137  17.869  0.00  0.00    +0.000 C 
ATOM     19  F   UNL     1      11.169  14.651  16.696  0.00  0.00    +0.000 F 
ATOM     20  F   UNL     1       9.588  15.845  17.631  0.00  0.00    +0.000 F 
ATOM     21  F   UNL     1      11.646  15.986  18.358  0.00  0.00    +0.000 F 
ENDBRANCH  17  18
ENDBRANCH  14  17
ENDBRANCH   9  11
ENDBRANCH   1   8
BRANCH   4  22
ATOM     22  C   UNL     1       4.677   3.865  16.197  0.00  0.00    +0.000 C 
BRANCH  22  23
ATOM     23  N   UNL     1       3.510   3.547  17.005  0.00  0.00    +0.000 NA
ATOM     24  C   UNL     1       2.748   4.659  17.566  0.00  0.00    +0.000 C 
ATOM     25  C   UNL     1       1.366   4.154  18.066  0.00  0.00    +0.000 C 
ATOM     26  C   UNL     1       1.592   3.120  19.151  0.00  0.00    +0.000 A 
ATOM     27  C   UNL     1       0.728   3.011  20.235  0.00  0.00    +0.000 A 
ATOM     28  C   UNL     1       1.286   2.787  21.486  0.00  0.00    +0.000 A 
ATOM     29  C   UNL     1       2.674   2.658  21.613  0.00  0.00    +0.000 A 
ATOM     30  C   UNL     1       3.474   2.510  20.478  0.00  0.00    +0.000 A 
ATOM     31  C   UNL     1       2.897   2.616  19.220  0.00  0.00    +0.000 A 
ATOM     32  C   UNL     1       3.634   2.410  17.916  0.00  0.00    +0.000 C 
ENDBRANCH  22  23
ENDBRANCH   4  22
TORSDOF 6
ENDMDL
MODEL 3
REMARK VINA RESULT:      -8.5      0.312      1.419
REMARK  Name = 
REMARK  6 active torsions:
REMARK  status: ('A' for Active; 'I' for Inactive)
REMARK    1  A    between atoms: C_2  and  C_15
REMARK    2  A    between atoms: N_3  and  C_4
REMARK    3  A    between atoms: C_7  and  O_8
REMARK    4  A    between atoms: O_8  and  C_9
REMARK    5  A    between atoms: C_18  and  C_19
REMARK    6  A    between atoms: C_19  and  N_20
REMARK                            x       y       z     vdW  Elec       q    Type
REMARK                         _______ _______ _______ _____ _____    ______ ____
ROOT
ATOM      1  C   UNL     1       8.499   8.917  18.502  0.00  0.00    +0.000 A 
ATOM      2  C   UNL     1       7.773   8.828  17.311  0.00  0.00    +0.000 A 
ATOM      3  C   UNL     1       7.241   7.604  16.895  0.00  0.00    +0.000 A 
ATOM      4  C   UNL     1       7.432   6.445  17.658  0.00  0.00    +0.000 A 
ATOM      5  C   UNL     1       8.160   6.539  18.853  0.00  0.00    +0.000 A 
ATOM      6  C   UNL     1       8.683   7.757  19.292  0.00  0.00    +0.000 A 
ENDROOT
BRANCH   1   8
ATOM      7  O   UNL     1       9.168  10.438  20.127  0.00  0.00    +0.000 OA
ATOM      8  C   UNL     1       9.010  10.243  18.929  0.00  0.00    +0.000 C 
ATOM      9  N   UNL     1       9.183  11.162  17.909  0.00  0.00    +0.000 N 
ATOM     10  H   UNL     1       8.838  10.906  16.991  0.00  0.00    +0.000 HD
BRANCH   9  11
ATOM     11  C   UNL     1       9.663  12.483  18.042  0.00  0.00    +0.000 A 
ATOM     12  C   UNL     1       8.948  13.509  18.657  0.00  0.00    +0.000 A 
ATOM     13  C   UNL     1       9.496  14.795  18.752  0.00  0.00    +0.000 A 
ATOM     14  C   UNL     1      10.769  15.070  18.254  0.00  0.00    +0.000 A 
ATOM     15  C   UNL     1      11.476  14.053  17.615  0.00  0.00    +0.000 A 
ATOM     16  C   UNL     1      10.935  12.762  17.535  0.00  0.00    +0.000 A 
BRANCH  14  17
ATOM     17  O   UNL     1      11.171  16.361  18.369  0.00  0.00    +0.000 OA
BRANCH  17  18
ATOM     18  C   UNL     1      10.799  17.306  17.374  0.00  0.00    +0.000 C 
ATOM     19  F   UNL     1       9.774  18.110  17.723  0.00  0.00    +0.000 F 
ATOM     20  F   UNL     1      11.867  18.078  17.077  0.00  0.00    +0.000 F 
ATOM     21  F   UNL     1      10.441  16.638  16.253  0.00  0.00    +0.000 F 
ENDBRANCH  17  18
ENDBRANCH  14  17
ENDBRANCH   9  11
ENDBRANCH   1   8
BRANCH   4  22
ATOM     22  C   UNL     1       6.801   5.135  17.218  0.00  0.00    +0.000 C 
BRANCH  22  23
ATOM     23  N   UNL     1       5.350   5.041  17.246  0.00  0.00    +0.000 NA
ATOM     24  C   UNL     1       4.658   5.569  18.418  0.00  0.00    +0.000 C 
ATOM     25  C   UNL     1       3.141   5.721  18.113  0.00  0.00    +0.000 C 
ATOM     26  C   UNL     1       2.575   4.354  17.784  0.00  0.00    +0.000 A 
ATOM     27  C   UNL     1       1.282   4.001  18.157  0.00  0.00    +0.000 A 
ATOM     28  C   UNL     1       1.077   2.714  18.638  0.00  0.00    +0.000 A 
ATOM     29  C   UNL     1       2.153   1.823  18.712  0.00  0.00    +0.000 A 
ATOM     30  C   UNL     1       3.365   2.127  18.086  0.00  0.00    +0.000 A 
ATOM     31  C   UNL     1       3.532   3.373  17.498  0.00  0.00    +0.000 A 
ATOM     32  C   UNL     1       4.764   3.804  16.733  0.00  0.00    +0.000 C 
ENDBRANCH  22  23
ENDBRANCH   4  22
TORSDOF 6
ENDMDL
MODEL 4
REMARK VINA RESULT:      -8.5      1.097      2.075
REMARK  Name = 
REMARK  6 active torsions:
REMARK  status: ('A' for Active; 'I' for Inactive)
REMARK    1  A    between atoms: C_2  and  C_15
REMARK    2  A    between atoms: N_3  and  C_4
REMARK    3  A    between atoms: C_7  and  O_8
REMARK    4  A    between atoms: O_8  and  C_9
REMARK    5  A    between atoms: C_18  and  C_19
REMARK    6  A    between atoms: C_19  and  N_20
REMARK                            x       y       z     vdW  Elec       q    Type
REMARK                         _______ _______ _______ _____ _____    ______ ____
ROOT
ATOM      1  C   UNL     1       8.268   8.382  18.381  0.00  0.00    +0.000 A 
ATOM      2  C   UNL     1       7.403   8.354  17.283  0.00  0.00    +0.000 A 
ATOM      3  C   UNL     1       6.802   7.156  16.885  0.00  0.00    +0.000 A 
ATOM      4  C   UNL     1       7.060   5.964  17.572  0.00  0.00    +0.000 A 
ATOM      5  C   UNL     1       7.927   5.996  18.675  0.00  0.00    +0.000 A 
ATOM      6  C   UNL     1       8.522   7.187  19.096  0.00  0.00    +0.000 A 
ENDROOT
BRANCH   1   8
ATOM      7  O   UNL     1       9.177   9.815  19.968  0.00  0.00    +0.000 OA
ATOM      8  C   UNL     1       8.851   9.682  18.796  0.00  0.00    +0.000 C 
ATOM      9  N   UNL     1       8.891  10.650  17.808  0.00  0.00    +0.000 N 
ATOM     10  H   UNL     1       8.418  10.442  16.936  0.00  0.00    +0.000 HD
BRANCH   9  11
ATOM     11  C   UNL     1       9.403  11.959  17.938  0.00  0.00    +0.000 A 
ATOM     12  C   UNL     1       8.622  13.069  18.254  0.00  0.00    +0.000 A 
ATOM     13  C   UNL     1       9.207  14.337  18.367  0.00  0.00    +0.000 A 
ATOM     14  C   UNL     1      10.578  14.512  18.185  0.00  0.00    +0.000 A 
ATOM     15  C   UNL     1      11.358  13.410  17.843  0.00  0.00    +0.000 A 
ATOM     16  C   UNL     1      10.776  12.138  17.747  0.00  0.00    +0.000 A 
BRANCH  14  17
ATOM     17  O   UNL     1      11.017  15.793  18.280  0.00  0.00    +0.000 OA
BRANCH  17  18
ATOM     18  C   UNL     1      10.857  16.676  17.177  0.00  0.00    +0.000 C 
ATOM     19  F   UNL     1      10.814  16.066  15.974  0.00  0.00    +0.000 F 
ATOM     20  F   UNL     1       9.717  17.383  17.339  0.00  0.00    +0.000 F 
ATOM     21  F   UNL     1      11.891  17.547  17.165  0.00  0.00    +0.000 F 
ENDBRANCH  17  18
ENDBRANCH  14  17
ENDBRANCH   9  11
ENDBRANCH   1   8
BRANCH   4  22
ATOM     22  C   UNL     1       6.357   4.682  17.159  0.00  0.00    +0.000 C 
BRANCH  22  23
ATOM     23  N   UNL     1       5.449   4.071  18.118  0.00  0.00    +0.000 NA
ATOM     24  C   UNL     1       4.338   3.283  17.594  0.00  0.00    +0.000 C 
ATOM     25  C   UNL     1       3.716   2.423  18.731  0.00  0.00    +0.000 C 
ATOM     26  C   UNL     1       3.192   3.353  19.807  0.00  0.00    +0.000 A 
ATOM     27  C   UNL     1       2.040   3.047  20.523  0.00  0.00    +0.000 A 
ATOM     28  C   UNL     1       1.154   4.082  20.793  0.00  0.00    +0.000 A 
ATOM     29  C   UNL     1       1.452   5.380  20.362  0.00  0.00    +0.000 A 
ATOM     30  C   UNL     1       2.728   5.687  19.885  0.00  0.00    +0.000 A 
ATOM     31  C   UNL     1       3.659   4.670  19.726  0.00  0.00    +0.000 A 
ATOM     32  C   UNL     1       5.090   4.876  19.285  0.00  0.00    +0.000 C 
ENDBRANCH  22  23
ENDBRANCH   4  22
TORSDOF 6
ENDMDL
MODEL 5
REMARK VINA RESULT:      -8.3      1.905      2.575
REMARK  Name = 
REMARK  6 active torsions:
REMARK  status: ('A' for Active; 'I' for Inactive)
REMARK    1  A    between atoms: C_2  and  C_15
REMARK    2  A    between atoms: N_3  and  C_4
REMARK    3  A    between atoms: C_7  and  O_8
REMARK    4  A    between atoms: O_8  and  C_9
REMARK    5  A    between atoms: C_18  and  C_19
REMARK    6  A    between atoms: C_19  and  N_20
REMARK                            x       y       z     vdW  Elec       q    Type
REMARK                         _______ _______ _______ _____ _____    ______ ____
ROOT
ATOM      1  C   UNL     1       7.308   7.149  17.834  0.00  0.00    +0.000 A 
ATOM      2  C   UNL     1       7.482   5.825  18.249  0.00  0.00    +0.000 A 
ATOM      3  C   UNL     1       6.659   4.811  17.749  0.00  0.00    +0.000 A 
ATOM      4  C   UNL     1       5.641   5.104  16.832  0.00  0.00    +0.000 A 
ATOM      5  C   UNL     1       5.471   6.433  16.417  0.00  0.00    +0.000 A 
ATOM      6  C   UNL     1       6.296   7.454  16.893  0.00  0.00    +0.000 A 
ENDROOT
BRANCH   1   8
ATOM      7  O   UNL     1       9.060   7.849  19.191  0.00  0.00    +0.000 OA
ATOM      8  C   UNL     1       8.231   8.187  18.356  0.00  0.00    +0.000 C 
ATOM      9  N   UNL     1       7.998   9.469  17.889  0.00  0.00    +0.000 N 
ATOM     10  H   UNL     1       7.160   9.616  17.339  0.00  0.00    +0.000 HD
BRANCH   9  11
ATOM     11  C   UNL     1       8.733  10.628  18.219  0.00  0.00    +0.000 A 
ATOM     12  C   UNL     1       8.647  11.826  17.515  0.00  0.00    +0.000 A 
ATOM     13  C   UNL     1       9.409  12.935  17.908  0.00  0.00    +0.000 A 
ATOM     14  C   UNL     1      10.251  12.868  19.017  0.00  0.00    +0.000 A 
ATOM     15  C   UNL     1      10.360  11.662  19.709  0.00  0.00    +0.000 A 
ATOM     16  C   UNL     1       9.584  10.559  19.326  0.00  0.00    +0.000 A 
BRANCH  14  17
ATOM     17  O   UNL     1      10.967  13.993  19.272  0.00  0.00    +0.000 OA
BRANCH  17  18
ATOM     18  C   UNL     1      10.514  14.905  20.263  0.00  0.00    +0.000 C 
ATOM     19  F   UNL     1       9.203  15.211  20.185  0.00  0.00    +0.000 F 
ATOM     20  F   UNL     1      10.760  14.386  21.486  0.00  0.00    +0.000 F 
ATOM     21  F   UNL     1      11.217  16.055  20.148  0.00  0.00    +0.000 F 
ENDBRANCH  17  18
ENDBRANCH  14  17
ENDBRANCH   9  11
ENDBRANCH   1   8
BRANCH   4  22
ATOM     22  C   UNL     1       4.791   3.983  16.259  0.00  0.00    +0.000 C 
BRANCH  22  23
ATOM     23  N   UNL     1       3.609   3.582  17.007  0.00  0.00    +0.000 NA
ATOM     24  C   UNL     1       2.726   4.636  17.497  0.00  0.00    +0.000 C 
ATOM     25  C   UNL     1       1.363   4.025  17.930  0.00  0.00    +0.000 C 
ATOM     26  C   UNL     1       1.613   3.034  19.051  0.00  0.00    +0.000 A 
ATOM     27  C   UNL     1       0.698   2.873  20.086  0.00  0.00    +0.000 A 
ATOM     28  C   UNL     1       1.199   2.721  21.372  0.00  0.00    +0.000 A 
ATOM     29  C   UNL     1       2.583   2.713  21.580  0.00  0.00    +0.000 A 
ATOM     30  C   UNL     1       3.458   2.612  20.496  0.00  0.00    +0.000 A 
ATOM     31  C   UNL     1       2.948   2.645  19.205  0.00  0.00    +0.000 A 
ATOM     32  C   UNL     1       3.775   2.478  17.950  0.00  0.00    +0.000 C 
ENDBRANCH  22  23
ENDBRANCH   4  22
TORSDOF 6
ENDMDL
MODEL 6
REMARK VINA RESULT:      -8.3      2.034      2.595
REMARK  Name = 
REMARK  6 active torsions:
REMARK  status: ('A' for Active; 'I' for Inactive)
REMARK    1  A    between atoms: C_2  and  C_15
REMARK    2  A    between atoms: N_3  and  C_4
REMARK    3  A    between atoms: C_7  and  O_8
REMARK    4  A    between atoms: O_8  and  C_9
REMARK    5  A    between atoms: C_18  and  C_19
REMARK    6  A    between atoms: C_19  and  N_20
REMARK                            x       y       z     vdW  Elec       q    Type
REMARK                         _______ _______ _______ _____ _____    ______ ____
ROOT
ATOM      1  C   UNL     1       7.494   7.968  17.796  0.00  0.00    +0.000 A 
ATOM      2  C   UNL     1       8.101   6.891  18.448  0.00  0.00    +0.000 A 
ATOM      3  C   UNL     1       7.656   5.584  18.224  0.00  0.00    +0.000 A 
ATOM      4  C   UNL     1       6.591   5.332  17.350  0.00  0.00    +0.000 A 
ATOM      5  C   UNL     1       5.985   6.416  16.697  0.00  0.00    +0.000 A 
ATOM      6  C   UNL     1       6.429   7.724  16.896  0.00  0.00    +0.000 A 
ENDROOT
BRANCH   1   8
ATOM      7  O   UNL     1       7.598  10.241  17.328  0.00  0.00    +0.000 OA
ATOM      8  C   UNL     1       8.024   9.334  18.029  0.00  0.00    +0.000 C 
ATOM      9  N   UNL     1       9.023   9.421  18.984  0.00  0.00    +0.000 N 
ATOM     10  H   UNL     1       9.391   8.550  19.350  0.00  0.00    +0.000 HD
BRANCH   9  11
ATOM     11  C   UNL     1       9.685  10.596  19.400  0.00  0.00    +0.000 A 
ATOM     12  C   UNL     1       9.504  11.187  20.648  0.00  0.00    +0.000 A 
ATOM     13  C   UNL     1      10.202  12.354  20.988  0.00  0.00    +0.000 A 
ATOM     14  C   UNL     1      11.101  12.935  20.095  0.00  0.00    +0.000 A 
ATOM     15  C   UNL     1      11.265  12.362  18.835  0.00  0.00    +0.000 A 
ATOM     16  C   UNL     1      10.580  11.185  18.503  0.00  0.00    +0.000 A 
BRANCH  14  17
ATOM     17  O   UNL     1      11.683  14.084  20.523  0.00  0.00    +0.000 OA
BRANCH  17  18
ATOM     18  C   UNL     1      11.043  15.330  20.281  0.00  0.00    +0.000 C 
ATOM     19  F   UNL     1       9.928  15.249  19.526  0.00  0.00    +0.000 F 
ATOM     20  F   UNL     1      10.718  15.896  21.464  0.00  0.00    +0.000 F 
ATOM     21  F   UNL     1      11.914  16.151  19.651  0.00  0.00    +0.000 F 
ENDBRANCH  17  18
ENDBRANCH  14  17
ENDBRANCH   9  11
ENDBRANCH   1   8
BRANCH   4  22
ATOM     22  C   UNL     1       6.155   3.902  17.077  0.00  0.00    +0.000 C 
BRANCH  22  23
ATOM     23  N   UNL     1       4.935   3.434  17.718  0.00  0.00    +0.000 NA
ATOM     24  C   UNL     1       3.684   3.575  16.979  0.00  0.00    +0.000 C 
ATOM     25  C   UNL     1       2.579   2.704  17.641  0.00  0.00    +0.000 C 
ATOM     26  C   UNL     1       2.366   3.190  19.061  0.00  0.00    +0.000 A 
ATOM     27  C   UNL     1       1.105   3.176  19.645  0.00  0.00    +0.000 A 
ATOM     28  C   UNL     1       0.744   4.266  20.428  0.00  0.00    +0.000 A 
ATOM     29  C   UNL     1       1.652   5.314  20.617  0.00  0.00    +0.000 A 
ATOM     30  C   UNL     1       2.987   5.166  20.236  0.00  0.00    +0.000 A 
ATOM     31  C   UNL     1       3.378   4.021  19.556  0.00  0.00    +0.000 A 
ATOM     32  C   UNL     1       4.800   3.708  19.147  0.00  0.00    +0.000 C 
ENDBRANCH  22  23
ENDBRANCH   4  22
TORSDOF 6
ENDMDL
MODEL 7
REMARK VINA RESULT:      -8.2      8.661     11.478
REMARK  Name = 
REMARK  6 active torsions:
REMARK  status: ('A' for Active; 'I' for Inactive)
REMARK    1  A    between atoms: C_2  and  C_15
REMARK    2  A    between atoms: N_3  and  C_4
REMARK    3  A    between atoms: C_7  and  O_8
REMARK    4  A    between atoms: O_8  and  C_9
REMARK    5  A    between atoms: C_18  and  C_19
REMARK    6  A    between atoms: C_19  and  N_20
REMARK                            x       y       z     vdW  Elec       q    Type
REMARK                         _______ _______ _______ _____ _____    ______ ____
ROOT
ATOM      1  C   UNL     1       1.421   8.663  19.594  0.00  0.00    +0.000 A 
ATOM      2  C   UNL     1       0.615   9.769  19.305  0.00  0.00    +0.000 A 
ATOM      3  C   UNL     1      -0.101  10.408  20.321  0.00  0.00    +0.000 A 
ATOM      4  C   UNL     1      -0.032   9.950  21.642  0.00  0.00    +0.000 A 
ATOM      5  C   UNL     1       0.779   8.841  21.929  0.00  0.00    +0.000 A 
ATOM      6  C   UNL     1       1.515   8.202  20.929  0.00  0.00    +0.000 A 
ENDROOT
BRANCH   1   8
ATOM      7  O   UNL     1       2.185   8.590  17.401  0.00  0.00    +0.000 OA
ATOM      8  C   UNL     1       2.199   8.041  18.494  0.00  0.00    +0.000 C 
ATOM      9  N   UNL     1       2.804   6.837  18.811  0.00  0.00    +0.000 N 
ATOM     10  H   UNL     1       2.573   6.424  19.707  0.00  0.00    +0.000 HD
BRANCH   9  11
ATOM     11  C   UNL     1       3.604   6.050  17.955  0.00  0.00    +0.000 A 
ATOM     12  C   UNL     1       3.305   4.735  17.607  0.00  0.00    +0.000 A 
ATOM     13  C   UNL     1       4.149   4.020  16.747  0.00  0.00    +0.000 A 
ATOM     14  C   UNL     1       5.291   4.612  16.209  0.00  0.00    +0.000 A 
ATOM     15  C   UNL     1       5.608   5.919  16.575  0.00  0.00    +0.000 A 
ATOM     16  C   UNL     1       4.754   6.640  17.422  0.00  0.00    +0.000 A 
BRANCH  14  17
ATOM     17  O   UNL     1       6.049   3.805  15.424  0.00  0.00    +0.000 OA
BRANCH  17  18
ATOM     18  C   UNL     1       6.146   4.068  14.030  0.00  0.00    +0.000 C 
ATOM     19  F   UNL     1       6.502   3.003  13.283  0.00  0.00    +0.000 F 
ATOM     20  F   UNL     1       4.956   4.525  13.583  0.00  0.00    +0.000 F 
ATOM     21  F   UNL     1       7.067   5.039  13.835  0.00  0.00    +0.000 F 
ENDBRANCH  17  18
ENDBRANCH  14  17
ENDBRANCH   9  11
ENDBRANCH   1   8
BRANCH   4  22
ATOM     22  C   UNL     1      -0.775  10.689  22.742  0.00  0.00    +0.000 C 
BRANCH  22  23
ATOM     23  N   UNL     1      -1.397  11.959  22.401  0.00  0.00    +0.000 NA
ATOM     24  C   UNL     1      -0.551  13.149  22.394  0.00  0.00    +0.000 C 
ATOM     25  C   UNL     1      -1.280  14.311  21.662  0.00  0.00    +0.000 C 
ATOM     26  C   UNL     1      -2.561  14.626  22.409  0.00  0.00    +0.000 A 
ATOM     27  C   UNL     1      -3.038  15.928  22.504  0.00  0.00    +0.000 A 
ATOM     28  C   UNL     1      -3.568  16.335  23.721  0.00  0.00    +0.000 A 
ATOM     29  C   UNL     1      -3.624  15.432  24.789  0.00  0.00    +0.000 A 
ATOM     30  C   UNL     1      -3.381  14.073  24.576  0.00  0.00    +0.000 A 
ATOM     31  C   UNL     1      -2.964  13.645  23.323  0.00  0.00    +0.000 A 
ATOM     32  C   UNL     1      -2.734  12.200  22.942  0.00  0.00    +0.000 C 
ENDBRANCH  22  23
ENDBRANCH   4  22
TORSDOF 6
ENDMDL
MODEL 8
REMARK VINA RESULT:      -8.1      1.898      2.678
REMARK  Name = 
REMARK  6 active torsions:
REMARK  status: ('A' for Active; 'I' for Inactive)
REMARK    1  A    between atoms: C_2  and  C_15
REMARK    2  A    between atoms: N_3  and  C_4
REMARK    3  A    between atoms: C_7  and  O_8
REMARK    4  A    between atoms: O_8  and  C_9
REMARK    5  A    between atoms: C_18  and  C_19
REMARK    6  A    between atoms: C_19  and  N_20
REMARK                            x       y       z     vdW  Elec       q    Type
REMARK                         _______ _______ _______ _____ _____    ______ ____
ROOT
ATOM      1  C   UNL     1       7.801   8.358  17.951  0.00  0.00    +0.000 A 
ATOM      2  C   UNL     1       6.746   8.118  17.065  0.00  0.00    +0.000 A 
ATOM      3  C   UNL     1       6.195   6.839  16.948  0.00  0.00    +0.000 A 
ATOM      4  C   UNL     1       6.695   5.773  17.708  0.00  0.00    +0.000 A 
ATOM      5  C   UNL     1       7.752   6.018  18.597  0.00  0.00    +0.000 A 
ATOM      6  C   UNL     1       8.302   7.293  18.738  0.00  0.00    +0.000 A 
ENDROOT
BRANCH   1   8
ATOM      7  O   UNL     1       7.748  10.630  17.468  0.00  0.00    +0.000 OA
ATOM      8  C   UNL     1       8.328   9.739  18.076  0.00  0.00    +0.000 C 
ATOM      9  N   UNL     1       9.489   9.861  18.819  0.00  0.00    +0.000 N 
ATOM     10  H   UNL     1       9.946   9.003  19.109  0.00  0.00    +0.000 HD
BRANCH   9  11
ATOM     11  C   UNL     1      10.185  11.057  19.098  0.00  0.00    +0.000 A 
ATOM     12  C   UNL     1      10.174  11.689  20.339  0.00  0.00    +0.000 A 
ATOM     13  C   UNL     1      10.894  12.874  20.537  0.00  0.00    +0.000 A 
ATOM     14  C   UNL     1      11.649  13.433  19.507  0.00  0.00    +0.000 A 
ATOM     15  C   UNL     1      11.642  12.819  18.256  0.00  0.00    +0.000 A 
ATOM     16  C   UNL     1      10.935  11.623  18.063  0.00  0.00    +0.000 A 
BRANCH  14  17
ATOM     17  O   UNL     1      12.268  14.603  19.809  0.00  0.00    +0.000 OA
BRANCH  17  18
ATOM     18  C   UNL     1      11.806  15.815  19.227  0.00  0.00    +0.000 C 
ATOM     19  F   UNL     1      12.109  16.924  19.932  0.00  0.00    +0.000 F 
ATOM     20  F   UNL     1      12.333  15.938  17.989  0.00  0.00    +0.000 F 
ATOM     21  F   UNL     1      10.461  15.753  19.105  0.00  0.00    +0.000 F 
ENDBRANCH  17  18
ENDBRANCH  14  17
ENDBRANCH   9  11
ENDBRANCH   1   8
BRANCH   4  22
ATOM     22  C   UNL     1       6.050   4.402  17.608  0.00  0.00    +0.000 C 
BRANCH  22  23
ATOM     23  N   UNL     1       5.331   3.907  18.773  0.00  0.00    +0.000 NA
ATOM     24  C   UNL     1       4.822   2.540  18.726  0.00  0.00    +0.000 C 
ATOM     25  C   UNL     1       4.426   2.073  20.156  0.00  0.00    +0.000 C 
ATOM     26  C   UNL     1       3.333   2.985  20.676  0.00  0.00    +0.000 A 
ATOM     27  C   UNL     1       2.316   2.498  21.490  0.00  0.00    +0.000 A 
ATOM     28  C   UNL     1       1.028   2.966  21.264  0.00  0.00    +0.000 A 
ATOM     29  C   UNL     1       0.801   3.910  20.257  0.00  0.00    +0.000 A 
ATOM     30  C   UNL     1       1.875   4.563  19.647  0.00  0.00    +0.000 A 
ATOM     31  C   UNL     1       3.171   4.177  19.961  0.00  0.00    +0.000 A 
ATOM     32  C   UNL     1       4.419   4.844  19.426  0.00  0.00    +0.000 C 
ENDBRANCH  22  23
ENDBRANCH   4  22
TORSDOF 6
ENDMDL
MODEL 9
REMARK VINA RESULT:      -8.1      1.562      2.209
REMARK  Name = 
REMARK  6 active torsions:
REMARK  status: ('A' for Active; 'I' for Inactive)
REMARK    1  A    between atoms: C_2  and  C_15
REMARK    2  A    between atoms: N_3  and  C_4
REMARK    3  A    between atoms: C_7  and  O_8
REMARK    4  A    between atoms: O_8  and  C_9
REMARK    5  A    between atoms: C_18  and  C_19
REMARK    6  A    between atoms: C_19  and  N_20
REMARK                            x       y       z     vdW  Elec       q    Type
REMARK                         _______ _______ _______ _____ _____    ______ ____
ROOT
ATOM      1  C   UNL     1       7.845   7.960  18.064  0.00  0.00    +0.000 A 
ATOM      2  C   UNL     1       8.231   6.744  18.636  0.00  0.00    +0.000 A 
ATOM      3  C   UNL     1       7.633   5.547  18.228  0.00  0.00    +0.000 A 
ATOM      4  C   UNL     1       6.633   5.546  17.248  0.00  0.00    +0.000 A 
ATOM      5  C   UNL     1       6.250   6.767  16.675  0.00  0.00    +0.000 A 
ATOM      6  C   UNL     1       6.849   7.969  17.059  0.00  0.00    +0.000 A 
ENDROOT
BRANCH   1   8
ATOM      7  O   UNL     1       9.034   9.220  19.612  0.00  0.00    +0.000 OA
ATOM      8  C   UNL     1       8.534   9.201  18.495  0.00  0.00    +0.000 C 
ATOM      9  N   UNL     1       8.469  10.252  17.596  0.00  0.00    +0.000 N 
ATOM     10  H   UNL     1       7.865  10.135  16.790  0.00  0.00    +0.000 HD
BRANCH   9  11
ATOM     11  C   UNL     1       9.046  11.530  17.757  0.00  0.00    +0.000 A 
ATOM     12  C   UNL     1       8.307  12.703  17.886  0.00  0.00    +0.000 A 
ATOM     13  C   UNL     1       8.956  13.935  18.045  0.00  0.00    +0.000 A 
ATOM     14  C   UNL     1      10.347  14.010  18.097  0.00  0.00    +0.000 A 
ATOM     15  C   UNL     1      11.091  12.841  17.943  0.00  0.00    +0.000 A 
ATOM     16  C   UNL     1      10.441  11.607  17.801  0.00  0.00    +0.000 A 
BRANCH  14  17
ATOM     17  O   UNL     1      10.857  15.262  18.212  0.00  0.00    +0.000 OA
BRANCH  17  18
ATOM     18  C   UNL     1      11.067  15.821  19.503  0.00  0.00    +0.000 C 
ATOM     19  F   UNL     1      12.159  16.607  19.601  0.00  0.00    +0.000 F 
ATOM     20  F   UNL     1       9.983  16.548  19.851  0.00  0.00    +0.000 F 
ATOM     21  F   UNL     1      11.198  14.813  20.396  0.00  0.00    +0.000 F 
ENDBRANCH  17  18
ENDBRANCH  14  17
ENDBRANCH   9  11
ENDBRANCH   1   8
BRANCH   4  22
ATOM     22  C   UNL     1       6.033   4.231  16.778  0.00  0.00    +0.000 C 
BRANCH  22  23
ATOM     23  N   UNL     1       4.883   3.716  17.506  0.00  0.00    +0.000 NA
ATOM     24  C   UNL     1       3.579   3.789  16.854  0.00  0.00    +0.000 C 
ATOM     25  C   UNL     1       2.564   2.877  17.599  0.00  0.00    +0.000 C 
ATOM     26  C   UNL     1       2.426   3.373  19.025  0.00  0.00    +0.000 A 
ATOM     27  C   UNL     1       1.209   3.309  19.695  0.00  0.00    +0.000 A 
ATOM     28  C   UNL     1       0.851   4.392  20.488  0.00  0.00    +0.000 A 
ATOM     29  C   UNL     1       1.719   5.483  20.604  0.00  0.00    +0.000 A 
ATOM     30  C   UNL     1       3.031   5.392  20.133  0.00  0.00    +0.000 A 
ATOM     31  C   UNL     1       3.428   4.257  19.441  0.00  0.00    +0.000 A 
ATOM     32  C   UNL     1       4.832   4.004  18.939  0.00  0.00    +0.000 C 
ENDBRANCH  22  23
ENDBRANCH   4  22
TORSDOF 6
ENDMDL
