MODEL 1
REMARK VINA RESULT:      -8.2      0.000      0.000
REMARK  Name = 
REMARK  6 active torsions:
REMARK  status: ('A' for Active; 'I' for Inactive)
REMARK    1  A    between atoms: C_2  and  C_3
REMARK    2  A    between atoms: C_3  and  C_4
REMARK    3  A    between atoms: C_4  and  N_5
REMARK    4  A    between atoms: N_17  and  C_18
REMARK    5  A    between atoms: C_21  and  N_22
REMARK    6  A    between atoms: N_25  and  C_26
REMARK                            x       y       z     vdW  Elec       q    Type
REMARK                         _______ _______ _______ _____ _____    ______ ____
ROOT
ATOM      1  O   UNL     1       1.635   7.576  19.724  0.00  0.00    +0.000 OA
ATOM      2  C   UNL     1       2.124   8.043  18.695  0.00  0.00    +0.000 C 
ATOM      3  N   UNL     1       1.668   9.159  18.013  0.00  0.00    +0.000 N 
ATOM      4  H   UNL     1       2.140   9.361  17.131  0.00  0.00    +0.000 HD
ENDROOT
BRANCH   3   5
ATOM      5  C   UNL     1       0.647  10.054  18.426  0.00  0.00    +0.000 A 
ATOM      6  C   UNL     1       0.867  11.085  19.337  0.00  0.00    +0.000 A 
ATOM      7  C   UNL     1      -0.143  12.000  19.645  0.00  0.00    +0.000 A 
ATOM      8  C   UNL     1      -1.401  11.927  19.045  0.00  0.00    +0.000 A 
ATOM      9  C   UNL     1      -1.657  10.855  18.182  0.00  0.00    +0.000 A 
ATOM     10  C   UNL     1      -0.636   9.932  17.870  0.00  0.00    +0.000 A 
BRANCH   8  11
ATOM     11  N   UNL     1      -2.413  12.896  19.296  0.00  0.00    +0.000 N 
ATOM     12  C   UNL     1      -3.132  12.944  20.487  0.00  0.00    +0.000 C 
ATOM     13  O   UNL     1      -2.860  12.285  21.487  0.00  0.00    +0.000 OA
ATOM     14  N   UNL     1      -4.216  13.808  20.411  0.00  0.00    +0.000 N 
ATOM     15  H   UNL     1      -2.383  13.750  18.764  0.00  0.00    +0.000 HD
ATOM     16  H   UNL     1      -4.639  13.878  19.496  0.00  0.00    +0.000 HD
BRANCH  14  17
ATOM     17  C   UNL     1      -5.076  14.012  21.523  0.00  0.00    +0.000 A 
ATOM     18  C   UNL     1      -6.197  13.204  21.746  0.00  0.00    +0.000 A 
ATOM     19  C   UNL     1      -7.059  13.460  22.817  0.00  0.00    +0.000 A 
ATOM     20  C   UNL     1      -6.810  14.530  23.672  0.00  0.00    +0.000 A 
ATOM     21  C   UNL     1      -5.686  15.328  23.468  0.00  0.00    +0.000 A 
ATOM     22  C   UNL     1      -4.809  15.057  22.411  0.00  0.00    +0.000 A 
ENDBRANCH  14  17
ENDBRANCH   8  11
ENDBRANCH   3   5
BRANCH   2  23
ATOM     23  C   UNL     1       3.419   7.426  18.174  0.00  0.00    +0.000 C 
BRANCH  23  24
ATOM     24  C   UNL     1       3.768   6.006  18.625  0.00  0.00    +0.000 C 
BRANCH  24  25
ATOM     25  N   UNL     1       5.182   5.630  18.445  0.00  0.00    +0.000 NA
ATOM     26  C   UNL     1       5.363   4.269  17.884  0.00  0.00    +0.000 C 
ATOM     27  C   UNL     1       4.960   4.092  16.404  0.00  0.00    +0.000 C 
ATOM     28  N   UNL     1       5.682   5.057  15.588  0.00  0.00    +0.000 N 
ATOM     29  C   UNL     1       6.139   4.746  14.326  0.00  0.00    +0.000 A 
ATOM     30  C   UNL     1       5.546   3.746  13.553  0.00  0.00    +0.000 A 
ATOM     31  C   UNL     1       6.108   3.369  12.334  0.00  0.00    +0.000 A 
ATOM     32  C   UNL     1       7.265   3.995  11.905  0.00  0.00    +0.000 A 
ATOM     33  C   UNL     1       7.782   4.994  12.705  0.00  0.00    +0.000 A 
ATOM     34  N   UNL     1       7.236   5.391  13.878  0.00  0.00    +0.000 NA
ATOM     35  C   UNL     1       5.635   6.458  16.010  0.00  0.00    +0.000 C 
ATOM     36  C   UNL     1       5.880   6.594  17.542  0.00  0.00    +0.000 C 
ENDBRANCH  24  25
ENDBRANCH  23  24
ENDBRANCH   2  23
TORSDOF 6
ENDMDL
MODEL 2
REMARK VINA RESULT:      -8.1      3.864      4.815
REMARK  Name = 
REMARK  6 active torsions:
REMARK  status: ('A' for Active; 'I' for Inactive)
REMARK    1  A    between atoms: C_2  and  C_3
REMARK    2  A    between atoms: C_3  and  C_4
REMARK    3  A    between atoms: C_4  and  N_5
REMARK    4  A    between atoms: N_17  and  C_18
REMARK    5  A    between atoms: C_21  and  N_22
REMARK    6  A    between atoms: N_25  and  C_26
REMARK                            x       y       z     vdW  Elec       q    Type
REMARK                         _______ _______ _______ _____ _____    ______ ____
ROOT
ATOM      1  O   UNL     1       0.456   5.241  20.389  0.00  0.00    +0.000 OA
ATOM      2  C   UNL     1       1.681   5.351  20.445  0.00  0.00    +0.000 C 
ATOM      3  N   UNL     1       2.414   6.463  20.064  0.00  0.00    +0.000 N 
ATOM      4  H   UNL     1       3.429   6.356  20.099  0.00  0.00    +0.000 HD
ENDROOT
BRANCH   3   5
ATOM      5  C   UNL     1       1.905   7.725  19.665  0.00  0.00    +0.000 A 
ATOM      6  C   UNL     1       1.202   8.566  20.527  0.00  0.00    +0.000 A 
ATOM      7  C   UNL     1       0.801   9.840  20.120  0.00  0.00    +0.000 A 
ATOM      8  C   UNL     1       1.097  10.325  18.845  0.00  0.00    +0.000 A 
ATOM      9  C   UNL     1       1.739   9.466  17.946  0.00  0.00    +0.000 A 
ATOM     10  C   UNL     1       2.147   8.179  18.359  0.00  0.00    +0.000 A 
BRANCH   8  11
ATOM     11  N   UNL     1       0.755  11.648  18.444  0.00  0.00    +0.000 N 
ATOM     12  C   UNL     1       1.329  12.781  19.014  0.00  0.00    +0.000 C 
ATOM     13  O   UNL     1       2.290  12.760  19.778  0.00  0.00    +0.000 OA
ATOM     14  N   UNL     1       0.674  13.947  18.638  0.00  0.00    +0.000 N 
ATOM     15  H   UNL     1       0.356  11.769  17.528  0.00  0.00    +0.000 HD
ATOM     16  H   UNL     1      -0.317  13.841  18.474  0.00  0.00    +0.000 HD
BRANCH  14  17
ATOM     17  C   UNL     1       1.107  15.217  19.101  0.00  0.00    +0.000 A 
ATOM     18  C   UNL     1       2.124  15.931  18.455  0.00  0.00    +0.000 A 
ATOM     19  C   UNL     1       2.570  17.155  18.962  0.00  0.00    +0.000 A 
ATOM     20  C   UNL     1       2.007  17.675  20.125  0.00  0.00    +0.000 A 
ATOM     21  C   UNL     1       0.982  16.980  20.765  0.00  0.00    +0.000 A 
ATOM     22  C   UNL     1       0.517  15.766  20.242  0.00  0.00    +0.000 A 
ENDBRANCH  14  17
ENDBRANCH   8  11
ENDBRANCH   3   5
BRANCH   2  23
ATOM     23  C   UNL     1       2.471   4.223  21.101  0.00  0.00    +0.000 C 
BRANCH  23  24
ATOM     24  C   UNL     1       2.416   2.838  20.453  0.00  0.00    +0.000 C 
BRANCH  24  25
ATOM     25  N   UNL     1       3.730   2.267  20.102  0.00  0.00    +0.000 NA
ATOM     26  C   UNL     1       3.762   1.650  18.754  0.00  0.00    +0.000 C 
ATOM     27  C   UNL     1       3.689   2.630  17.563  0.00  0.00    +0.000 C 
ATOM     28  N   UNL     1       4.759   3.610  17.678  0.00  0.00    +0.000 N 
ATOM     29  C   UNL     1       5.427   4.091  16.574  0.00  0.00    +0.000 A 
ATOM     30  C   UNL     1       4.844   4.098  15.305  0.00  0.00    +0.000 A 
ATOM     31  C   UNL     1       5.588   4.474  14.188  0.00  0.00    +0.000 A 
ATOM     32  C   UNL     1       6.915   4.833  14.353  0.00  0.00    +0.000 A 
ATOM     33  C   UNL     1       7.419   4.831  15.639  0.00  0.00    +0.000 A 
ATOM     34  N   UNL     1       6.704   4.495  16.737  0.00  0.00    +0.000 NA
ATOM     35  C   UNL     1       4.894   4.305  18.959  0.00  0.00    +0.000 C 
ATOM     36  C   UNL     1       4.796   3.311  20.153  0.00  0.00    +0.000 C 
ENDBRANCH  24  25
ENDBRANCH  23  24
ENDBRANCH   2  23
TORSDOF 6
ENDMDL
MODEL 3
REMARK VINA RESULT:      -7.8      6.721     11.395
REMARK  Name = 
REMARK  6 active torsions:
REMARK  status: ('A' for Active; 'I' for Inactive)
REMARK    1  A    between atoms: C_2  and  C_3
REMARK    2  A    between atoms: C_3  and  C_4
REMARK    3  A    between atoms: C_4  and  N_5
REMARK    4  A    between atoms: N_17  and  C_18
REMARK    5  A    between atoms: C_21  and  N_22
REMARK    6  A    between atoms: N_25  and  C_26
REMARK                            x       y       z     vdW  Elec       q    Type
REMARK                         _______ _______ _______ _____ _____    ______ ____
ROOT
ATOM      1  O   UNL     1       8.978  10.456  20.304  0.00  0.00    +0.000 OA
ATOM      2  C   UNL     1       9.362  10.608  19.145  0.00  0.00    +0.000 C 
ATOM      3  N   UNL     1       9.135   9.734  18.094  0.00  0.00    +0.000 N 
ATOM      4  H   UNL     1       9.596   9.973  17.214  0.00  0.00    +0.000 HD
ENDROOT
BRANCH   3   5
ATOM      5  C   UNL     1       8.317   8.575  18.107  0.00  0.00    +0.000 A 
ATOM      6  C   UNL     1       7.229   8.406  17.252  0.00  0.00    +0.000 A 
ATOM      7  C   UNL     1       6.508   7.210  17.235  0.00  0.00    +0.000 A 
ATOM      8  C   UNL     1       6.853   6.138  18.059  0.00  0.00    +0.000 A 
ATOM      9  C   UNL     1       7.898   6.320  18.972  0.00  0.00    +0.000 A 
ATOM     10  C   UNL     1       8.629   7.528  18.988  0.00  0.00    +0.000 A 
BRANCH   8  11
ATOM     11  N   UNL     1       6.170   4.891  17.999  0.00  0.00    +0.000 N 
ATOM     12  C   UNL     1       4.881   4.712  18.492  0.00  0.00    +0.000 C 
ATOM     13  O   UNL     1       4.149   5.626  18.864  0.00  0.00    +0.000 OA
ATOM     14  N   UNL     1       4.518   3.373  18.540  0.00  0.00    +0.000 N 
ATOM     15  H   UNL     1       6.473   4.226  17.305  0.00  0.00    +0.000 HD
ATOM     16  H   UNL     1       5.281   2.734  18.716  0.00  0.00    +0.000 HD
BRANCH  14  17
ATOM     17  C   UNL     1       3.237   2.972  19.003  0.00  0.00    +0.000 A 
ATOM     18  C   UNL     1       2.182   2.711  18.121  0.00  0.00    +0.000 A 
ATOM     19  C   UNL     1       0.914   2.371  18.605  0.00  0.00    +0.000 A 
ATOM     20  C   UNL     1       0.690   2.295  19.977  0.00  0.00    +0.000 A 
ATOM     21  C   UNL     1       1.738   2.535  20.862  0.00  0.00    +0.000 A 
ATOM     22  C   UNL     1       3.014   2.851  20.377  0.00  0.00    +0.000 A 
ENDBRANCH  14  17
ENDBRANCH   8  11
ENDBRANCH   3   5
BRANCH   2  23
ATOM     23  C   UNL     1      10.044  11.924  18.783  0.00  0.00    +0.000 C 
BRANCH  23  24
ATOM     24  C   UNL     1      10.173  12.987  19.877  0.00  0.00    +0.000 C 
BRANCH  24  25
ATOM     25  N   UNL     1       9.969  14.373  19.417  0.00  0.00    +0.000 NA
ATOM     26  C   UNL     1       9.287  14.463  18.103  0.00  0.00    +0.000 C 
ATOM     27  C   UNL     1       7.794  14.068  18.091  0.00  0.00    +0.000 C 
ATOM     28  N   UNL     1       7.075  14.869  19.071  0.00  0.00    +0.000 N 
ATOM     29  C   UNL     1       5.793  15.319  18.844  0.00  0.00    +0.000 A 
ATOM     30  C   UNL     1       4.928  14.666  17.964  0.00  0.00    +0.000 A 
ATOM     31  C   UNL     1       3.684  15.215  17.660  0.00  0.00    +0.000 A 
ATOM     32  C   UNL     1       3.321  16.420  18.236  0.00  0.00    +0.000 A 
ATOM     33  C   UNL     1       4.213  16.997  19.118  0.00  0.00    +0.000 A 
ATOM     34  N   UNL     1       5.413  16.465  19.446  0.00  0.00    +0.000 NA
ATOM     35  C   UNL     1       7.624  14.916  20.427  0.00  0.00    +0.000 C 
ATOM     36  C   UNL     1       9.163  15.150  20.405  0.00  0.00    +0.000 C 
ENDBRANCH  24  25
ENDBRANCH  23  24
ENDBRANCH   2  23
TORSDOF 6
ENDMDL
MODEL 4
REMARK VINA RESULT:      -7.7      2.506      2.872
REMARK  Name = 
REMARK  6 active torsions:
REMARK  status: ('A' for Active; 'I' for Inactive)
REMARK    1  A    between atoms: C_2  and  C_3
REMARK    2  A    between atoms: C_3  and  C_4
REMARK    3  A    between atoms: C_4  and  N_5
REMARK    4  A    between atoms: N_17  and  C_18
REMARK    5  A    between atoms: C_21  and  N_22
REMARK    6  A    between atoms: N_25  and  C_26
REMARK                            x       y       z     vdW  Elec       q    Type
REMARK                         _______ _______ _______ _____ _____    ______ ____
ROOT
ATOM      1  O   UNL     1       2.122   7.772  20.186  0.00  0.00    +0.000 OA
ATOM      2  C   UNL     1       2.105   8.056  18.989  0.00  0.00    +0.000 C 
ATOM      3  N   UNL     1       1.515   9.177  18.429  0.00  0.00    +0.000 N 
ATOM      4  H   UNL     1       1.523   9.218  17.409  0.00  0.00    +0.000 HD
ENDROOT
BRANCH   3   5
ATOM      5  C   UNL     1       0.936  10.273  19.120  0.00  0.00    +0.000 A 
ATOM      6  C   UNL     1       1.301  11.597  18.883  0.00  0.00    +0.000 A 
ATOM      7  C   UNL     1       0.640  12.650  19.518  0.00  0.00    +0.000 A 
ATOM      8  C   UNL     1      -0.417  12.421  20.400  0.00  0.00    +0.000 A 
ATOM      9  C   UNL     1      -0.747  11.095  20.702  0.00  0.00    +0.000 A 
ATOM     10  C   UNL     1      -0.080  10.031  20.058  0.00  0.00    +0.000 A 
BRANCH   8  11
ATOM     11  N   UNL     1      -1.145  13.489  20.998  0.00  0.00    +0.000 N 
ATOM     12  C   UNL     1      -0.698  14.166  22.129  0.00  0.00    +0.000 C 
ATOM     13  O   UNL     1       0.420  14.034  22.618  0.00  0.00    +0.000 OA
ATOM     14  N   UNL     1      -1.676  14.995  22.665  0.00  0.00    +0.000 N 
ATOM     15  H   UNL     1      -1.806  13.983  20.421  0.00  0.00    +0.000 HD
ATOM     16  H   UNL     1      -2.623  14.665  22.544  0.00  0.00    +0.000 HD
BRANCH  14  17
ATOM     17  C   UNL     1      -1.422  15.784  23.817  0.00  0.00    +0.000 A 
ATOM     18  C   UNL     1      -1.587  15.276  25.111  0.00  0.00    +0.000 A 
ATOM     19  C   UNL     1      -1.384  16.090  26.229  0.00  0.00    +0.000 A 
ATOM     20  C   UNL     1      -1.019  17.424  26.063  0.00  0.00    +0.000 A 
ATOM     21  C   UNL     1      -0.835  17.934  24.780  0.00  0.00    +0.000 A 
ATOM     22  C   UNL     1      -1.014  17.111  23.660  0.00  0.00    +0.000 A 
ENDBRANCH  14  17
ENDBRANCH   8  11
ENDBRANCH   3   5
BRANCH   2  23
ATOM     23  C   UNL     1       2.904   7.175  18.033  0.00  0.00    +0.000 C 
BRANCH  23  24
ATOM     24  C   UNL     1       3.295   5.774  18.508  0.00  0.00    +0.000 C 
BRANCH  24  25
ATOM     25  N   UNL     1       4.736   5.473  18.424  0.00  0.00    +0.000 NA
ATOM     26  C   UNL     1       5.026   4.136  17.850  0.00  0.00    +0.000 C 
ATOM     27  C   UNL     1       4.739   3.974  16.342  0.00  0.00    +0.000 C 
ATOM     28  N   UNL     1       5.468   4.993  15.600  0.00  0.00    +0.000 N 
ATOM     29  C   UNL     1       6.030   4.735  14.369  0.00  0.00    +0.000 A 
ATOM     30  C   UNL     1       5.546   3.726  13.535  0.00  0.00    +0.000 A 
ATOM     31  C   UNL     1       6.211   3.406  12.353  0.00  0.00    +0.000 A 
ATOM     32  C   UNL     1       7.364   4.098  12.022  0.00  0.00    +0.000 A 
ATOM     33  C   UNL     1       7.770   5.103  12.877  0.00  0.00    +0.000 A 
ATOM     34  N   UNL     1       7.122   5.445  14.015  0.00  0.00    +0.000 NA
ATOM     35  C   UNL     1       5.319   6.380  16.046  0.00  0.00    +0.000 C 
ATOM     36  C   UNL     1       5.447   6.491  17.594  0.00  0.00    +0.000 C 
ENDBRANCH  24  25
ENDBRANCH  23  24
ENDBRANCH   2  23
TORSDOF 6
ENDMDL
MODEL 5
REMARK VINA RESULT:      -7.7      2.570      3.205
REMARK  Name = 
REMARK  6 active torsions:
REMARK  status: ('A' for Active; 'I' for Inactive)
REMARK    1  A    between atoms: C_2  and  C_3
REMARK    2  A    between atoms: C_3  and  C_4
REMARK    3  A    between atoms: C_4  and  N_5
REMARK    4  A    between atoms: N_17  and  C_18
REMARK    5  A    between atoms: C_21  and  N_22
REMARK    6  A    between atoms: N_25  and  C_26
REMARK                            x       y       z     vdW  Elec       q    Type
REMARK                         _______ _______ _______ _____ _____    ______ ____
ROOT
ATOM      1  O   UNL     1       0.841   5.458  20.514  0.00  0.00    +0.000 OA
ATOM      2  C   UNL     1       1.939   6.011  20.455  0.00  0.00    +0.000 C 
ATOM      3  N   UNL     1       2.163   7.377  20.507  0.00  0.00    +0.000 N 
ATOM      4  H   UNL     1       3.130   7.671  20.362  0.00  0.00    +0.000 HD
ENDROOT
BRANCH   3   5
ATOM      5  C   UNL     1       1.205   8.390  20.766  0.00  0.00    +0.000 A 
ATOM      6  C   UNL     1       0.618   8.575  22.017  0.00  0.00    +0.000 A 
ATOM      7  C   UNL     1      -0.250   9.644  22.252  0.00  0.00    +0.000 A 
ATOM      8  C   UNL     1      -0.552  10.572  21.254  0.00  0.00    +0.000 A 
ATOM      9  C   UNL     1      -0.026  10.357  19.975  0.00  0.00    +0.000 A 
ATOM     10  C   UNL     1       0.853   9.279  19.738  0.00  0.00    +0.000 A 
BRANCH   8  11
ATOM     11  N   UNL     1      -1.379  11.704  21.503  0.00  0.00    +0.000 N 
ATOM     12  C   UNL     1      -0.973  12.774  22.296  0.00  0.00    +0.000 C 
ATOM     13  O   UNL     1       0.171  12.933  22.712  0.00  0.00    +0.000 OA
ATOM     14  N   UNL     1      -2.021  13.637  22.588  0.00  0.00    +0.000 N 
ATOM     15  H   UNL     1      -2.116  11.897  20.845  0.00  0.00    +0.000 HD
ATOM     16  H   UNL     1      -2.927  13.194  22.662  0.00  0.00    +0.000 HD
BRANCH  14  17
ATOM     17  C   UNL     1      -1.820  14.800  23.377  0.00  0.00    +0.000 A 
ATOM     18  C   UNL     1      -1.904  14.769  24.774  0.00  0.00    +0.000 A 
ATOM     19  C   UNL     1      -1.756  15.939  25.525  0.00  0.00    +0.000 A 
ATOM     20  C   UNL     1      -1.528  17.154  24.884  0.00  0.00    +0.000 A 
ATOM     21  C   UNL     1      -1.425  17.192  23.495  0.00  0.00    +0.000 A 
ATOM     22  C   UNL     1      -1.548  16.016  22.744  0.00  0.00    +0.000 A 
ENDBRANCH  14  17
ENDBRANCH   8  11
ENDBRANCH   3   5
BRANCH   2  23
ATOM     23  C   UNL     1       3.185   5.130  20.448  0.00  0.00    +0.000 C 
BRANCH  23  24
ATOM     24  C   UNL     1       4.119   5.221  19.240  0.00  0.00    +0.000 C 
BRANCH  24  25
ATOM     25  N   UNL     1       3.441   5.440  17.949  0.00  0.00    +0.000 NA
ATOM     26  C   UNL     1       4.107   6.458  17.099  0.00  0.00    +0.000 C 
ATOM     27  C   UNL     1       5.468   6.047  16.498  0.00  0.00    +0.000 C 
ATOM     28  N   UNL     1       5.310   4.809  15.747  0.00  0.00    +0.000 N 
ATOM     29  C   UNL     1       6.000   4.575  14.578  0.00  0.00    +0.000 A 
ATOM     30  C   UNL     1       7.213   5.207  14.298  0.00  0.00    +0.000 A 
ATOM     31  C   UNL     1       7.823   5.046  13.056  0.00  0.00    +0.000 A 
ATOM     32  C   UNL     1       7.206   4.258  12.100  0.00  0.00    +0.000 A 
ATOM     33  C   UNL     1       6.022   3.640  12.453  0.00  0.00    +0.000 A 
ATOM     34  N   UNL     1       5.429   3.764  13.663  0.00  0.00    +0.000 NA
ATOM     35  C   UNL     1       4.646   3.696  16.426  0.00  0.00    +0.000 C 
ATOM     36  C   UNL     1       3.362   4.171  17.165  0.00  0.00    +0.000 C 
ENDBRANCH  24  25
ENDBRANCH  23  24
ENDBRANCH   2  23
TORSDOF 6
ENDMDL
MODEL 6
REMARK VINA RESULT:      -7.6      1.730      2.123
REMARK  Name = 
REMARK  6 active torsions:
REMARK  status: ('A' for Active; 'I' for Inactive)
REMARK    1  A    between atoms: C_2  and  C_3
REMARK    2  A    between atoms: C_3  and  C_4
REMARK    3  A    between atoms: C_4  and  N_5
REMARK    4  A    between atoms: N_17  and  C_18
REMARK    5  A    between atoms: C_21  and  N_22
REMARK    6  A    between atoms: N_25  and  C_26
REMARK                            x       y       z     vdW  Elec       q    Type
REMARK                         _______ _______ _______ _____ _____    ______ ____
ROOT
ATOM      1  O   UNL     1       1.800   7.076  20.527  0.00  0.00    +0.000 OA
ATOM      2  C   UNL     1       2.003   7.683  19.475  0.00  0.00    +0.000 C 
ATOM      3  N   UNL     1       1.530   8.948  19.165  0.00  0.00    +0.000 N 
ATOM      4  H   UNL     1       1.723   9.271  18.215  0.00  0.00    +0.000 HD
ENDROOT
BRANCH   3   5
ATOM      5  C   UNL     1       0.842   9.839  20.028  0.00  0.00    +0.000 A 
ATOM      6  C   UNL     1       0.106   9.407  21.131  0.00  0.00    +0.000 A 
ATOM      7  C   UNL     1      -0.479  10.323  22.008  0.00  0.00    +0.000 A 
ATOM      8  C   UNL     1      -0.340  11.700  21.824  0.00  0.00    +0.000 A 
ATOM      9  C   UNL     1       0.335  12.147  20.682  0.00  0.00    +0.000 A 
ATOM     10  C   UNL     1       0.928  11.220  19.797  0.00  0.00    +0.000 A 
BRANCH   8  11
ATOM     11  N   UNL     1      -0.871  12.642  22.750  0.00  0.00    +0.000 N 
ATOM     12  C   UNL     1      -2.008  13.400  22.487  0.00  0.00    +0.000 C 
ATOM     13  O   UNL     1      -2.753  13.220  21.528  0.00  0.00    +0.000 OA
ATOM     14  N   UNL     1      -2.194  14.409  23.423  0.00  0.00    +0.000 N 
ATOM     15  H   UNL     1      -0.635  12.523  23.722  0.00  0.00    +0.000 HD
ATOM     16  H   UNL     1      -1.342  14.789  23.812  0.00  0.00    +0.000 HD
BRANCH  14  17
ATOM     17  C   UNL     1      -3.303  15.292  23.344  0.00  0.00    +0.000 A 
ATOM     18  C   UNL     1      -3.223  16.519  22.675  0.00  0.00    +0.000 A 
ATOM     19  C   UNL     1      -4.312  17.396  22.659  0.00  0.00    +0.000 A 
ATOM     20  C   UNL     1      -5.490  17.055  23.317  0.00  0.00    +0.000 A 
ATOM     21  C   UNL     1      -5.586  15.829  23.970  0.00  0.00    +0.000 A 
ATOM     22  C   UNL     1      -4.504  14.939  23.966  0.00  0.00    +0.000 A 
ENDBRANCH  14  17
ENDBRANCH   8  11
ENDBRANCH   3   5
BRANCH   2  23
ATOM     23  C   UNL     1       2.956   7.060  18.461  0.00  0.00    +0.000 C 
BRANCH  23  24
ATOM     24  C   UNL     1       3.366   5.600  18.667  0.00  0.00    +0.000 C 
BRANCH  24  25
ATOM     25  N   UNL     1       4.811   5.339  18.534  0.00  0.00    +0.000 NA
ATOM     26  C   UNL     1       5.118   4.017  17.933  0.00  0.00    +0.000 C 
ATOM     27  C   UNL     1       4.788   3.868  16.432  0.00  0.00    +0.000 C 
ATOM     28  N   UNL     1       5.465   4.916  15.682  0.00  0.00    +0.000 N 
ATOM     29  C   UNL     1       5.994   4.689  14.430  0.00  0.00    +0.000 A 
ATOM     30  C   UNL     1       5.510   3.677  13.598  0.00  0.00    +0.000 A 
ATOM     31  C   UNL     1       6.146   3.392  12.391  0.00  0.00    +0.000 A 
ATOM     32  C   UNL     1       7.268   4.119  12.033  0.00  0.00    +0.000 A 
ATOM     33  C   UNL     1       7.676   5.122  12.889  0.00  0.00    +0.000 A 
ATOM     34  N   UNL     1       7.055   5.432  14.051  0.00  0.00    +0.000 NA
ATOM     35  C   UNL     1       5.294   6.291  16.151  0.00  0.00    +0.000 C 
ATOM     36  C   UNL     1       5.468   6.386  17.695  0.00  0.00    +0.000 C 
ENDBRANCH  24  25
ENDBRANCH  23  24
ENDBRANCH   2  23
TORSDOF 6
ENDMDL
MODEL 7
REMARK VINA RESULT:      -7.5      2.286      3.017
REMARK  Name = 
REMARK  6 active torsions:
REMARK  status: ('A' for Active; 'I' for Inactive)
REMARK    1  A    between atoms: C_2  and  C_3
REMARK    2  A    between atoms: C_3  and  C_4
REMARK    3  A    between atoms: C_4  and  N_5
REMARK    4  A    between atoms: N_17  and  C_18
REMARK    5  A    between atoms: C_21  and  N_22
REMARK    6  A    between atoms: N_25  and  C_26
REMARK                            x       y       z     vdW  Elec       q    Type
REMARK                         _______ _______ _______ _____ _____    ______ ____
ROOT
ATOM      1  O   UNL     1       1.084   5.129  20.682  0.00  0.00    +0.000 OA
ATOM      2  C   UNL     1       2.190   5.581  20.389  0.00  0.00    +0.000 C 
ATOM      3  N   UNL     1       2.493   6.918  20.189  0.00  0.00    +0.000 N 
ATOM      4  H   UNL     1       3.443   7.113  19.870  0.00  0.00    +0.000 HD
ENDROOT
BRANCH   3   5
ATOM      5  C   UNL     1       1.637   8.029  20.406  0.00  0.00    +0.000 A 
ATOM      6  C   UNL     1       1.355   8.972  19.418  0.00  0.00    +0.000 A 
ATOM      7  C   UNL     1       0.435   9.998  19.646  0.00  0.00    +0.000 A 
ATOM      8  C   UNL     1      -0.246  10.111  20.859  0.00  0.00    +0.000 A 
ATOM      9  C   UNL     1       0.081   9.215  21.883  0.00  0.00    +0.000 A 
ATOM     10  C   UNL     1       1.009   8.177  21.652  0.00  0.00    +0.000 A 
BRANCH   8  11
ATOM     11  N   UNL     1      -1.237  11.109  21.076  0.00  0.00    +0.000 N 
ATOM     12  C   UNL     1      -1.060  12.169  21.960  0.00  0.00    +0.000 C 
ATOM     13  O   UNL     1       0.006  12.447  22.503  0.00  0.00    +0.000 OA
ATOM     14  N   UNL     1      -2.239  12.870  22.183  0.00  0.00    +0.000 N 
ATOM     15  H   UNL     1      -1.925  11.247  20.354  0.00  0.00    +0.000 HD
ATOM     16  H   UNL     1      -3.079  12.310  22.137  0.00  0.00    +0.000 HD
BRANCH  14  17
ATOM     17  C   UNL     1      -2.275  13.996  23.047  0.00  0.00    +0.000 A 
ATOM     18  C   UNL     1      -3.237  14.122  24.055  0.00  0.00    +0.000 A 
ATOM     19  C   UNL     1      -3.285  15.267  24.857  0.00  0.00    +0.000 A 
ATOM     20  C   UNL     1      -2.374  16.300  24.653  0.00  0.00    +0.000 A 
ATOM     21  C   UNL     1      -1.401  16.175  23.663  0.00  0.00    +0.000 A 
ATOM     22  C   UNL     1      -1.336  15.018  22.877  0.00  0.00    +0.000 A 
ENDBRANCH  14  17
ENDBRANCH   8  11
ENDBRANCH   3   5
BRANCH   2  23
ATOM     23  C   UNL     1       3.373   4.618  20.359  0.00  0.00    +0.000 C 
BRANCH  23  24
ATOM     24  C   UNL     1       4.273   4.628  19.121  0.00  0.00    +0.000 C 
BRANCH  24  25
ATOM     25  N   UNL     1       3.571   4.873  17.848  0.00  0.00    +0.000 NA
ATOM     26  C   UNL     1       4.136   6.005  17.073  0.00  0.00    +0.000 C 
ATOM     27  C   UNL     1       5.526   5.763  16.446  0.00  0.00    +0.000 C 
ATOM     28  N   UNL     1       5.478   4.572  15.609  0.00  0.00    +0.000 N 
ATOM     29  C   UNL     1       6.180   4.484  14.428  0.00  0.00    +0.000 A 
ATOM     30  C   UNL     1       7.329   5.243  14.194  0.00  0.00    +0.000 A 
ATOM     31  C   UNL     1       7.945   5.225  12.944  0.00  0.00    +0.000 A 
ATOM     32  C   UNL     1       7.397   4.452  11.935  0.00  0.00    +0.000 A 
ATOM     33  C   UNL     1       6.277   3.706  12.243  0.00  0.00    +0.000 A 
ATOM     34  N   UNL     1       5.682   3.689  13.457  0.00  0.00    +0.000 NA
ATOM     35  C   UNL     1       4.923   3.357  16.208  0.00  0.00    +0.000 C 
ATOM     36  C   UNL     1       3.604   3.660  16.978  0.00  0.00    +0.000 C 
ENDBRANCH  24  25
ENDBRANCH  23  24
ENDBRANCH   2  23
TORSDOF 6
ENDMDL
MODEL 8
REMARK VINA RESULT:      -7.4      3.221     12.416
REMARK  Name = 
REMARK  6 active torsions:
REMARK  status: ('A' for Active; 'I' for Inactive)
REMARK    1  A    between atoms: C_2  and  C_3
REMARK    2  A    between atoms: C_3  and  C_4
REMARK    3  A    between atoms: C_4  and  N_5
REMARK    4  A    between atoms: N_17  and  C_18
REMARK    5  A    between atoms: C_21  and  N_22
REMARK    6  A    between atoms: N_25  and  C_26
REMARK                            x       y       z     vdW  Elec       q    Type
REMARK                         _______ _______ _______ _____ _____    ______ ____
ROOT
ATOM      1  O   UNL     1       2.021   8.980  22.334  0.00  0.00    +0.000 OA
ATOM      2  C   UNL     1       1.118   9.329  21.574  0.00  0.00    +0.000 C 
ATOM      3  N   UNL     1       1.012   8.997  20.234  0.00  0.00    +0.000 N 
ATOM      4  H   UNL     1       0.242   9.439  19.729  0.00  0.00    +0.000 HD
ENDROOT
BRANCH   3   5
ATOM      5  C   UNL     1       1.833   8.096  19.509  0.00  0.00    +0.000 A 
ATOM      6  C   UNL     1       2.461   8.438  18.313  0.00  0.00    +0.000 A 
ATOM      7  C   UNL     1       3.336   7.551  17.681  0.00  0.00    +0.000 A 
ATOM      8  C   UNL     1       3.625   6.299  18.226  0.00  0.00    +0.000 A 
ATOM      9  C   UNL     1       2.948   5.915  19.388  0.00  0.00    +0.000 A 
ATOM     10  C   UNL     1       2.065   6.812  20.028  0.00  0.00    +0.000 A 
BRANCH   8  11
ATOM     11  N   UNL     1       4.570   5.417  17.628  0.00  0.00    +0.000 N 
ATOM     12  C   UNL     1       5.002   5.555  16.312  0.00  0.00    +0.000 C 
ATOM     13  O   UNL     1       4.756   6.524  15.600  0.00  0.00    +0.000 OA
ATOM     14  N   UNL     1       5.729   4.452  15.881  0.00  0.00    +0.000 N 
ATOM     15  H   UNL     1       5.180   4.902  18.242  0.00  0.00    +0.000 HD
ATOM     16  H   UNL     1       5.448   3.573  16.292  0.00  0.00    +0.000 HD
BRANCH  14  17
ATOM     17  C   UNL     1       6.272   4.394  14.570  0.00  0.00    +0.000 A 
ATOM     18  C   UNL     1       7.383   5.159  14.197  0.00  0.00    +0.000 A 
ATOM     19  C   UNL     1       7.865   5.125  12.885  0.00  0.00    +0.000 A 
ATOM     20  C   UNL     1       7.235   4.329  11.932  0.00  0.00    +0.000 A 
ATOM     21  C   UNL     1       6.140   3.551  12.298  0.00  0.00    +0.000 A 
ATOM     22  C   UNL     1       5.672   3.565  13.619  0.00  0.00    +0.000 A 
ENDBRANCH  14  17
ENDBRANCH   8  11
ENDBRANCH   3   5
BRANCH   2  23
ATOM     23  C   UNL     1      -0.061  10.093  22.168  0.00  0.00    +0.000 C 
BRANCH  23  24
ATOM     24  C   UNL     1      -0.431  11.439  21.541  0.00  0.00    +0.000 C 
BRANCH  24  25
ATOM     25  N   UNL     1       0.332  11.786  20.328  0.00  0.00    +0.000 NA
ATOM     26  C   UNL     1      -0.510  12.347  19.243  0.00  0.00    +0.000 C 
ATOM     27  C   UNL     1      -1.071  13.764  19.490  0.00  0.00    +0.000 C 
ATOM     28  N   UNL     1       0.027  14.675  19.778  0.00  0.00    +0.000 N 
ATOM     29  C   UNL     1       0.026  15.979  19.333  0.00  0.00    +0.000 A 
ATOM     30  C   UNL     1      -1.160  16.660  19.049  0.00  0.00    +0.000 A 
ATOM     31  C   UNL     1      -1.124  17.933  18.484  0.00  0.00    +0.000 A 
ATOM     32  C   UNL     1       0.102  18.510  18.200  0.00  0.00    +0.000 A 
ATOM     33  C   UNL     1       1.234  17.792  18.532  0.00  0.00    +0.000 A 
ATOM     34  N   UNL     1       1.219  16.567  19.106  0.00  0.00    +0.000 NA
ATOM     35  C   UNL     1       0.979  14.269  20.812  0.00  0.00    +0.000 C 
ATOM     36  C   UNL     1       1.403  12.781  20.636  0.00  0.00    +0.000 C 
ENDBRANCH  24  25
ENDBRANCH  23  24
ENDBRANCH   2  23
TORSDOF 6
ENDMDL
MODEL 9
REMARK VINA RESULT:      -7.4      2.326      3.040
REMARK  Name = 
REMARK  6 active torsions:
REMARK  status: ('A' for Active; 'I' for Inactive)
REMARK    1  A    between atoms: C_2  and  C_3
REMARK    2  A    between atoms: C_3  and  C_4
REMARK    3  A    between atoms: C_4  and  N_5
REMARK    4  A    between atoms: N_17  and  C_18
REMARK    5  A    between atoms: C_21  and  N_22
REMARK    6  A    between atoms: N_25  and  C_26
REMARK                            x       y       z     vdW  Elec       q    Type
REMARK                         _______ _______ _______ _____ _____    ______ ____
ROOT
ATOM      1  O   UNL     1       0.901   5.286  20.442  0.00  0.00    +0.000 OA
ATOM      2  C   UNL     1       2.010   5.819  20.469  0.00  0.00    +0.000 C 
ATOM      3  N   UNL     1       2.255   7.182  20.469  0.00  0.00    +0.000 N 
ATOM      4  H   UNL     1       3.238   7.455  20.410  0.00  0.00    +0.000 HD
ENDROOT
BRANCH   3   5
ATOM      5  C   UNL     1       1.296   8.223  20.570  0.00  0.00    +0.000 A 
ATOM      6  C   UNL     1       0.410   8.334  21.641  0.00  0.00    +0.000 A 
ATOM      7  C   UNL     1      -0.455   9.426  21.748  0.00  0.00    +0.000 A 
ATOM      8  C   UNL     1      -0.457  10.450  20.799  0.00  0.00    +0.000 A 
ATOM      9  C   UNL     1       0.377  10.316  19.683  0.00  0.00    +0.000 A 
ATOM     10  C   UNL     1       1.252   9.213  19.577  0.00  0.00    +0.000 A 
BRANCH   8  11
ATOM     11  N   UNL     1      -1.282  11.602  20.936  0.00  0.00    +0.000 N 
ATOM     12  C   UNL     1      -1.177  12.482  22.009  0.00  0.00    +0.000 C 
ATOM     13  O   UNL     1      -0.272  12.458  22.839  0.00  0.00    +0.000 OA
ATOM     14  N   UNL     1      -2.232  13.385  22.053  0.00  0.00    +0.000 N 
ATOM     15  H   UNL     1      -1.708  11.972  20.102  0.00  0.00    +0.000 HD
ATOM     16  H   UNL     1      -3.110  13.027  21.703  0.00  0.00    +0.000 HD
BRANCH  14  17
ATOM     17  C   UNL     1      -2.311  14.378  23.065  0.00  0.00    +0.000 A 
ATOM     18  C   UNL     1      -1.694  15.626  22.924  0.00  0.00    +0.000 A 
ATOM     19  C   UNL     1      -1.741  16.567  23.958  0.00  0.00    +0.000 A 
ATOM     20  C   UNL     1      -2.401  16.264  25.146  0.00  0.00    +0.000 A 
ATOM     21  C   UNL     1      -3.033  15.031  25.289  0.00  0.00    +0.000 A 
ATOM     22  C   UNL     1      -3.008  14.098  24.243  0.00  0.00    +0.000 A 
ENDBRANCH  14  17
ENDBRANCH   8  11
ENDBRANCH   3   5
BRANCH   2  23
ATOM     23  C   UNL     1       3.232   4.922  20.640  0.00  0.00    +0.000 C 
BRANCH  23  24
ATOM     24  C   UNL     1       3.866   4.327  19.381  0.00  0.00    +0.000 C 
BRANCH  24  25
ATOM     25  N   UNL     1       3.220   4.725  18.117  0.00  0.00    +0.000 NA
ATOM     26  C   UNL     1       3.907   5.848  17.433  0.00  0.00    +0.000 C 
ATOM     27  C   UNL     1       5.282   5.518  16.814  0.00  0.00    +0.000 C 
ATOM     28  N   UNL     1       5.142   4.397  15.895  0.00  0.00    +0.000 N 
ATOM     29  C   UNL     1       5.861   4.324  14.722  0.00  0.00    +0.000 A 
ATOM     30  C   UNL     1       7.081   4.984  14.562  0.00  0.00    +0.000 A 
ATOM     31  C   UNL     1       7.721   4.993  13.324  0.00  0.00    +0.000 A 
ATOM     32  C   UNL     1       7.127   4.347  12.254  0.00  0.00    +0.000 A 
ATOM     33  C   UNL     1       5.935   3.692  12.489  0.00  0.00    +0.000 A 
ATOM     34  N   UNL     1       5.312   3.649  13.690  0.00  0.00    +0.000 NA
ATOM     35  C   UNL     1       4.461   3.203  16.397  0.00  0.00    +0.000 C 
ATOM     36  C   UNL     1       3.159   3.577  17.163  0.00  0.00    +0.000 C 
ENDBRANCH  24  25
ENDBRANCH  23  24
ENDBRANCH   2  23
TORSDOF 6
ENDMDL
