MODEL 1
REMARK VINA RESULT:      -8.0      0.000      0.000
REMARK  Name = 
REMARK  8 active torsions:
REMARK  status: ('A' for Active; 'I' for Inactive)
REMARK    1  A    between atoms: C_1  and  C_2
REMARK    2  A    between atoms: C_2  and  C_3
REMARK    3  A    between atoms: C_2  and  C_4
REMARK    4  A    between atoms: C_4  and  N_5
REMARK    5  A    between atoms: N_5  and  N_6
REMARK    6  A    between atoms: N_5  and  C_19
REMARK    7  A    between atoms: C_7  and  C_9
REMARK    8  A    between atoms: C_21  and  C_22
REMARK                            x       y       z     vdW  Elec       q    Type
REMARK                         _______ _______ _______ _____ _____    ______ ____
ROOT
ATOM      1  N   UNL     1       4.371   4.170  18.516  0.00  0.00    +0.000 N 
ENDROOT
BRANCH   1   2
ATOM      2  C   UNL     1       5.482   4.451  17.671  0.00  0.00    +0.000 A 
ATOM      3  N   UNL     1       5.298   4.141  16.366  0.00  0.00    +0.000 NA
ATOM      4  C   UNL     1       6.315   4.310  15.496  0.00  0.00    +0.000 A 
ATOM      5  N   UNL     1       7.525   4.800  15.807  0.00  0.00    +0.000 NA
ATOM      6  C   UNL     1       7.683   5.138  17.094  0.00  0.00    +0.000 A 
ATOM      7  C   UNL     1       6.715   4.991  18.073  0.00  0.00    +0.000 A 
ATOM      8 CL   UNL     1       7.158   5.581  19.634  0.00  0.00    +0.000 Cl
BRANCH   4   9
ATOM      9  C   UNL     1       6.106   3.923  14.127  0.00  0.00    +0.000 C 
ATOM     10  N   UNL     1       5.979   3.600  13.015  0.00  0.00    +0.000 NA
ENDBRANCH   4   9
ENDBRANCH   1   2
BRANCH   1  11
ATOM     11  N   UNL     1       3.747   5.368  18.979  0.00  0.00    +0.000 N 
ATOM     12  C   UNL     1       2.518   5.781  18.465  0.00  0.00    +0.000 C 
ATOM     13  O   UNL     1       1.767   5.109  17.767  0.00  0.00    +0.000 OA
ATOM     14  H   UNL     1       4.320   6.050  19.470  0.00  0.00    +0.000 HD
BRANCH  12  15
ATOM     15  C   UNL     1       2.159   7.202  18.821  0.00  0.00    +0.000 A 
ATOM     16  C   UNL     1       1.737   7.512  20.113  0.00  0.00    +0.000 A 
ATOM     17  C   UNL     1       1.269   8.808  20.388  0.00  0.00    +0.000 A 
ATOM     18  C   UNL     1       0.778   9.178  21.653  0.00  0.00    +0.000 A 
ATOM     19  C   UNL     1       0.247  10.453  21.873  0.00  0.00    +0.000 A 
ATOM     20  C   UNL     1       0.214  11.383  20.837  0.00  0.00    +0.000 A 
ATOM     21  C   UNL     1       0.731  11.046  19.586  0.00  0.00    +0.000 A 
ATOM     22  C   UNL     1       1.260   9.760  19.348  0.00  0.00    +0.000 A 
ATOM     23  C   UNL     1       1.765   9.362  18.106  0.00  0.00    +0.000 A 
ATOM     24  N   UNL     1       2.204   8.111  17.806  0.00  0.00    +0.000 NA
ENDBRANCH  12  15
ENDBRANCH   1  11
BRANCH   1  25
ATOM     25  C   UNL     1       4.518   3.098  19.514  0.00  0.00    +0.000 C 
BRANCH  25  27
ATOM     26  C   UNL     1       2.202   2.585  20.512  0.00  0.00    +0.000 C 
ATOM     27  C   UNL     1       3.358   2.097  19.645  0.00  0.00    +0.000 C 
ATOM     28  C   UNL     1       2.829   1.804  18.227  0.00  0.00    +0.000 C 
ENDBRANCH  25  27
ENDBRANCH   1  25
TORSDOF 6
ENDMDL
MODEL 2
REMARK VINA RESULT:      -8.0      1.705      2.360
REMARK  Name = 
REMARK  8 active torsions:
REMARK  status: ('A' for Active; 'I' for Inactive)
REMARK    1  A    between atoms: C_1  and  C_2
REMARK    2  A    between atoms: C_2  and  C_3
REMARK    3  A    between atoms: C_2  and  C_4
REMARK    4  A    between atoms: C_4  and  N_5
REMARK    5  A    between atoms: N_5  and  N_6
REMARK    6  A    between atoms: N_5  and  C_19
REMARK    7  A    between atoms: C_7  and  C_9
REMARK    8  A    between atoms: C_21  and  C_22
REMARK                            x       y       z     vdW  Elec       q    Type
REMARK                         _______ _______ _______ _____ _____    ______ ____
ROOT
ATOM      1  N   UNL     1       4.607   4.630  18.506  0.00  0.00    +0.000 N 
ENDROOT
BRANCH   1   2
ATOM      2  C   UNL     1       5.641   5.106  17.651  0.00  0.00    +0.000 A 
ATOM      3  N   UNL     1       6.255   6.236  18.074  0.00  0.00    +0.000 NA
ATOM      4  C   UNL     1       7.205   6.802  17.302  0.00  0.00    +0.000 A 
ATOM      5  N   UNL     1       7.634   6.319  16.125  0.00  0.00    +0.000 NA
ATOM      6  C   UNL     1       7.045   5.180  15.735  0.00  0.00    +0.000 A 
ATOM      7  C   UNL     1       6.050   4.524  16.439  0.00  0.00    +0.000 A 
ATOM      8 CL   UNL     1       5.523   3.034  15.745  0.00  0.00    +0.000 Cl
BRANCH   4   9
ATOM      9  C   UNL     1       7.801   8.030  17.753  0.00  0.00    +0.000 C 
ATOM     10  N   UNL     1       8.261   9.046  18.090  0.00  0.00    +0.000 NA
ENDBRANCH   4   9
ENDBRANCH   1   2
BRANCH   1  11
ATOM     11  N   UNL     1       3.864   5.706  19.081  0.00  0.00    +0.000 N 
ATOM     12  C   UNL     1       2.599   6.040  18.599  0.00  0.00    +0.000 C 
ATOM     13  O   UNL     1       1.919   5.369  17.831  0.00  0.00    +0.000 OA
ATOM     14  H   UNL     1       4.365   6.389  19.644  0.00  0.00    +0.000 HD
BRANCH  12  15
ATOM     15  C   UNL     1       2.096   7.374  19.093  0.00  0.00    +0.000 A 
ATOM     16  C   UNL     1       1.699   7.522  20.421  0.00  0.00    +0.000 A 
ATOM     17  C   UNL     1       1.099   8.727  20.826  0.00  0.00    +0.000 A 
ATOM     18  C   UNL     1       0.624   8.928  22.135  0.00  0.00    +0.000 A 
ATOM     19  C   UNL     1      -0.038  10.109  22.486  0.00  0.00    +0.000 A 
ATOM     20  C   UNL     1      -0.222  11.113  21.538  0.00  0.00    +0.000 A 
ATOM     21  C   UNL     1       0.276  10.946  20.245  0.00  0.00    +0.000 A 
ATOM     22  C   UNL     1       0.936   9.756  19.876  0.00  0.00    +0.000 A 
ATOM     23  C   UNL     1       1.430   9.526  18.588  0.00  0.00    +0.000 A 
ATOM     24  N   UNL     1       1.994   8.365  18.163  0.00  0.00    +0.000 NA
ENDBRANCH  12  15
ENDBRANCH   1  11
BRANCH   1  25
ATOM     25  C   UNL     1       4.921   3.513  19.412  0.00  0.00    +0.000 C 
BRANCH  25  27
ATOM     26  C   UNL     1       2.728   2.800  20.555  0.00  0.00    +0.000 C 
ATOM     27  C   UNL     1       3.846   2.427  19.586  0.00  0.00    +0.000 C 
ATOM     28  C   UNL     1       3.232   2.147  18.200  0.00  0.00    +0.000 C 
ENDBRANCH  25  27
ENDBRANCH   1  25
TORSDOF 6
ENDMDL
MODEL 3
REMARK VINA RESULT:      -7.6      1.076      1.208
REMARK  Name = 
REMARK  8 active torsions:
REMARK  status: ('A' for Active; 'I' for Inactive)
REMARK    1  A    between atoms: C_1  and  C_2
REMARK    2  A    between atoms: C_2  and  C_3
REMARK    3  A    between atoms: C_2  and  C_4
REMARK    4  A    between atoms: C_4  and  N_5
REMARK    5  A    between atoms: N_5  and  N_6
REMARK    6  A    between atoms: N_5  and  C_19
REMARK    7  A    between atoms: C_7  and  C_9
REMARK    8  A    between atoms: C_21  and  C_22
REMARK                            x       y       z     vdW  Elec       q    Type
REMARK                         _______ _______ _______ _____ _____    ______ ____
ROOT
ATOM      1  N   UNL     1       3.612   4.736  17.679  0.00  0.00    +0.000 N 
ENDROOT
BRANCH   1   2
ATOM      2  C   UNL     1       4.932   4.698  17.144  0.00  0.00    +0.000 A 
ATOM      3  N   UNL     1       5.002   4.421  15.821  0.00  0.00    +0.000 NA
ATOM      4  C   UNL     1       6.211   4.299  15.234  0.00  0.00    +0.000 A 
ATOM      5  N   UNL     1       7.391   4.460  15.852  0.00  0.00    +0.000 NA
ATOM      6  C   UNL     1       7.308   4.771  17.154  0.00  0.00    +0.000 A 
ATOM      7  C   UNL     1       6.124   4.903  17.859  0.00  0.00    +0.000 A 
ATOM      8 CL   UNL     1       6.304   5.388  19.506  0.00  0.00    +0.000 Cl
BRANCH   4   9
ATOM      9  C   UNL     1       6.254   3.952  13.839  0.00  0.00    +0.000 C 
ATOM     10  N   UNL     1       6.296   3.631  12.720  0.00  0.00    +0.000 NA
ENDBRANCH   4   9
ENDBRANCH   1   2
BRANCH   1  11
ATOM     11  N   UNL     1       3.214   6.069  18.000  0.00  0.00    +0.000 N 
ATOM     12  C   UNL     1       2.759   6.392  19.278  0.00  0.00    +0.000 C 
ATOM     13  O   UNL     1       2.845   5.683  20.274  0.00  0.00    +0.000 OA
ATOM     14  H   UNL     1       3.004   6.706  17.235  0.00  0.00    +0.000 HD
BRANCH  12  15
ATOM     15  C   UNL     1       2.091   7.742  19.359  0.00  0.00    +0.000 A 
ATOM     16  C   UNL     1       1.514   8.164  20.555  0.00  0.00    +0.000 A 
ATOM     17  C   UNL     1       0.771   9.358  20.574  0.00  0.00    +0.000 A 
ATOM     18  C   UNL     1       0.117   9.818  21.731  0.00  0.00    +0.000 A 
ATOM     19  C   UNL     1      -0.678  10.968  21.698  0.00  0.00    +0.000 A 
ATOM     20  C   UNL     1      -0.818  11.684  20.511  0.00  0.00    +0.000 A 
ATOM     21  C   UNL     1      -0.145  11.264  19.363  0.00  0.00    +0.000 A 
ATOM     22  C   UNL     1       0.651  10.100  19.382  0.00  0.00    +0.000 A 
ATOM     23  C   UNL     1       1.324   9.619  18.254  0.00  0.00    +0.000 A 
ATOM     24  N   UNL     1       2.030   8.459  18.201  0.00  0.00    +0.000 NA
ENDBRANCH  12  15
ENDBRANCH   1  11
BRANCH   1  25
ATOM     25  C   UNL     1       3.235   3.702  18.656  0.00  0.00    +0.000 C 
BRANCH  25  27
ATOM     26  C   UNL     1       3.640   1.185  18.309  0.00  0.00    +0.000 C 
ATOM     27  C   UNL     1       2.704   2.370  18.099  0.00  0.00    +0.000 C 
ATOM     28  C   UNL     1       1.360   2.074  18.793  0.00  0.00    +0.000 C 
ENDBRANCH  25  27
ENDBRANCH   1  25
TORSDOF 6
ENDMDL
MODEL 4
REMARK VINA RESULT:      -7.5      2.381      7.496
REMARK  Name = 
REMARK  8 active torsions:
REMARK  status: ('A' for Active; 'I' for Inactive)
REMARK    1  A    between atoms: C_1  and  C_2
REMARK    2  A    between atoms: C_2  and  C_3
REMARK    3  A    between atoms: C_2  and  C_4
REMARK    4  A    between atoms: C_4  and  N_5
REMARK    5  A    between atoms: N_5  and  N_6
REMARK    6  A    between atoms: N_5  and  C_19
REMARK    7  A    between atoms: C_7  and  C_9
REMARK    8  A    between atoms: C_21  and  C_22
REMARK                            x       y       z     vdW  Elec       q    Type
REMARK                         _______ _______ _______ _____ _____    ______ ____
ROOT
ATOM      1  N   UNL     1       2.390   5.977  20.001  0.00  0.00    +0.000 N 
ENDROOT
BRANCH   1   2
ATOM      2  C   UNL     1       1.958   7.333  20.019  0.00  0.00    +0.000 A 
ATOM      3  N   UNL     1       1.499   7.769  21.216  0.00  0.00    +0.000 NA
ATOM      4  C   UNL     1       1.006   9.021  21.319  0.00  0.00    +0.000 A 
ATOM      5  N   UNL     1       0.952   9.916  20.321  0.00  0.00    +0.000 NA
ATOM      6  C   UNL     1       1.443   9.485  19.150  0.00  0.00    +0.000 A 
ATOM      7  C   UNL     1       1.955   8.218  18.928  0.00  0.00    +0.000 A 
ATOM      8 CL   UNL     1       2.594   7.955  17.346  0.00  0.00    +0.000 Cl
BRANCH   4   9
ATOM      9  C   UNL     1       0.478   9.438  22.590  0.00  0.00    +0.000 C 
ATOM     10  N   UNL     1       0.034   9.810  23.601  0.00  0.00    +0.000 NA
ENDBRANCH   4   9
ENDBRANCH   1   2
BRANCH   1  11
ATOM     11  N   UNL     1       3.147   5.682  18.827  0.00  0.00    +0.000 N 
ATOM     12  C   UNL     1       4.491   5.323  18.912  0.00  0.00    +0.000 C 
ATOM     13  O   UNL     1       5.092   5.019  19.937  0.00  0.00    +0.000 OA
ATOM     14  H   UNL     1       2.786   6.000  17.930  0.00  0.00    +0.000 HD
BRANCH  12  15
ATOM     15  C   UNL     1       5.212   5.355  17.588  0.00  0.00    +0.000 A 
ATOM     16  C   UNL     1       4.710   4.642  16.501  0.00  0.00    +0.000 A 
ATOM     17  C   UNL     1       5.469   4.566  15.321  0.00  0.00    +0.000 A 
ATOM     18  C   UNL     1       5.050   3.820  14.204  0.00  0.00    +0.000 A 
ATOM     19  C   UNL     1       5.865   3.701  13.073  0.00  0.00    +0.000 A 
ATOM     20  C   UNL     1       7.103   4.338  13.036  0.00  0.00    +0.000 A 
ATOM     21  C   UNL     1       7.517   5.113  14.120  0.00  0.00    +0.000 A 
ATOM     22  C   UNL     1       6.710   5.233  15.270  0.00  0.00    +0.000 A 
ATOM     23  C   UNL     1       7.089   5.973  16.394  0.00  0.00    +0.000 A 
ATOM     24  N   UNL     1       6.387   6.047  17.554  0.00  0.00    +0.000 NA
ENDBRANCH  12  15
ENDBRANCH   1  11
BRANCH   1  25
ATOM     25  C   UNL     1       1.431   4.942  20.421  0.00  0.00    +0.000 C 
BRANCH  25  27
ATOM     26  C   UNL     1       1.926   2.707  21.596  0.00  0.00    +0.000 C 
ATOM     27  C   UNL     1       1.873   3.476  20.280  0.00  0.00    +0.000 C 
ATOM     28  C   UNL     1       0.880   2.775  19.332  0.00  0.00    +0.000 C 
ENDBRANCH  25  27
ENDBRANCH   1  25
TORSDOF 6
ENDMDL
MODEL 5
REMARK VINA RESULT:      -7.4      2.335      4.322
REMARK  Name = 
REMARK  8 active torsions:
REMARK  status: ('A' for Active; 'I' for Inactive)
REMARK    1  A    between atoms: C_1  and  C_2
REMARK    2  A    between atoms: C_2  and  C_3
REMARK    3  A    between atoms: C_2  and  C_4
REMARK    4  A    between atoms: C_4  and  N_5
REMARK    5  A    between atoms: N_5  and  N_6
REMARK    6  A    between atoms: N_5  and  C_19
REMARK    7  A    between atoms: C_7  and  C_9
REMARK    8  A    between atoms: C_21  and  C_22
REMARK                            x       y       z     vdW  Elec       q    Type
REMARK                         _______ _______ _______ _____ _____    ______ ____
ROOT
ATOM      1  N   UNL     1       4.538   5.682  18.978  0.00  0.00    +0.000 N 
ENDROOT
BRANCH   1   2
ATOM      2  C   UNL     1       3.985   4.371  18.935  0.00  0.00    +0.000 A 
ATOM      3  N   UNL     1       3.237   4.033  20.012  0.00  0.00    +0.000 NA
ATOM      4  C   UNL     1       2.722   2.789  20.096  0.00  0.00    +0.000 A 
ATOM      5  N   UNL     1       2.862   1.830  19.167  0.00  0.00    +0.000 NA
ATOM      6  C   UNL     1       3.572   2.189  18.088  0.00  0.00    +0.000 A 
ATOM      7  C   UNL     1       4.159   3.430  17.907  0.00  0.00    +0.000 A 
ATOM      8 CL   UNL     1       4.951   3.649  16.389  0.00  0.00    +0.000 Cl
BRANCH   4   9
ATOM      9  C   UNL     1       1.977   2.442  21.276  0.00  0.00    +0.000 C 
ATOM     10  N   UNL     1       1.368   2.203  22.240  0.00  0.00    +0.000 NA
ENDBRANCH   4   9
ENDBRANCH   1   2
BRANCH   1  11
ATOM     11  N   UNL     1       3.631   6.616  19.566  0.00  0.00    +0.000 N 
ATOM     12  C   UNL     1       2.515   7.068  18.865  0.00  0.00    +0.000 C 
ATOM     13  O   UNL     1       2.078   6.594  17.822  0.00  0.00    +0.000 OA
ATOM     14  H   UNL     1       3.947   7.151  20.372  0.00  0.00    +0.000 HD
BRANCH  12  15
ATOM     15  C   UNL     1       1.850   8.268  19.493  0.00  0.00    +0.000 A 
ATOM     16  C   UNL     1       1.406   8.209  20.812  0.00  0.00    +0.000 A 
ATOM     17  C   UNL     1       0.662   9.281  21.334  0.00  0.00    +0.000 A 
ATOM     18  C   UNL     1       0.136   9.268  22.639  0.00  0.00    +0.000 A 
ATOM     19  C   UNL     1      -0.666  10.316  23.101  0.00  0.00    +0.000 A 
ATOM     20  C   UNL     1      -0.941  11.401  22.271  0.00  0.00    +0.000 A 
ATOM     21  C   UNL     1      -0.397  11.449  20.988  0.00  0.00    +0.000 A 
ATOM     22  C   UNL     1       0.405  10.393  20.506  0.00  0.00    +0.000 A 
ATOM     23  C   UNL     1       0.952  10.378  19.219  0.00  0.00    +0.000 A 
ATOM     24  N   UNL     1       1.657   9.347  18.682  0.00  0.00    +0.000 NA
ENDBRANCH  12  15
ENDBRANCH   1  11
BRANCH   1  25
ATOM     25  C   UNL     1       5.271   6.160  17.795  0.00  0.00    +0.000 C 
BRANCH  25  27
ATOM     26  C   UNL     1       7.480   7.457  17.548  0.00  0.00    +0.000 C 
ATOM     27  C   UNL     1       6.808   6.124  17.859  0.00  0.00    +0.000 C 
ATOM     28  C   UNL     1       7.208   5.683  19.280  0.00  0.00    +0.000 C 
ENDBRANCH  25  27
ENDBRANCH   1  25
TORSDOF 6
ENDMDL
MODEL 6
REMARK VINA RESULT:      -7.3      1.830      2.745
REMARK  Name = 
REMARK  8 active torsions:
REMARK  status: ('A' for Active; 'I' for Inactive)
REMARK    1  A    between atoms: C_1  and  C_2
REMARK    2  A    between atoms: C_2  and  C_3
REMARK    3  A    between atoms: C_2  and  C_4
REMARK    4  A    between atoms: C_4  and  N_5
REMARK    5  A    between atoms: N_5  and  N_6
REMARK    6  A    between atoms: N_5  and  C_19
REMARK    7  A    between atoms: C_7  and  C_9
REMARK    8  A    between atoms: C_21  and  C_22
REMARK                            x       y       z     vdW  Elec       q    Type
REMARK                         _______ _______ _______ _____ _____    ______ ____
ROOT
ATOM      1  N   UNL     1       4.667   4.451  18.519  0.00  0.00    +0.000 N 
ENDROOT
BRANCH   1   2
ATOM      2  C   UNL     1       5.660   4.979  17.646  0.00  0.00    +0.000 A 
ATOM      3  N   UNL     1       6.275   6.098  18.094  0.00  0.00    +0.000 NA
ATOM      4  C   UNL     1       7.186   6.711  17.309  0.00  0.00    +0.000 A 
ATOM      5  N   UNL     1       7.573   6.287  16.096  0.00  0.00    +0.000 NA
ATOM      6  C   UNL     1       6.984   5.157  15.680  0.00  0.00    +0.000 A 
ATOM      7  C   UNL     1       6.026   4.457  16.394  0.00  0.00    +0.000 A 
ATOM      8 CL   UNL     1       5.491   2.991  15.657  0.00  0.00    +0.000 Cl
BRANCH   4   9
ATOM      9  C   UNL     1       7.784   7.927  17.790  0.00  0.00    +0.000 C 
ATOM     10  N   UNL     1       8.273   8.894  18.219  0.00  0.00    +0.000 NA
ENDBRANCH   4   9
ENDBRANCH   1   2
BRANCH   1  11
ATOM     11  N   UNL     1       3.880   5.487  19.108  0.00  0.00    +0.000 N 
ATOM     12  C   UNL     1       2.610   5.788  18.618  0.00  0.00    +0.000 C 
ATOM     13  O   UNL     1       1.964   5.111  17.827  0.00  0.00    +0.000 OA
ATOM     14  H   UNL     1       4.351   6.175  19.692  0.00  0.00    +0.000 HD
BRANCH  12  15
ATOM     15  C   UNL     1       2.056   7.093  19.134  0.00  0.00    +0.000 A 
ATOM     16  C   UNL     1       2.051   8.221  18.317  0.00  0.00    +0.000 A 
ATOM     17  C   UNL     1       1.666   9.459  18.860  0.00  0.00    +0.000 A 
ATOM     18  C   UNL     1       1.688  10.649  18.110  0.00  0.00    +0.000 A 
ATOM     19  C   UNL     1       1.373  11.877  18.701  0.00  0.00    +0.000 A 
ATOM     20  C   UNL     1       1.017  11.932  20.047  0.00  0.00    +0.000 A 
ATOM     21  C   UNL     1       0.953  10.756  20.796  0.00  0.00    +0.000 A 
ATOM     22  C   UNL     1       1.278   9.513  20.214  0.00  0.00    +0.000 A 
ATOM     23  C   UNL     1       1.257   8.310  20.926  0.00  0.00    +0.000 A 
ATOM     24  N   UNL     1       1.644   7.104  20.434  0.00  0.00    +0.000 NA
ENDBRANCH  12  15
ENDBRANCH   1  11
BRANCH   1  25
ATOM     25  C   UNL     1       5.055   3.352  19.419  0.00  0.00    +0.000 C 
BRANCH  25  27
ATOM     26  C   UNL     1       2.935   2.676  20.711  0.00  0.00    +0.000 C 
ATOM     27  C   UNL     1       4.001   2.268  19.699  0.00  0.00    +0.000 C 
ATOM     28  C   UNL     1       3.314   1.925  18.362  0.00  0.00    +0.000 C 
ENDBRANCH  25  27
ENDBRANCH   1  25
TORSDOF 6
ENDMDL
MODEL 7
REMARK VINA RESULT:      -7.2      1.996      2.705
REMARK  Name = 
REMARK  8 active torsions:
REMARK  status: ('A' for Active; 'I' for Inactive)
REMARK    1  A    between atoms: C_1  and  C_2
REMARK    2  A    between atoms: C_2  and  C_3
REMARK    3  A    between atoms: C_2  and  C_4
REMARK    4  A    between atoms: C_4  and  N_5
REMARK    5  A    between atoms: N_5  and  N_6
REMARK    6  A    between atoms: N_5  and  C_19
REMARK    7  A    between atoms: C_7  and  C_9
REMARK    8  A    between atoms: C_21  and  C_22
REMARK                            x       y       z     vdW  Elec       q    Type
REMARK                         _______ _______ _______ _____ _____    ______ ____
ROOT
ATOM      1  N   UNL     1       3.927   5.357  17.966  0.00  0.00    +0.000 N 
ENDROOT
BRANCH   1   2
ATOM      2  C   UNL     1       5.170   5.596  17.315  0.00  0.00    +0.000 A 
ATOM      3  N   UNL     1       5.872   6.649  17.796  0.00  0.00    +0.000 NA
ATOM      4  C   UNL     1       7.033   6.997  17.204  0.00  0.00    +0.000 A 
ATOM      5  N   UNL     1       7.592   6.360  16.163  0.00  0.00    +0.000 NA
ATOM      6  C   UNL     1       6.906   5.297  15.719  0.00  0.00    +0.000 A 
ATOM      7  C   UNL     1       5.699   4.862  16.240  0.00  0.00    +0.000 A 
ATOM      8 CL   UNL     1       5.073   3.419  15.529  0.00  0.00    +0.000 Cl
BRANCH   4   9
ATOM      9  C   UNL     1       7.729   8.152  17.705  0.00  0.00    +0.000 C 
ATOM     10  N   UNL     1       8.282   9.075  18.150  0.00  0.00    +0.000 NA
ENDBRANCH   4   9
ENDBRANCH   1   2
BRANCH   1  11
ATOM     11  N   UNL     1       3.425   6.539  18.591  0.00  0.00    +0.000 N 
ATOM     12  C   UNL     1       2.500   6.461  19.631  0.00  0.00    +0.000 C 
ATOM     13  O   UNL     1       2.190   5.447  20.246  0.00  0.00    +0.000 OA
ATOM     14  H   UNL     1       3.530   7.424  18.100  0.00  0.00    +0.000 HD
BRANCH  12  15
ATOM     15  C   UNL     1       1.845   7.780  19.959  0.00  0.00    +0.000 A 
ATOM     16  C   UNL     1       1.336   8.008  21.236  0.00  0.00    +0.000 A 
ATOM     17  C   UNL     1       0.602   9.181  21.481  0.00  0.00    +0.000 A 
ATOM     18  C   UNL     1       0.013   9.453  22.730  0.00  0.00    +0.000 A 
ATOM     19  C   UNL     1      -0.776  10.592  22.919  0.00  0.00    +0.000 A 
ATOM     20  C   UNL     1      -0.975  11.484  21.869  0.00  0.00    +0.000 A 
ATOM     21  C   UNL     1      -0.368  11.250  20.635  0.00  0.00    +0.000 A 
ATOM     22  C   UNL     1       0.422  10.100  20.428  0.00  0.00    +0.000 A 
ATOM     23  C   UNL     1       1.030   9.804  19.204  0.00  0.00    +0.000 A 
ATOM     24  N   UNL     1       1.726   8.669  18.932  0.00  0.00    +0.000 NA
ENDBRANCH  12  15
ENDBRANCH   1  11
BRANCH   1  25
ATOM     25  C   UNL     1       3.784   4.113  18.740  0.00  0.00    +0.000 C 
BRANCH  25  27
ATOM     26  C   UNL     1       3.490   1.558  18.658  0.00  0.00    +0.000 C 
ATOM     27  C   UNL     1       3.167   2.903  18.017  0.00  0.00    +0.000 C 
ATOM     28  C   UNL     1       1.638   3.095  18.002  0.00  0.00    +0.000 C 
ENDBRANCH  25  27
ENDBRANCH   1  25
TORSDOF 6
ENDMDL
MODEL 8
REMARK VINA RESULT:      -7.2      4.337      8.701
REMARK  Name = 
REMARK  8 active torsions:
REMARK  status: ('A' for Active; 'I' for Inactive)
REMARK    1  A    between atoms: C_1  and  C_2
REMARK    2  A    between atoms: C_2  and  C_3
REMARK    3  A    between atoms: C_2  and  C_4
REMARK    4  A    between atoms: C_4  and  N_5
REMARK    5  A    between atoms: N_5  and  N_6
REMARK    6  A    between atoms: N_5  and  C_19
REMARK    7  A    between atoms: C_7  and  C_9
REMARK    8  A    between atoms: C_21  and  C_22
REMARK                            x       y       z     vdW  Elec       q    Type
REMARK                         _______ _______ _______ _____ _____    ______ ____
ROOT
ATOM      1  N   UNL     1       0.840  10.898  18.660  0.00  0.00    +0.000 N 
ENDROOT
BRANCH   1   2
ATOM      2  C   UNL     1      -0.572  11.022  18.523  0.00  0.00    +0.000 A 
ATOM      3  N   UNL     1      -1.060  10.665  17.312  0.00  0.00    +0.000 NA
ATOM      4  C   UNL     1      -2.378  10.808  17.062  0.00  0.00    +0.000 A 
ATOM      5  N   UNL     1      -3.288  11.260  17.939  0.00  0.00    +0.000 NA
ATOM      6  C   UNL     1      -2.798  11.576  19.146  0.00  0.00    +0.000 A 
ATOM      7  C   UNL     1      -1.464  11.485  19.505  0.00  0.00    +0.000 A 
ATOM      8 CL   UNL     1      -1.120  11.880  21.150  0.00  0.00    +0.000 Cl
BRANCH   4   9
ATOM      9  C   UNL     1      -2.859  10.469  15.749  0.00  0.00    +0.000 C 
ATOM     10  N   UNL     1      -3.244  10.236  14.675  0.00  0.00    +0.000 NA
ENDBRANCH   4   9
ENDBRANCH   1   2
BRANCH   1  11
ATOM     11  N   UNL     1       1.208   9.610  19.155  0.00  0.00    +0.000 N 
ATOM     12  C   UNL     1       1.967   8.735  18.379  0.00  0.00    +0.000 C 
ATOM     13  O   UNL     1       2.560   9.018  17.344  0.00  0.00    +0.000 OA
ATOM     14  H   UNL     1       0.690   9.232  19.945  0.00  0.00    +0.000 HD
BRANCH  12  15
ATOM     15  C   UNL     1       1.997   7.324  18.911  0.00  0.00    +0.000 A 
ATOM     16  C   UNL     1       2.130   6.250  18.034  0.00  0.00    +0.000 A 
ATOM     17  C   UNL     1       2.011   4.940  18.530  0.00  0.00    +0.000 A 
ATOM     18  C   UNL     1       2.081   3.809  17.696  0.00  0.00    +0.000 A 
ATOM     19  C   UNL     1       1.880   2.524  18.209  0.00  0.00    +0.000 A 
ATOM     20  C   UNL     1       1.623   2.348  19.566  0.00  0.00    +0.000 A 
ATOM     21  C   UNL     1       1.588   3.455  20.415  0.00  0.00    +0.000 A 
ATOM     22  C   UNL     1       1.778   4.757  19.909  0.00  0.00    +0.000 A 
ATOM     23  C   UNL     1       1.725   5.902  20.710  0.00  0.00    +0.000 A 
ATOM     24  N   UNL     1       1.816   7.179  20.255  0.00  0.00    +0.000 NA
ENDBRANCH  12  15
ENDBRANCH   1  11
BRANCH   1  25
ATOM     25  C   UNL     1       1.580  12.037  19.227  0.00  0.00    +0.000 C 
BRANCH  25  27
ATOM     26  C   UNL     1       0.781  14.458  18.880  0.00  0.00    +0.000 C 
ATOM     27  C   UNL     1       1.658  13.316  18.378  0.00  0.00    +0.000 C 
ATOM     28  C   UNL     1       3.127  13.784  18.367  0.00  0.00    +0.000 C 
ENDBRANCH  25  27
ENDBRANCH   1  25
TORSDOF 6
ENDMDL
MODEL 9
REMARK VINA RESULT:      -7.1      0.860      1.524
REMARK  Name = 
REMARK  8 active torsions:
REMARK  status: ('A' for Active; 'I' for Inactive)
REMARK    1  A    between atoms: C_1  and  C_2
REMARK    2  A    between atoms: C_2  and  C_3
REMARK    3  A    between atoms: C_2  and  C_4
REMARK    4  A    between atoms: C_4  and  N_5
REMARK    5  A    between atoms: N_5  and  N_6
REMARK    6  A    between atoms: N_5  and  C_19
REMARK    7  A    between atoms: C_7  and  C_9
REMARK    8  A    between atoms: C_21  and  C_22
REMARK                            x       y       z     vdW  Elec       q    Type
REMARK                         _______ _______ _______ _____ _____    ______ ____
ROOT
ATOM      1  N   UNL     1       4.356   3.968  18.625  0.00  0.00    +0.000 N 
ENDROOT
BRANCH   1   2
ATOM      2  C   UNL     1       5.411   4.388  17.766  0.00  0.00    +0.000 A 
ATOM      3  N   UNL     1       5.233   4.089  16.458  0.00  0.00    +0.000 NA
ATOM      4  C   UNL     1       6.206   4.387  15.573  0.00  0.00    +0.000 A 
ATOM      5  N   UNL     1       7.363   5.000  15.871  0.00  0.00    +0.000 NA
ATOM      6  C   UNL     1       7.511   5.324  17.164  0.00  0.00    +0.000 A 
ATOM      7  C   UNL     1       6.587   5.050  18.157  0.00  0.00    +0.000 A 
ATOM      8 CL   UNL     1       6.997   5.650  19.723  0.00  0.00    +0.000 Cl
BRANCH   4   9
ATOM      9  C   UNL     1       6.011   4.010  14.198  0.00  0.00    +0.000 C 
ATOM     10  N   UNL     1       5.813   3.692  13.096  0.00  0.00    +0.000 NA
ENDBRANCH   4   9
ENDBRANCH   1   2
BRANCH   1  11
ATOM     11  N   UNL     1       3.638   5.081  19.157  0.00  0.00    +0.000 N 
ATOM     12  C   UNL     1       2.455   5.520  18.564  0.00  0.00    +0.000 C 
ATOM     13  O   UNL     1       1.810   4.920  17.712  0.00  0.00    +0.000 OA
ATOM     14  H   UNL     1       4.127   5.713  19.788  0.00  0.00    +0.000 HD
BRANCH  12  15
ATOM     15  C   UNL     1       2.001   6.875  19.047  0.00  0.00    +0.000 A 
ATOM     16  C   UNL     1       2.059   7.976  18.194  0.00  0.00    +0.000 A 
ATOM     17  C   UNL     1       1.771   9.253  18.704  0.00  0.00    +0.000 A 
ATOM     18  C   UNL     1       1.860  10.416  17.916  0.00  0.00    +0.000 A 
ATOM     19  C   UNL     1       1.642  11.680  18.473  0.00  0.00    +0.000 A 
ATOM     20  C   UNL     1       1.316  11.800  19.822  0.00  0.00    +0.000 A 
ATOM     21  C   UNL     1       1.185  10.656  20.609  0.00  0.00    +0.000 A 
ATOM     22  C   UNL     1       1.413   9.376  20.062  0.00  0.00    +0.000 A 
ATOM     23  C   UNL     1       1.322   8.200  20.813  0.00  0.00    +0.000 A 
ATOM     24  N   UNL     1       1.616   6.955  20.353  0.00  0.00    +0.000 NA
ENDBRANCH  12  15
ENDBRANCH   1  11
BRANCH   1  25
ATOM     25  C   UNL     1       4.631   2.873  19.570  0.00  0.00    +0.000 C 
BRANCH  25  27
ATOM     26  C   UNL     1       2.624   2.719  21.173  0.00  0.00    +0.000 C 
ATOM     27  C   UNL     1       3.428   2.051  20.062  0.00  0.00    +0.000 C 
ATOM     28  C   UNL     1       2.502   1.806  18.854  0.00  0.00    +0.000 C 
ENDBRANCH  25  27
ENDBRANCH   1  25
TORSDOF 6
ENDMDL
