MODEL 1
REMARK VINA RESULT:      -7.6      0.000      0.000
REMARK  Name = 
REMARK  2 active torsions:
REMARK  status: ('A' for Active; 'I' for Inactive)
REMARK    1  A    between atoms: C_1  and  N_2
REMARK    2  A    between atoms: C_6  and  C_7
REMARK                            x       y       z     vdW  Elec       q    Type
REMARK                         _______ _______ _______ _____ _____    ______ ____
ROOT
ATOM      1  C   UNL     1       4.460   4.788  17.171  0.00  0.00    +0.000 C 
ATOM      2  C   UNL     1       4.825   5.987  18.052  0.00  0.00    +0.000 C 
ATOM      3  C   UNL     1       5.785   6.864  17.246  0.00  0.00    +0.000 C 
ATOM      4  C   UNL     1       7.039   6.090  16.810  0.00  0.00    +0.000 C 
ATOM      5  N   UNL     1       6.701   4.779  16.236  0.00  0.00    +0.000 N 
ATOM      6  C   UNL     1       6.771   4.631  14.856  0.00  0.00    +0.000 A 
ATOM      7  N   UNL     1       7.594   5.435  14.163  0.00  0.00    +0.000 NA
ATOM      8  C   UNL     1       7.713   5.233  12.839  0.00  0.00    +0.000 A 
ATOM      9  C   UNL     1       7.035   4.257  12.157  0.00  0.00    +0.000 A 
ATOM     10  C   UNL     1       6.205   3.496  12.934  0.00  0.00    +0.000 A 
ATOM     11  N   UNL     1       6.052   3.667  14.257  0.00  0.00    +0.000 NA
ATOM     12  C   UNL     1       5.727   3.956  16.970  0.00  0.00    +0.000 C 
ENDROOT
BRANCH   1  18
ATOM     13  C   UNL     1       4.449   2.950  19.610  0.00  0.00    +0.000 C 
ATOM     14  N   UNL     1       3.341   3.154  18.714  0.00  0.00    +0.000 N 
ATOM     15  C   UNL     1       2.175   2.461  18.700  0.00  0.00    +0.000 A 
ATOM     16  N   UNL     1       1.388   2.950  17.771  0.00  0.00    +0.000 NA
ATOM     17  N   UNL     1       2.078   3.953  17.129  0.00  0.00    +0.000 NA
ATOM     18  C   UNL     1       3.274   4.039  17.670  0.00  0.00    +0.000 A 
ENDBRANCH   1  18
TORSDOF 1
ENDMDL
MODEL 2
REMARK VINA RESULT:      -7.5      2.096      2.900
REMARK  Name = 
REMARK  2 active torsions:
REMARK  status: ('A' for Active; 'I' for Inactive)
REMARK    1  A    between atoms: C_1  and  N_2
REMARK    2  A    between atoms: C_6  and  C_7
REMARK                            x       y       z     vdW  Elec       q    Type
REMARK                         _______ _______ _______ _____ _____    ______ ____
ROOT
ATOM      1  C   UNL     1       3.097   5.110  19.176  0.00  0.00    +0.000 C 
ATOM      2  C   UNL     1       2.349   6.442  19.293  0.00  0.00    +0.000 C 
ATOM      3  C   UNL     1       2.533   7.181  17.966  0.00  0.00    +0.000 C 
ATOM      4  C   UNL     1       4.017   7.402  17.635  0.00  0.00    +0.000 C 
ATOM      5  N   UNL     1       4.809   6.177  17.825  0.00  0.00    +0.000 N 
ATOM      6  C   UNL     1       5.203   5.471  16.695  0.00  0.00    +0.000 A 
ATOM      7  N   UNL     1       5.325   6.132  15.533  0.00  0.00    +0.000 NA
ATOM      8  C   UNL     1       5.782   5.457  14.462  0.00  0.00    +0.000 A 
ATOM      9  C   UNL     1       6.122   4.130  14.492  0.00  0.00    +0.000 A 
ATOM     10  C   UNL     1       5.950   3.529  15.708  0.00  0.00    +0.000 A 
ATOM     11  N   UNL     1       5.492   4.164  16.800  0.00  0.00    +0.000 NA
ATOM     12  C   UNL     1       4.589   5.422  19.069  0.00  0.00    +0.000 C 
ENDROOT
BRANCH   1  18
ATOM     13  C   UNL     1       2.723   2.109  18.745  0.00  0.00    +0.000 C 
ATOM     14  N   UNL     1       2.474   2.813  19.976  0.00  0.00    +0.000 N 
ATOM     15  C   UNL     1       1.890   2.308  21.091  0.00  0.00    +0.000 A 
ATOM     16  N   UNL     1       1.863   3.229  22.025  0.00  0.00    +0.000 NA
ATOM     17  N   UNL     1       2.398   4.379  21.489  0.00  0.00    +0.000 NA
ATOM     18  C   UNL     1       2.720   4.136  20.237  0.00  0.00    +0.000 A 
ENDBRANCH   1  18
TORSDOF 1
ENDMDL
MODEL 3
REMARK VINA RESULT:      -7.2      0.900      1.259
REMARK  Name = 
REMARK  2 active torsions:
REMARK  status: ('A' for Active; 'I' for Inactive)
REMARK    1  A    between atoms: C_1  and  N_2
REMARK    2  A    between atoms: C_6  and  C_7
REMARK                            x       y       z     vdW  Elec       q    Type
REMARK                         _______ _______ _______ _____ _____    ______ ____
ROOT
ATOM      1  C   UNL     1       4.524   4.878  16.994  0.00  0.00    +0.000 C 
ATOM      2  C   UNL     1       4.941   6.020  17.925  0.00  0.00    +0.000 C 
ATOM      3  C   UNL     1       5.970   6.865  17.171  0.00  0.00    +0.000 C 
ATOM      4  C   UNL     1       7.184   6.032  16.733  0.00  0.00    +0.000 C 
ATOM      5  N   UNL     1       6.780   4.765  16.105  0.00  0.00    +0.000 N 
ATOM      6  C   UNL     1       6.873   4.661  14.722  0.00  0.00    +0.000 A 
ATOM      7  N   UNL     1       7.758   5.437  14.076  0.00  0.00    +0.000 NA
ATOM      8  C   UNL     1       7.895   5.275  12.748  0.00  0.00    +0.000 A 
ATOM      9  C   UNL     1       7.174   4.367  12.017  0.00  0.00    +0.000 A 
ATOM     10  C   UNL     1       6.283   3.632  12.748  0.00  0.00    +0.000 A 
ATOM     11  N   UNL     1       6.111   3.765  14.074  0.00  0.00    +0.000 NA
ATOM     12  C   UNL     1       5.742   3.977  16.788  0.00  0.00    +0.000 C 
ENDROOT
BRANCH   1  18
ATOM     13  C   UNL     1       2.099   6.260  18.234  0.00  0.00    +0.000 C 
ATOM     14  N   UNL     1       2.259   4.838  18.076  0.00  0.00    +0.000 N 
ATOM     15  C   UNL     1       1.452   3.873  18.583  0.00  0.00    +0.000 A 
ATOM     16  N   UNL     1       1.888   2.695  18.204  0.00  0.00    +0.000 NA
ATOM     17  N   UNL     1       3.038   2.894  17.472  0.00  0.00    +0.000 NA
ATOM     18  C   UNL     1       3.284   4.186  17.440  0.00  0.00    +0.000 A 
ENDBRANCH   1  18
TORSDOF 1
ENDMDL
MODEL 4
REMARK VINA RESULT:      -6.9      2.959      6.295
REMARK  Name = 
REMARK  2 active torsions:
REMARK  status: ('A' for Active; 'I' for Inactive)
REMARK    1  A    between atoms: C_1  and  N_2
REMARK    2  A    between atoms: C_6  and  C_7
REMARK                            x       y       z     vdW  Elec       q    Type
REMARK                         _______ _______ _______ _____ _____    ______ ____
ROOT
ATOM      1  C   UNL     1       4.414   6.238  17.924  0.00  0.00    +0.000 C 
ATOM      2  C   UNL     1       3.497   7.359  17.421  0.00  0.00    +0.000 C 
ATOM      3  C   UNL     1       2.167   7.220  18.163  0.00  0.00    +0.000 C 
ATOM      4  C   UNL     1       1.530   5.838  17.944  0.00  0.00    +0.000 C 
ATOM      5  N   UNL     1       2.505   4.752  18.125  0.00  0.00    +0.000 N 
ATOM      6  C   UNL     1       2.447   4.010  19.299  0.00  0.00    +0.000 A 
ATOM      7  N   UNL     1       1.277   3.930  19.953  0.00  0.00    +0.000 NA
ATOM      8  C   UNL     1       1.212   3.148  21.046  0.00  0.00    +0.000 A 
ATOM      9  C   UNL     1       2.277   2.434  21.531  0.00  0.00    +0.000 A 
ATOM     10  C   UNL     1       3.433   2.587  20.817  0.00  0.00    +0.000 A 
ATOM     11  N   UNL     1       3.543   3.361  19.725  0.00  0.00    +0.000 NA
ATOM     12  C   UNL     1       3.813   4.908  17.471  0.00  0.00    +0.000 C 
ENDROOT
BRANCH   1  18
ATOM     13  C   UNL     1       6.794   5.362  19.625  0.00  0.00    +0.000 C 
ATOM     14  N   UNL     1       6.875   6.122  18.406  0.00  0.00    +0.000 N 
ATOM     15  C   UNL     1       7.984   6.709  17.893  0.00  0.00    +0.000 A 
ATOM     16  N   UNL     1       7.687   7.284  16.751  0.00  0.00    +0.000 NA
ATOM     17  N   UNL     1       6.337   7.111  16.540  0.00  0.00    +0.000 NA
ATOM     18  C   UNL     1       5.843   6.451  17.566  0.00  0.00    +0.000 A 
ENDBRANCH   1  18
TORSDOF 1
ENDMDL
MODEL 5
REMARK VINA RESULT:      -6.8      1.708      2.074
REMARK  Name = 
REMARK  2 active torsions:
REMARK  status: ('A' for Active; 'I' for Inactive)
REMARK    1  A    between atoms: C_1  and  N_2
REMARK    2  A    between atoms: C_6  and  C_7
REMARK                            x       y       z     vdW  Elec       q    Type
REMARK                         _______ _______ _______ _____ _____    ______ ____
ROOT
ATOM      1  C   UNL     1       2.805   5.142  17.968  0.00  0.00    +0.000 C 
ATOM      2  C   UNL     1       2.577   6.587  18.425  0.00  0.00    +0.000 C 
ATOM      3  C   UNL     1       3.463   7.480  17.555  0.00  0.00    +0.000 C 
ATOM      4  C   UNL     1       4.946   7.091  17.657  0.00  0.00    +0.000 C 
ATOM      5  N   UNL     1       5.140   5.639  17.527  0.00  0.00    +0.000 N 
ATOM      6  C   UNL     1       5.637   5.151  16.324  0.00  0.00    +0.000 A 
ATOM      7  N   UNL     1       6.384   5.964  15.559  0.00  0.00    +0.000 NA
ATOM      8  C   UNL     1       6.924   5.460  14.435  0.00  0.00    +0.000 A 
ATOM      9  C   UNL     1       6.748   4.164  14.025  0.00  0.00    +0.000 A 
ATOM     10  C   UNL     1       5.961   3.411  14.851  0.00  0.00    +0.000 A 
ATOM     11  N   UNL     1       5.397   3.876  15.978  0.00  0.00    +0.000 NA
ATOM     12  C   UNL     1       4.248   4.769  18.309  0.00  0.00    +0.000 C 
ENDROOT
BRANCH   1  18
ATOM     13  C   UNL     1       2.120   4.694  20.910  0.00  0.00    +0.000 C 
ATOM     14  N   UNL     1       1.557   3.968  19.802  0.00  0.00    +0.000 N 
ATOM     15  C   UNL     1       0.762   2.872  19.876  0.00  0.00    +0.000 A 
ATOM     16  N   UNL     1       0.411   2.505  18.667  0.00  0.00    +0.000 NA
ATOM     17  N   UNL     1       1.035   3.352  17.779  0.00  0.00    +0.000 NA
ATOM     18  C   UNL     1       1.765   4.202  18.468  0.00  0.00    +0.000 A 
ENDBRANCH   1  18
TORSDOF 1
ENDMDL
MODEL 6
REMARK VINA RESULT:      -6.7      1.775      6.010
REMARK  Name = 
REMARK  2 active torsions:
REMARK  status: ('A' for Active; 'I' for Inactive)
REMARK    1  A    between atoms: C_1  and  N_2
REMARK    2  A    between atoms: C_6  and  C_7
REMARK                            x       y       z     vdW  Elec       q    Type
REMARK                         _______ _______ _______ _____ _____    ______ ____
ROOT
ATOM      1  C   UNL     1       4.539   5.415  17.059  0.00  0.00    +0.000 C 
ATOM      2  C   UNL     1       4.157   6.893  16.919  0.00  0.00    +0.000 C 
ATOM      3  C   UNL     1       3.414   7.289  18.196  0.00  0.00    +0.000 C 
ATOM      4  C   UNL     1       2.174   6.413  18.433  0.00  0.00    +0.000 C 
ATOM      5  N   UNL     1       2.473   4.984  18.258  0.00  0.00    +0.000 N 
ATOM      6  C   UNL     1       2.598   4.198  19.397  0.00  0.00    +0.000 A 
ATOM      7  N   UNL     1       1.965   4.583  20.518  0.00  0.00    +0.000 NA
ATOM      8  C   UNL     1       2.028   3.776  21.593  0.00  0.00    +0.000 A 
ATOM      9  C   UNL     1       2.709   2.587  21.609  0.00  0.00    +0.000 A 
ATOM     10  C   UNL     1       3.339   2.280  20.435  0.00  0.00    +0.000 A 
ATOM     11  N   UNL     1       3.307   3.059  19.340  0.00  0.00    +0.000 NA
ATOM     12  C   UNL     1       3.246   4.600  17.067  0.00  0.00    +0.000 C 
ENDROOT
BRANCH   1  18
ATOM     13  C   UNL     1       7.453   4.781  17.719  0.00  0.00    +0.000 C 
ATOM     14  N   UNL     1       6.881   4.799  16.397  0.00  0.00    +0.000 N 
ATOM     15  C   UNL     1       7.555   4.698  15.225  0.00  0.00    +0.000 A 
ATOM     16  N   UNL     1       6.702   4.716  14.228  0.00  0.00    +0.000 NA
ATOM     17  N   UNL     1       5.444   4.884  14.763  0.00  0.00    +0.000 NA
ATOM     18  C   UNL     1       5.563   4.983  16.069  0.00  0.00    +0.000 A 
ENDBRANCH   1  18
TORSDOF 1
ENDMDL
MODEL 7
REMARK VINA RESULT:      -6.7      1.310      5.610
REMARK  Name = 
REMARK  2 active torsions:
REMARK  status: ('A' for Active; 'I' for Inactive)
REMARK    1  A    between atoms: C_1  and  N_2
REMARK    2  A    between atoms: C_6  and  C_7
REMARK                            x       y       z     vdW  Elec       q    Type
REMARK                         _______ _______ _______ _____ _____    ______ ____
ROOT
ATOM      1  C   UNL     1       6.412   5.066  16.567  0.00  0.00    +0.000 C 
ATOM      2  C   UNL     1       7.421   5.695  17.533  0.00  0.00    +0.000 C 
ATOM      3  C   UNL     1       7.064   5.209  18.939  0.00  0.00    +0.000 C 
ATOM      4  C   UNL     1       5.622   5.576  19.323  0.00  0.00    +0.000 C 
ATOM      5  N   UNL     1       4.671   5.251  18.249  0.00  0.00    +0.000 N 
ATOM      6  C   UNL     1       3.869   4.127  18.404  0.00  0.00    +0.000 A 
ATOM      7  N   UNL     1       3.596   3.697  19.646  0.00  0.00    +0.000 NA
ATOM      8  C   UNL     1       2.756   2.655  19.789  0.00  0.00    +0.000 A 
ATOM      9  C   UNL     1       2.171   2.005  18.734  0.00  0.00    +0.000 A 
ATOM     10  C   UNL     1       2.516   2.495  17.505  0.00  0.00    +0.000 A 
ATOM     11  N   UNL     1       3.354   3.528  17.318  0.00  0.00    +0.000 NA
ATOM     12  C   UNL     1       5.037   5.655  16.883  0.00  0.00    +0.000 C 
ENDROOT
BRANCH   1  18
ATOM     13  C   UNL     1       5.184   3.467  14.273  0.00  0.00    +0.000 C 
ATOM     14  N   UNL     1       6.317   4.349  14.163  0.00  0.00    +0.000 N 
ATOM     15  C   UNL     1       7.122   4.499  13.082  0.00  0.00    +0.000 A 
ATOM     16  N   UNL     1       8.026   5.415  13.335  0.00  0.00    +0.000 NA
ATOM     17  N   UNL     1       7.838   5.837  14.632  0.00  0.00    +0.000 NA
ATOM     18  C   UNL     1       6.836   5.154  15.143  0.00  0.00    +0.000 A 
ENDBRANCH   1  18
TORSDOF 1
ENDMDL
MODEL 8
REMARK VINA RESULT:      -6.6      0.969      1.526
REMARK  Name = 
REMARK  2 active torsions:
REMARK  status: ('A' for Active; 'I' for Inactive)
REMARK    1  A    between atoms: C_1  and  N_2
REMARK    2  A    between atoms: C_6  and  C_7
REMARK                            x       y       z     vdW  Elec       q    Type
REMARK                         _______ _______ _______ _____ _____    ______ ____
ROOT
ATOM      1  C   UNL     1       5.046   4.713  17.841  0.00  0.00    +0.000 C 
ATOM      2  C   UNL     1       5.398   6.013  18.572  0.00  0.00    +0.000 C 
ATOM      3  C   UNL     1       6.081   6.932  17.557  0.00  0.00    +0.000 C 
ATOM      4  C   UNL     1       7.331   6.280  16.945  0.00  0.00    +0.000 C 
ATOM      5  N   UNL     1       7.074   4.897  16.518  0.00  0.00    +0.000 N 
ATOM      6  C   UNL     1       6.923   4.650  15.159  0.00  0.00    +0.000 A 
ATOM      7  N   UNL     1       7.502   5.489  14.284  0.00  0.00    +0.000 NA
ATOM      8  C   UNL     1       7.417   5.198  12.973  0.00  0.00    +0.000 A 
ATOM      9  C   UNL     1       6.765   4.098  12.482  0.00  0.00    +0.000 A 
ATOM     10  C   UNL     1       6.188   3.308  13.438  0.00  0.00    +0.000 A 
ATOM     11  N   UNL     1       6.245   3.563  14.755  0.00  0.00    +0.000 NA
ATOM     12  C   UNL     1       6.357   4.024  17.461  0.00  0.00    +0.000 C 
ENDROOT
BRANCH   1  18
ATOM     13  C   UNL     1       2.020   5.123  17.843  0.00  0.00    +0.000 C 
ATOM     14  N   UNL     1       2.731   4.151  18.631  0.00  0.00    +0.000 N 
ATOM     15  C   UNL     1       2.212   3.370  19.612  0.00  0.00    +0.000 A 
ATOM     16  N   UNL     1       3.148   2.580  20.082  0.00  0.00    +0.000 NA
ATOM     17  N   UNL     1       4.319   2.889  19.427  0.00  0.00    +0.000 NA
ATOM     18  C   UNL     1       4.072   3.871  18.587  0.00  0.00    +0.000 A 
ENDBRANCH   1  18
TORSDOF 1
ENDMDL
MODEL 9
REMARK VINA RESULT:      -6.4      2.761      4.180
REMARK  Name = 
REMARK  2 active torsions:
REMARK  status: ('A' for Active; 'I' for Inactive)
REMARK    1  A    between atoms: C_1  and  N_2
REMARK    2  A    between atoms: C_6  and  C_7
REMARK                            x       y       z     vdW  Elec       q    Type
REMARK                         _______ _______ _______ _____ _____    ______ ____
ROOT
ATOM      1  C   UNL     1       2.912   5.261  19.281  0.00  0.00    +0.000 C 
ATOM      2  C   UNL     1       2.840   4.043  20.208  0.00  0.00    +0.000 C 
ATOM      3  C   UNL     1       3.938   3.074  19.766  0.00  0.00    +0.000 C 
ATOM      4  C   UNL     1       3.781   2.663  18.293  0.00  0.00    +0.000 C 
ATOM      5  N   UNL     1       3.534   3.824  17.425  0.00  0.00    +0.000 N 
ATOM      6  C   UNL     1       4.582   4.286  16.638  0.00  0.00    +0.000 A 
ATOM      7  N   UNL     1       5.554   3.427  16.290  0.00  0.00    +0.000 NA
ATOM      8  C   UNL     1       6.523   3.863  15.465  0.00  0.00    +0.000 A 
ATOM      9  C   UNL     1       6.576   5.138  14.966  0.00  0.00    +0.000 A 
ATOM     10  C   UNL     1       5.560   5.953  15.385  0.00  0.00    +0.000 A 
ATOM     11  N   UNL     1       4.577   5.560  16.211  0.00  0.00    +0.000 NA
ATOM     12  C   UNL     1       2.528   4.798  17.875  0.00  0.00    +0.000 C 
ENDROOT
BRANCH   1  18
ATOM     13  C   UNL     1       2.827   8.013  17.960  0.00  0.00    +0.000 C 
ATOM     14  N   UNL     1       2.222   7.674  19.221  0.00  0.00    +0.000 N 
ATOM     15  C   UNL     1       1.657   8.535  20.103  0.00  0.00    +0.000 A 
ATOM     16  N   UNL     1       1.176   7.863  21.123  0.00  0.00    +0.000 NA
ATOM     17  N   UNL     1       1.480   6.534  20.924  0.00  0.00    +0.000 NA
ATOM     18  C   UNL     1       2.155   6.433  19.799  0.00  0.00    +0.000 A 
ENDBRANCH   1  18
TORSDOF 1
ENDMDL
