MODEL 1
REMARK VINA RESULT:      -8.2      0.000      0.000
REMARK  Name = 
REMARK  4 active torsions:
REMARK  status: ('A' for Active; 'I' for Inactive)
REMARK    1  A    between atoms: C_1  and  C_2
REMARK    2  A    between atoms: C_2  and  C_4
REMARK    3  A    between atoms: C_14  and  N_15
REMARK    4  A    between atoms: N_25  and  C_26
REMARK                            x       y       z     vdW  Elec       q    Type
REMARK                         _______ _______ _______ _____ _____    ______ ____
ROOT
ATOM      1  C   UNL     1       5.396   5.268  17.699  0.00  0.00    +0.000 A 
ATOM      2  C   UNL     1       5.209   6.532  17.289  0.00  0.00    +0.000 A 
ATOM      3  C   UNL     1       3.968   7.215  17.583  0.00  0.00    +0.000 A 
ATOM      4  C   UNL     1       3.712   8.491  17.145  0.00  0.00    +0.000 A 
ATOM      5  N   UNL     1       2.584   9.148  17.430  0.00  0.00    +0.000 NA
ATOM      6  C   UNL     1       1.694   8.543  18.227  0.00  0.00    +0.000 A 
ATOM      7  N   UNL     1       0.518   9.203  18.573  0.00  0.00    +0.000 N 
ATOM      8  C   UNL     1       0.428  10.587  18.767  0.00  0.00    +0.000 A 
ATOM      9  C   UNL     1      -0.796  11.214  18.565  0.00  0.00    +0.000 A 
ATOM     10  C   UNL     1      -0.869  12.606  18.644  0.00  0.00    +0.000 A 
ATOM     11  C   UNL     1       0.266  13.366  18.938  0.00  0.00    +0.000 A 
ATOM     12  C   UNL     1       1.424  12.638  19.184  0.00  0.00    +0.000 A 
ATOM     13  N   UNL     1       1.522  11.290  19.122  0.00  0.00    +0.000 NA
ATOM     14  N   UNL     1       1.838   7.284  18.670  0.00  0.00    +0.000 NA
ATOM     15  C   UNL     1       2.975   6.631  18.343  0.00  0.00    +0.000 A 
ATOM     16  N   UNL     1       3.165   5.285  18.787  0.00  0.00    +0.000 N 
ATOM     17  C   UNL     1       4.307   4.560  18.442  0.00  0.00    +0.000 A 
ATOM     18  O   UNL     1       4.458   3.376  18.736  0.00  0.00    +0.000 OA
ATOM     19  H   UNL     1       0.003   8.669  19.256  0.00  0.00    +0.000 HD
ENDROOT
BRANCH  11  20
ATOM     20  N   UNL     1       0.189  14.755  18.911  0.00  0.00    +0.000 N 
ATOM     21  C   UNL     1       1.447  15.526  18.922  0.00  0.00    +0.000 C 
ATOM     22  C   UNL     1       1.143  16.973  18.475  0.00  0.00    +0.000 C 
ATOM     23  N   UNL     1       0.130  17.642  19.318  0.00  0.00    +0.000 NA
ATOM     24  C   UNL     1      -1.088  16.805  19.401  0.00  0.00    +0.000 C 
ATOM     25  C   UNL     1      -0.820  15.339  19.817  0.00  0.00    +0.000 C 
ATOM     26  H   UNL     1      -0.116  18.533  18.887  0.00  0.00    +0.000 HD
ENDBRANCH  11  20
BRANCH  16  27
ATOM     27  C   UNL     1       2.117   4.683  19.624  0.00  0.00    +0.000 C 
ATOM     28  C   UNL     1       1.344   3.521  18.998  0.00  0.00    +0.000 C 
ATOM     29  C   UNL     1       0.595   2.930  20.190  0.00  0.00    +0.000 C 
ATOM     30  C   UNL     1       1.477   3.192  21.413  0.00  0.00    +0.000 C 
ATOM     31  C   UNL     1       2.619   4.088  20.943  0.00  0.00    +0.000 C 
ENDBRANCH  16  27
BRANCH   1  33
ATOM     32  C   UNL     1       7.063   4.293  15.959  0.00  0.00    +0.000 C 
ATOM     33  C   UNL     1       6.730   4.662  17.380  0.00  0.00    +0.000 C 
ATOM     34  O   UNL     1       7.554   4.456  18.276  0.00  0.00    +0.000 OA
ENDBRANCH   1  33
TORSDOF 3
ENDMDL
MODEL 2
REMARK VINA RESULT:      -7.9      0.750      1.134
REMARK  Name = 
REMARK  4 active torsions:
REMARK  status: ('A' for Active; 'I' for Inactive)
REMARK    1  A    between atoms: C_1  and  C_2
REMARK    2  A    between atoms: C_2  and  C_4
REMARK    3  A    between atoms: C_14  and  N_15
REMARK    4  A    between atoms: N_25  and  C_26
REMARK                            x       y       z     vdW  Elec       q    Type
REMARK                         _______ _______ _______ _____ _____    ______ ____
ROOT
ATOM      1  C   UNL     1       5.076   5.342  17.223  0.00  0.00    +0.000 A 
ATOM      2  C   UNL     1       4.797   6.615  16.903  0.00  0.00    +0.000 A 
ATOM      3  C   UNL     1       3.679   7.292  17.522  0.00  0.00    +0.000 A 
ATOM      4  C   UNL     1       3.326   8.578  17.193  0.00  0.00    +0.000 A 
ATOM      5  N   UNL     1       2.314   9.228  17.775  0.00  0.00    +0.000 NA
ATOM      6  C   UNL     1       1.657   8.606  18.762  0.00  0.00    +0.000 A 
ATOM      7  N   UNL     1       0.615   9.258  19.415  0.00  0.00    +0.000 N 
ATOM      8  C   UNL     1       0.587  10.638  19.656  0.00  0.00    +0.000 A 
ATOM      9  C   UNL     1      -0.644  11.269  19.791  0.00  0.00    +0.000 A 
ATOM     10  C   UNL     1      -0.685  12.659  19.916  0.00  0.00    +0.000 A 
ATOM     11  C   UNL     1       0.492  13.412  19.923  0.00  0.00    +0.000 A 
ATOM     12  C   UNL     1       1.669  12.678  19.845  0.00  0.00    +0.000 A 
ATOM     13  N   UNL     1       1.740  11.332  19.730  0.00  0.00    +0.000 NA
ATOM     14  N   UNL     1       1.903   7.337  19.125  0.00  0.00    +0.000 NA
ATOM     15  C   UNL     1       2.913   6.691  18.501  0.00  0.00    +0.000 A 
ATOM     16  N   UNL     1       3.203   5.336  18.851  0.00  0.00    +0.000 N 
ATOM     17  C   UNL     1       4.212   4.618  18.206  0.00  0.00    +0.000 A 
ATOM     18  O   UNL     1       4.427   3.428  18.426  0.00  0.00    +0.000 OA
ATOM     19  H   UNL     1       0.291   8.709  20.196  0.00  0.00    +0.000 HD
ENDROOT
BRANCH  11  20
ATOM     20  N   UNL     1       0.419  14.801  19.947  0.00  0.00    +0.000 N 
ATOM     21  C   UNL     1      -0.891  15.429  20.203  0.00  0.00    +0.000 C 
ATOM     22  C   UNL     1      -0.662  16.907  20.592  0.00  0.00    +0.000 C 
ATOM     23  N   UNL     1       0.076  17.671  19.564  0.00  0.00    +0.000 NA
ATOM     24  C   UNL     1       1.334  16.973  19.224  0.00  0.00    +0.000 C 
ATOM     25  C   UNL     1       1.150  15.480  18.858  0.00  0.00    +0.000 C 
ATOM     26  H   UNL     1       0.305  18.590  19.944  0.00  0.00    +0.000 HD
ENDBRANCH  11  20
BRANCH  16  27
ATOM     27  C   UNL     1       2.404   4.715  19.918  0.00  0.00    +0.000 C 
ATOM     28  C   UNL     1       1.344   3.711  19.463  0.00  0.00    +0.000 C 
ATOM     29  C   UNL     1       0.938   3.031  20.768  0.00  0.00    +0.000 C 
ATOM     30  C   UNL     1       2.180   3.059  21.662  0.00  0.00    +0.000 C 
ATOM     31  C   UNL     1       3.217   3.915  20.939  0.00  0.00    +0.000 C 
ENDBRANCH  16  27
BRANCH   1  33
ATOM     32  C   UNL     1       6.118   3.981  15.269  0.00  0.00    +0.000 C 
ATOM     33  C   UNL     1       6.278   4.744  16.556  0.00  0.00    +0.000 C 
ATOM     34  O   UNL     1       7.399   4.865  17.061  0.00  0.00    +0.000 OA
ENDBRANCH   1  33
TORSDOF 3
ENDMDL
MODEL 3
REMARK VINA RESULT:      -7.8      3.935     10.566
REMARK  Name = 
REMARK  4 active torsions:
REMARK  status: ('A' for Active; 'I' for Inactive)
REMARK    1  A    between atoms: C_1  and  C_2
REMARK    2  A    between atoms: C_2  and  C_4
REMARK    3  A    between atoms: C_14  and  N_15
REMARK    4  A    between atoms: N_25  and  C_26
REMARK                            x       y       z     vdW  Elec       q    Type
REMARK                         _______ _______ _______ _____ _____    ______ ____
ROOT
ATOM      1  C   UNL     1      -2.117  13.585  20.598  0.00  0.00    +0.000 A 
ATOM      2  C   UNL     1      -2.159  12.267  20.347  0.00  0.00    +0.000 A 
ATOM      3  C   UNL     1      -1.038  11.613  19.709  0.00  0.00    +0.000 A 
ATOM      4  C   UNL     1      -1.052  10.277  19.390  0.00  0.00    +0.000 A 
ATOM      5  N   UNL     1      -0.015   9.650  18.827  0.00  0.00    +0.000 NA
ATOM      6  C   UNL     1       1.104  10.356  18.620  0.00  0.00    +0.000 A 
ATOM      7  N   UNL     1       2.218   9.735  18.062  0.00  0.00    +0.000 N 
ATOM      8  C   UNL     1       2.566   8.399  18.298  0.00  0.00    +0.000 A 
ATOM      9  C   UNL     1       3.306   7.720  17.337  0.00  0.00    +0.000 A 
ATOM     10  C   UNL     1       3.560   6.358  17.510  0.00  0.00    +0.000 A 
ATOM     11  C   UNL     1       3.091   5.682  18.639  0.00  0.00    +0.000 A 
ATOM     12  C   UNL     1       2.417   6.466  19.567  0.00  0.00    +0.000 A 
ATOM     13  N   UNL     1       2.163   7.788  19.430  0.00  0.00    +0.000 NA
ATOM     14  N   UNL     1       1.199  11.673  18.861  0.00  0.00    +0.000 NA
ATOM     15  C   UNL     1       0.126  12.291  19.405  0.00  0.00    +0.000 A 
ATOM     16  N   UNL     1       0.181  13.694  19.669  0.00  0.00    +0.000 N 
ATOM     17  C   UNL     1      -0.915  14.379  20.195  0.00  0.00    +0.000 A 
ATOM     18  O   UNL     1      -0.926  15.598  20.352  0.00  0.00    +0.000 OA
ATOM     19  H   UNL     1       3.008  10.361  18.065  0.00  0.00    +0.000 HD
ENDROOT
BRANCH  11  20
ATOM     20  N   UNL     1       3.269   4.306  18.739  0.00  0.00    +0.000 N 
ATOM     21  C   UNL     1       4.493   3.803  19.391  0.00  0.00    +0.000 C 
ATOM     22  C   UNL     1       4.284   2.316  19.756  0.00  0.00    +0.000 C 
ATOM     23  N   UNL     1       3.948   1.474  18.589  0.00  0.00    +0.000 NA
ATOM     24  C   UNL     1       2.792   2.050  17.868  0.00  0.00    +0.000 C 
ATOM     25  C   UNL     1       2.951   3.547  17.512  0.00  0.00    +0.000 C 
ATOM     26  H   UNL     1       3.694   0.544  18.922  0.00  0.00    +0.000 HD
ENDBRANCH  11  20
BRANCH  16  27
ATOM     27  C   UNL     1       1.437  14.400  19.372  0.00  0.00    +0.000 C 
ATOM     28  C   UNL     1       1.295  15.748  18.664  0.00  0.00    +0.000 C 
ATOM     29  C   UNL     1       2.692  16.349  18.796  0.00  0.00    +0.000 C 
ATOM     30  C   UNL     1       3.267  15.797  20.102  0.00  0.00    +0.000 C 
ATOM     31  C   UNL     1       2.278  14.748  20.604  0.00  0.00    +0.000 C 
ENDBRANCH  16  27
BRANCH   1  33
ATOM     32  C   UNL     1      -3.537  13.871  22.757  0.00  0.00    +0.000 C 
ATOM     33  C   UNL     1      -3.312  14.160  21.297  0.00  0.00    +0.000 C 
ATOM     34  O   UNL     1      -4.119  14.863  20.681  0.00  0.00    +0.000 OA
ENDBRANCH   1  33
TORSDOF 3
ENDMDL
MODEL 4
REMARK VINA RESULT:      -7.8      1.894      2.129
REMARK  Name = 
REMARK  4 active torsions:
REMARK  status: ('A' for Active; 'I' for Inactive)
REMARK    1  A    between atoms: C_1  and  C_2
REMARK    2  A    between atoms: C_2  and  C_4
REMARK    3  A    between atoms: C_14  and  N_15
REMARK    4  A    between atoms: N_25  and  C_26
REMARK                            x       y       z     vdW  Elec       q    Type
REMARK                         _______ _______ _______ _____ _____    ______ ____
ROOT
ATOM      1  C   UNL     1       4.506   5.905  17.138  0.00  0.00    +0.000 A 
ATOM      2  C   UNL     1       4.126   7.188  17.033  0.00  0.00    +0.000 A 
ATOM      3  C   UNL     1       3.103   7.715  17.909  0.00  0.00    +0.000 A 
ATOM      4  C   UNL     1       2.648   9.007  17.810  0.00  0.00    +0.000 A 
ATOM      5  N   UNL     1       1.724   9.520  18.628  0.00  0.00    +0.000 NA
ATOM      6  C   UNL     1       1.271   8.746  19.622  0.00  0.00    +0.000 A 
ATOM      7  N   UNL     1       0.329   9.250  20.515  0.00  0.00    +0.000 N 
ATOM      8  C   UNL     1       0.287  10.587  20.931  0.00  0.00    +0.000 A 
ATOM      9  C   UNL     1      -0.927  11.122  21.345  0.00  0.00    +0.000 A 
ATOM     10  C   UNL     1      -1.002  12.481  21.653  0.00  0.00    +0.000 A 
ATOM     11  C   UNL     1       0.127  13.298  21.563  0.00  0.00    +0.000 A 
ATOM     12  C   UNL     1       1.303  12.652  21.200  0.00  0.00    +0.000 A 
ATOM     13  N   UNL     1       1.408  11.336  20.904  0.00  0.00    +0.000 NA
ATOM     14  N   UNL     1       1.626   7.460  19.774  0.00  0.00    +0.000 NA
ATOM     15  C   UNL     1       2.540   6.956  18.915  0.00  0.00    +0.000 A 
ATOM     16  N   UNL     1       2.940   5.589  19.036  0.00  0.00    +0.000 N 
ATOM     17  C   UNL     1       3.853   5.017  18.149  0.00  0.00    +0.000 A 
ATOM     18  O   UNL     1       4.149   3.824  18.176  0.00  0.00    +0.000 OA
ATOM     19  H   UNL     1       0.166   8.593  21.261  0.00  0.00    +0.000 HD
ENDROOT
BRANCH  11  20
ATOM     20  N   UNL     1       0.004  14.667  21.776  0.00  0.00    +0.000 N 
ATOM     21  C   UNL     1      -1.046  15.141  22.698  0.00  0.00    +0.000 C 
ATOM     22  C   UNL     1      -0.733  16.601  23.094  0.00  0.00    +0.000 C 
ATOM     23  N   UNL     1      -0.630  17.509  21.933  0.00  0.00    +0.000 NA
ATOM     24  C   UNL     1       0.337  16.967  20.954  0.00  0.00    +0.000 C 
ATOM     25  C   UNL     1       0.075  15.495  20.555  0.00  0.00    +0.000 C 
ATOM     26  H   UNL     1      -0.293  18.416  22.258  0.00  0.00    +0.000 HD
ENDBRANCH  11  20
BRANCH  16  27
ATOM     27  C   UNL     1       2.359   4.798  20.132  0.00  0.00    +0.000 C 
ATOM     28  C   UNL     1       1.194   3.883  19.752  0.00  0.00    +0.000 C 
ATOM     29  C   UNL     1       1.046   2.993  20.984  0.00  0.00    +0.000 C 
ATOM     30  C   UNL     1       2.448   2.873  21.588  0.00  0.00    +0.000 C 
ATOM     31  C   UNL     1       3.340   3.838  20.812  0.00  0.00    +0.000 C 
ENDBRANCH  16  27
BRANCH   1  33
ATOM     32  C   UNL     1       6.983   5.214  16.751  0.00  0.00    +0.000 C 
ATOM     33  C   UNL     1       5.601   5.465  16.212  0.00  0.00    +0.000 C 
ATOM     34  O   UNL     1       5.377   5.316  15.006  0.00  0.00    +0.000 OA
ENDBRANCH   1  33
TORSDOF 3
ENDMDL
MODEL 5
REMARK VINA RESULT:      -7.8      1.612      1.632
REMARK  Name = 
REMARK  4 active torsions:
REMARK  status: ('A' for Active; 'I' for Inactive)
REMARK    1  A    between atoms: C_1  and  C_2
REMARK    2  A    between atoms: C_2  and  C_4
REMARK    3  A    between atoms: C_14  and  N_15
REMARK    4  A    between atoms: N_25  and  C_26
REMARK                            x       y       z     vdW  Elec       q    Type
REMARK                         _______ _______ _______ _____ _____    ______ ____
ROOT
ATOM      1  C   UNL     1       4.710   5.555  17.178  0.00  0.00    +0.000 A 
ATOM      2  C   UNL     1       4.350   6.835  16.995  0.00  0.00    +0.000 A 
ATOM      3  C   UNL     1       3.312   7.422  17.813  0.00  0.00    +0.000 A 
ATOM      4  C   UNL     1       2.877   8.712  17.632  0.00  0.00    +0.000 A 
ATOM      5  N   UNL     1       1.939   9.280  18.396  0.00  0.00    +0.000 NA
ATOM      6  C   UNL     1       1.449   8.565  19.417  0.00  0.00    +0.000 A 
ATOM      7  N   UNL     1       0.491   9.128  20.256  0.00  0.00    +0.000 N 
ATOM      8  C   UNL     1       0.456  10.486  20.599  0.00  0.00    +0.000 A 
ATOM      9  C   UNL     1      -0.761  11.057  20.951  0.00  0.00    +0.000 A 
ATOM     10  C   UNL     1      -0.826  12.432  21.183  0.00  0.00    +0.000 A 
ATOM     11  C   UNL     1       0.316  13.229  21.080  0.00  0.00    +0.000 A 
ATOM     12  C   UNL     1       1.492  12.551  20.785  0.00  0.00    +0.000 A 
ATOM     13  N   UNL     1       1.587  11.219  20.562  0.00  0.00    +0.000 NA
ATOM     14  N   UNL     1       1.782   7.286  19.648  0.00  0.00    +0.000 NA
ATOM     15  C   UNL     1       2.712   6.725  18.843  0.00  0.00    +0.000 A 
ATOM     16  N   UNL     1       3.090   5.362  19.047  0.00  0.00    +0.000 N 
ATOM     17  C   UNL     1       4.017   4.731  18.217  0.00  0.00    +0.000 A 
ATOM     18  O   UNL     1       4.297   3.538  18.316  0.00  0.00    +0.000 OA
ATOM     19  H   UNL     1       0.299   8.515  21.032  0.00  0.00    +0.000 HD
ENDROOT
BRANCH  11  20
ATOM     20  N   UNL     1       0.206  14.609  21.216  0.00  0.00    +0.000 N 
ATOM     21  C   UNL     1       1.245  15.459  20.604  0.00  0.00    +0.000 C 
ATOM     22  C   UNL     1       0.712  16.907  20.518  0.00  0.00    +0.000 C 
ATOM     23  N   UNL     1       0.315  17.458  21.831  0.00  0.00    +0.000 NA
ATOM     24  C   UNL     1      -0.637  16.541  22.494  0.00  0.00    +0.000 C 
ATOM     25  C   UNL     1      -0.152  15.074  22.572  0.00  0.00    +0.000 C 
ATOM     26  H   UNL     1      -0.147  18.355  21.680  0.00  0.00    +0.000 HD
ENDBRANCH  11  20
BRANCH  16  27
ATOM     27  C   UNL     1       2.469   4.638  20.167  0.00  0.00    +0.000 C 
ATOM     28  C   UNL     1       1.193   3.863  19.839  0.00  0.00    +0.000 C 
ATOM     29  C   UNL     1       0.997   2.991  21.077  0.00  0.00    +0.000 C 
ATOM     30  C   UNL     1       2.399   2.710  21.621  0.00  0.00    +0.000 C 
ATOM     31  C   UNL     1       3.362   3.570  20.807  0.00  0.00    +0.000 C 
ENDBRANCH  16  27
BRANCH   1  33
ATOM     32  C   UNL     1       5.575   4.813  14.842  0.00  0.00    +0.000 C 
ATOM     33  C   UNL     1       5.822   5.053  16.307  0.00  0.00    +0.000 C 
ATOM     34  O   UNL     1       6.938   4.826  16.786  0.00  0.00    +0.000 OA
ENDBRANCH   1  33
TORSDOF 3
ENDMDL
MODEL 6
REMARK VINA RESULT:      -7.7      4.242     10.496
REMARK  Name = 
REMARK  4 active torsions:
REMARK  status: ('A' for Active; 'I' for Inactive)
REMARK    1  A    between atoms: C_1  and  C_2
REMARK    2  A    between atoms: C_2  and  C_4
REMARK    3  A    between atoms: C_14  and  N_15
REMARK    4  A    between atoms: N_25  and  C_26
REMARK                            x       y       z     vdW  Elec       q    Type
REMARK                         _______ _______ _______ _____ _____    ______ ____
ROOT
ATOM      1  C   UNL     1      -1.164  13.787  23.084  0.00  0.00    +0.000 A 
ATOM      2  C   UNL     1      -1.366  12.481  22.854  0.00  0.00    +0.000 A 
ATOM      3  C   UNL     1      -0.636  11.807  21.802  0.00  0.00    +0.000 A 
ATOM      4  C   UNL     1      -0.842  10.484  21.498  0.00  0.00    +0.000 A 
ATOM      5  N   UNL     1      -0.158   9.838  20.549  0.00  0.00    +0.000 NA
ATOM      6  C   UNL     1       0.810  10.509  19.911  0.00  0.00    +0.000 A 
ATOM      7  N   UNL     1       1.568   9.866  18.936  0.00  0.00    +0.000 N 
ATOM      8  C   UNL     1       1.919   8.511  18.988  0.00  0.00    +0.000 A 
ATOM      9  C   UNL     1       2.168   7.837  17.799  0.00  0.00    +0.000 A 
ATOM     10  C   UNL     1       2.407   6.462  17.833  0.00  0.00    +0.000 A 
ATOM     11  C   UNL     1       2.411   5.767  19.044  0.00  0.00    +0.000 A 
ATOM     12  C   UNL     1       2.213   6.545  20.179  0.00  0.00    +0.000 A 
ATOM     13  N   UNL     1       1.987   7.879  20.177  0.00  0.00    +0.000 NA
ATOM     14  N   UNL     1       1.057  11.813  20.112  0.00  0.00    +0.000 NA
ATOM     15  C   UNL     1       0.331  12.451  21.056  0.00  0.00    +0.000 A 
ATOM     16  N   UNL     1       0.556  13.842  21.296  0.00  0.00    +0.000 N 
ATOM     17  C   UNL     1      -0.197  14.550  22.235  0.00  0.00    +0.000 A 
ATOM     18  O   UNL     1      -0.085  15.763  22.401  0.00  0.00    +0.000 OA
ATOM     19  H   UNL     1       2.318  10.462  18.624  0.00  0.00    +0.000 HD
ENDROOT
BRANCH  11  20
ATOM     20  N   UNL     1       2.549   4.383  19.042  0.00  0.00    +0.000 N 
ATOM     21  C   UNL     1       3.895   3.814  18.842  0.00  0.00    +0.000 C 
ATOM     22  C   UNL     1       3.877   2.334  19.285  0.00  0.00    +0.000 C 
ATOM     23  N   UNL     1       2.873   1.524  18.565  0.00  0.00    +0.000 NA
ATOM     24  C   UNL     1       1.543   2.164  18.668  0.00  0.00    +0.000 C 
ATOM     25  C   UNL     1       1.527   3.657  18.262  0.00  0.00    +0.000 C 
ATOM     26  H   UNL     1       2.826   0.602  19.000  0.00  0.00    +0.000 HD
ENDBRANCH  11  20
BRANCH  16  27
ATOM     27  C   UNL     1       1.610  14.511  20.520  0.00  0.00    +0.000 C 
ATOM     28  C   UNL     1       2.989  13.850  20.555  0.00  0.00    +0.000 C 
ATOM     29  C   UNL     1       3.738  14.566  19.433  0.00  0.00    +0.000 C 
ATOM     30  C   UNL     1       2.678  14.951  18.397  0.00  0.00    +0.000 C 
ATOM     31  C   UNL     1       1.323  14.622  19.019  0.00  0.00    +0.000 C 
ENDBRANCH  16  27
BRANCH   1  33
ATOM     32  C   UNL     1      -1.241  15.261  25.224  0.00  0.00    +0.000 C 
ATOM     33  C   UNL     1      -1.939  14.383  24.221  0.00  0.00    +0.000 C 
ATOM     34  O   UNL     1      -3.145  14.150  24.345  0.00  0.00    +0.000 OA
ENDBRANCH   1  33
TORSDOF 3
ENDMDL
MODEL 7
REMARK VINA RESULT:      -7.6      3.952     10.401
REMARK  Name = 
REMARK  4 active torsions:
REMARK  status: ('A' for Active; 'I' for Inactive)
REMARK    1  A    between atoms: C_1  and  C_2
REMARK    2  A    between atoms: C_2  and  C_4
REMARK    3  A    between atoms: C_14  and  N_15
REMARK    4  A    between atoms: N_25  and  C_26
REMARK                            x       y       z     vdW  Elec       q    Type
REMARK                         _______ _______ _______ _____ _____    ______ ____
ROOT
ATOM      1  C   UNL     1      -2.143  13.531  20.451  0.00  0.00    +0.000 A 
ATOM      2  C   UNL     1      -2.181  12.219  20.173  0.00  0.00    +0.000 A 
ATOM      3  C   UNL     1      -1.030  11.566  19.589  0.00  0.00    +0.000 A 
ATOM      4  C   UNL     1      -1.037  10.237  19.244  0.00  0.00    +0.000 A 
ATOM      5  N   UNL     1       0.026   9.611  18.731  0.00  0.00    +0.000 NA
ATOM      6  C   UNL     1       1.162  10.310  18.605  0.00  0.00    +0.000 A 
ATOM      7  N   UNL     1       2.301   9.688  18.101  0.00  0.00    +0.000 N 
ATOM      8  C   UNL     1       2.623   8.344  18.331  0.00  0.00    +0.000 A 
ATOM      9  C   UNL     1       3.413   7.677  17.403  0.00  0.00    +0.000 A 
ATOM     10  C   UNL     1       3.644   6.309  17.564  0.00  0.00    +0.000 A 
ATOM     11  C   UNL     1       3.104   5.616  18.650  0.00  0.00    +0.000 A 
ATOM     12  C   UNL     1       2.383   6.389  19.551  0.00  0.00    +0.000 A 
ATOM     13  N   UNL     1       2.149   7.716  19.425  0.00  0.00    +0.000 NA
ATOM     14  N   UNL     1       1.254  11.621  18.877  0.00  0.00    +0.000 NA
ATOM     15  C   UNL     1       0.156  12.238  19.368  0.00  0.00    +0.000 A 
ATOM     16  N   UNL     1       0.208  13.635  19.663  0.00  0.00    +0.000 N 
ATOM     17  C   UNL     1      -0.912  14.321  20.135  0.00  0.00    +0.000 A 
ATOM     18  O   UNL     1      -0.922  15.537  20.316  0.00  0.00    +0.000 OA
ATOM     19  H   UNL     1       3.095  10.306  18.164  0.00  0.00    +0.000 HD
ENDROOT
BRANCH  11  20
ATOM     20  N   UNL     1       3.264   4.237  18.733  0.00  0.00    +0.000 N 
ATOM     21  C   UNL     1       4.505   3.710  19.330  0.00  0.00    +0.000 C 
ATOM     22  C   UNL     1       4.288   2.224  19.693  0.00  0.00    +0.000 C 
ATOM     23  N   UNL     1       3.891   1.396  18.535  0.00  0.00    +0.000 NA
ATOM     24  C   UNL     1       2.715   1.995  17.866  0.00  0.00    +0.000 C 
ATOM     25  C   UNL     1       2.884   3.493  17.515  0.00  0.00    +0.000 C 
ATOM     26  H   UNL     1       3.636   0.467  18.872  0.00  0.00    +0.000 HD
ENDBRANCH  11  20
BRANCH  16  27
ATOM     27  C   UNL     1       1.484  14.335  19.454  0.00  0.00    +0.000 C 
ATOM     28  C   UNL     1       2.607  13.984  20.432  0.00  0.00    +0.000 C 
ATOM     29  C   UNL     1       3.838  14.599  19.769  0.00  0.00    +0.000 C 
ATOM     30  C   UNL     1       3.575  14.549  18.262  0.00  0.00    +0.000 C 
ATOM     31  C   UNL     1       2.131  14.085  18.088  0.00  0.00    +0.000 C 
ENDBRANCH  16  27
BRANCH   1  33
ATOM     32  C   UNL     1      -4.717  13.898  20.446  0.00  0.00    +0.000 C 
ATOM     33  C   UNL     1      -3.372  14.105  21.090  0.00  0.00    +0.000 C 
ATOM     34  O   UNL     1      -3.288  14.754  22.137  0.00  0.00    +0.000 OA
ENDBRANCH   1  33
TORSDOF 3
ENDMDL
MODEL 8
REMARK VINA RESULT:      -7.5      4.259     10.998
REMARK  Name = 
REMARK  4 active torsions:
REMARK  status: ('A' for Active; 'I' for Inactive)
REMARK    1  A    between atoms: C_1  and  C_2
REMARK    2  A    between atoms: C_2  and  C_4
REMARK    3  A    between atoms: C_14  and  N_15
REMARK    4  A    between atoms: N_25  and  C_26
REMARK                            x       y       z     vdW  Elec       q    Type
REMARK                         _______ _______ _______ _____ _____    ______ ____
ROOT
ATOM      1  C   UNL     1      -2.792  15.134  20.935  0.00  0.00    +0.000 A 
ATOM      2  C   UNL     1      -2.830  13.793  20.914  0.00  0.00    +0.000 A 
ATOM      3  C   UNL     1      -1.825  13.050  20.185  0.00  0.00    +0.000 A 
ATOM      4  C   UNL     1      -1.848  11.679  20.095  0.00  0.00    +0.000 A 
ATOM      5  N   UNL     1      -0.914  10.974  19.450  0.00  0.00    +0.000 NA
ATOM      6  C   UNL     1       0.118  11.644  18.920  0.00  0.00    +0.000 A 
ATOM      7  N   UNL     1       1.129  10.946  18.265  0.00  0.00    +0.000 N 
ATOM      8  C   UNL     1       1.566   9.670  18.641  0.00  0.00    +0.000 A 
ATOM      9  C   UNL     1       2.137   8.846  17.678  0.00  0.00    +0.000 A 
ATOM     10  C   UNL     1       2.471   7.533  18.016  0.00  0.00    +0.000 A 
ATOM     11  C   UNL     1       2.251   7.051  19.309  0.00  0.00    +0.000 A 
ATOM     12  C   UNL     1       1.735   7.973  20.211  0.00  0.00    +0.000 A 
ATOM     13  N   UNL     1       1.409   9.252  19.913  0.00  0.00    +0.000 NA
ATOM     14  N   UNL     1       0.206  12.983  18.922  0.00  0.00    +0.000 NA
ATOM     15  C   UNL     1      -0.767  13.675  19.556  0.00  0.00    +0.000 A 
ATOM     16  N   UNL     1      -0.717  15.103  19.575  0.00  0.00    +0.000 N 
ATOM     17  C   UNL     1      -1.720  15.858  20.185  0.00  0.00    +0.000 A 
ATOM     18  O   UNL     1      -1.747  17.087  20.142  0.00  0.00    +0.000 OA
ATOM     19  H   UNL     1       1.880  11.569  18.014  0.00  0.00    +0.000 HD
ENDROOT
BRANCH  11  20
ATOM     20  N   UNL     1       2.498   5.711  19.593  0.00  0.00    +0.000 N 
ATOM     21  C   UNL     1       1.844   5.114  20.773  0.00  0.00    +0.000 C 
ATOM     22  C   UNL     1       1.920   3.575  20.654  0.00  0.00    +0.000 C 
ATOM     23  N   UNL     1       3.303   3.069  20.529  0.00  0.00    +0.000 NA
ATOM     24  C   UNL     1       3.993   3.759  19.418  0.00  0.00    +0.000 C 
ATOM     25  C   UNL     1       3.913   5.303  19.486  0.00  0.00    +0.000 C 
ATOM     26  H   UNL     1       3.266   2.071  20.320  0.00  0.00    +0.000 HD
ENDBRANCH  11  20
BRANCH  16  27
ATOM     27  C   UNL     1       0.431  15.758  18.930  0.00  0.00    +0.000 C 
ATOM     28  C   UNL     1       0.099  16.910  17.981  0.00  0.00    +0.000 C 
ATOM     29  C   UNL     1       1.459  17.563  17.749  0.00  0.00    +0.000 C 
ATOM     30  C   UNL     1       2.262  17.332  19.032  0.00  0.00    +0.000 C 
ATOM     31  C   UNL     1       1.429  16.395  19.903  0.00  0.00    +0.000 C 
ENDBRANCH  16  27
BRANCH   1  33
ATOM     32  C   UNL     1      -5.161  16.190  21.109  0.00  0.00    +0.000 C 
ATOM     33  C   UNL     1      -3.854  15.810  21.750  0.00  0.00    +0.000 C 
ATOM     34  O   UNL     1      -3.659  16.065  22.943  0.00  0.00    +0.000 OA
ENDBRANCH   1  33
TORSDOF 3
ENDMDL
MODEL 9
REMARK VINA RESULT:      -7.5      4.301     10.694
REMARK  Name = 
REMARK  4 active torsions:
REMARK  status: ('A' for Active; 'I' for Inactive)
REMARK    1  A    between atoms: C_1  and  C_2
REMARK    2  A    between atoms: C_2  and  C_4
REMARK    3  A    between atoms: C_14  and  N_15
REMARK    4  A    between atoms: N_25  and  C_26
REMARK                            x       y       z     vdW  Elec       q    Type
REMARK                         _______ _______ _______ _____ _____    ______ ____
ROOT
ATOM      1  C   UNL     1      -0.939  14.100  23.249  0.00  0.00    +0.000 A 
ATOM      2  C   UNL     1      -1.177  12.800  23.017  0.00  0.00    +0.000 A 
ATOM      3  C   UNL     1      -0.510  12.123  21.927  0.00  0.00    +0.000 A 
ATOM      4  C   UNL     1      -0.755  10.807  21.621  0.00  0.00    +0.000 A 
ATOM      5  N   UNL     1      -0.129  10.157  20.636  0.00  0.00    +0.000 NA
ATOM      6  C   UNL     1       0.821  10.816  19.959  0.00  0.00    +0.000 A 
ATOM      7  N   UNL     1       1.519  10.168  18.944  0.00  0.00    +0.000 N 
ATOM      8  C   UNL     1       1.847   8.806  18.968  0.00  0.00    +0.000 A 
ATOM      9  C   UNL     1       2.027   8.139  17.763  0.00  0.00    +0.000 A 
ATOM     10  C   UNL     1       2.241   6.759  17.774  0.00  0.00    +0.000 A 
ATOM     11  C   UNL     1       2.288   6.053  18.978  0.00  0.00    +0.000 A 
ATOM     12  C   UNL     1       2.159   6.824  20.127  0.00  0.00    +0.000 A 
ATOM     13  N   UNL     1       1.959   8.162  20.147  0.00  0.00    +0.000 NA
ATOM     14  N   UNL     1       1.102  12.113  20.159  0.00  0.00    +0.000 NA
ATOM     15  C   UNL     1       0.433  12.756  21.142  0.00  0.00    +0.000 A 
ATOM     16  N   UNL     1       0.695  14.140  21.382  0.00  0.00    +0.000 N 
ATOM     17  C   UNL     1       0.001  14.852  22.362  0.00  0.00    +0.000 A 
ATOM     18  O   UNL     1       0.144  16.062  22.533  0.00  0.00    +0.000 OA
ATOM     19  H   UNL     1       2.265  10.753  18.602  0.00  0.00    +0.000 HD
ENDROOT
BRANCH  11  20
ATOM     20  N   UNL     1       2.401   4.667  18.957  0.00  0.00    +0.000 N 
ATOM     21  C   UNL     1       2.780   3.976  20.204  0.00  0.00    +0.000 C 
ATOM     22  C   UNL     1       2.441   2.475  20.061  0.00  0.00    +0.000 C 
ATOM     23  N   UNL     1       3.104   1.837  18.905  0.00  0.00    +0.000 NA
ATOM     24  C   UNL     1       2.818   2.604  17.673  0.00  0.00    +0.000 C 
ATOM     25  C   UNL     1       3.116   4.118  17.787  0.00  0.00    +0.000 C 
ATOM     26  H   UNL     1       2.731   0.894  18.796  0.00  0.00    +0.000 HD
ENDBRANCH  11  20
BRANCH  16  27
ATOM     27  C   UNL     1       1.725  14.797  20.563  0.00  0.00    +0.000 C 
ATOM     28  C   UNL     1       1.233  15.904  19.630  0.00  0.00    +0.000 C 
ATOM     29  C   UNL     1       2.530  16.578  19.190  0.00  0.00    +0.000 C 
ATOM     30  C   UNL     1       3.507  16.414  20.356  0.00  0.00    +0.000 C 
ATOM     31  C   UNL     1       2.828  15.492  21.366  0.00  0.00    +0.000 C 
ENDBRANCH  16  27
BRANCH   1  33
ATOM     32  C   UNL     1      -3.153  14.724  24.461  0.00  0.00    +0.000 C 
ATOM     33  C   UNL     1      -1.649  14.700  24.426  0.00  0.00    +0.000 C 
ATOM     34  O   UNL     1      -1.007  15.182  25.364  0.00  0.00    +0.000 OA
ENDBRANCH   1  33
TORSDOF 3
ENDMDL
