MODEL 1
REMARK VINA RESULT:      -8.4      0.000      0.000
REMARK  Name = 
REMARK  6 active torsions:
REMARK  status: ('A' for Active; 'I' for Inactive)
REMARK    1  A    between atoms: C_1  and  C_2
REMARK    2  A    between atoms: C_2  and  C_3
REMARK    3  A    between atoms: N_10  and  O_11
REMARK    4  A    between atoms: O_11  and  C_12
REMARK    5  A    between atoms: C_12  and  C_13
REMARK    6  A    between atoms: C_13  and  C_14
REMARK                            x       y       z     vdW  Elec       q    Type
REMARK                         _______ _______ _______ _____ _____    ______ ____
ROOT
ATOM      1  C   UNL     1       2.392   3.110  17.390  0.00  0.00    +0.000 C 
ATOM      2  C   UNL     1       2.593   3.570  18.845  0.00  0.00    +0.000 C 
ATOM      3  C   UNL     1       1.231   3.784  19.506  0.00  0.00    +0.000 C 
ATOM      4  N   UNL     1       3.209   2.438  19.566  0.00  0.00    +0.000 NA
ATOM      5  C   UNL     1       4.462   2.513  19.777  0.00  0.00    +0.000 C 
ATOM      6  N   UNL     1       5.102   1.495  20.436  0.00  0.00    +0.000 N 
ATOM      7  N   UNL     1       5.278   3.504  19.374  0.00  0.00    +0.000 NA
ATOM      8  C   UNL     1       4.724   4.619  18.953  0.00  0.00    +0.000 C 
ATOM      9  N   UNL     1       5.647   5.570  18.656  0.00  0.00    +0.000 N 
ATOM     10  N   UNL     1       3.360   4.827  18.892  0.00  0.00    +0.000 N 
ATOM     11  H   UNL     1       4.637   0.606  20.300  0.00  0.00    +0.000 HD
ATOM     12  H   UNL     1       6.086   1.491  20.228  0.00  0.00    +0.000 HD
ATOM     13  H   UNL     1       6.560   5.200  18.945  0.00  0.00    +0.000 HD
ATOM     14  H   UNL     1       5.497   6.443  19.139  0.00  0.00    +0.000 HD
ENDROOT
BRANCH  10  15
ATOM     15  O   UNL     1       2.820   5.863  18.034  0.00  0.00    +0.000 OA
BRANCH  15  16
ATOM     16  C   UNL     1       2.472   6.989  18.849  0.00  0.00    +0.000 C 
BRANCH  16  17
ATOM     17  C   UNL     1       2.267   8.349  18.153  0.00  0.00    +0.000 C 
BRANCH  17  18
ATOM     18  C   UNL     1       1.363   9.257  18.997  0.00  0.00    +0.000 A 
ATOM     19  C   UNL     1       0.755  10.413  18.468  0.00  0.00    +0.000 A 
ATOM     20  C   UNL     1      -0.088  11.218  19.247  0.00  0.00    +0.000 A 
ATOM     21  C   UNL     1      -0.337  10.899  20.580  0.00  0.00    +0.000 A 
ATOM     22  C   UNL     1      -1.198  11.694  21.352  0.00  0.00    +0.000 A 
ATOM     23  C   UNL     1      -1.444  11.373  22.681  0.00  0.00    +0.000 A 
ATOM     24  C   UNL     1      -0.831  10.258  23.249  0.00  0.00    +0.000 A 
ATOM     25  C   UNL     1       0.027   9.460  22.487  0.00  0.00    +0.000 A 
ATOM     26  C   UNL     1       0.284   9.764  21.145  0.00  0.00    +0.000 A 
ATOM     27  C   UNL     1       1.133   8.959  20.346  0.00  0.00    +0.000 A 
ENDBRANCH  17  18
ENDBRANCH  16  17
ENDBRANCH  15  16
ENDBRANCH  10  15
TORSDOF 4
ENDMDL
MODEL 2
REMARK VINA RESULT:      -8.3      0.772      1.662
REMARK  Name = 
REMARK  6 active torsions:
REMARK  status: ('A' for Active; 'I' for Inactive)
REMARK    1  A    between atoms: C_1  and  C_2
REMARK    2  A    between atoms: C_2  and  C_3
REMARK    3  A    between atoms: N_10  and  O_11
REMARK    4  A    between atoms: O_11  and  C_12
REMARK    5  A    between atoms: C_12  and  C_13
REMARK    6  A    between atoms: C_13  and  C_14
REMARK                            x       y       z     vdW  Elec       q    Type
REMARK                         _______ _______ _______ _____ _____    ______ ____
ROOT
ATOM      1  C   UNL     1       1.634   3.250  18.307  0.00  0.00    +0.000 C 
ATOM      2  C   UNL     1       2.361   3.778  19.557  0.00  0.00    +0.000 C 
ATOM      3  C   UNL     1       1.335   4.131  20.634  0.00  0.00    +0.000 C 
ATOM      4  N   UNL     1       3.136   2.646  20.106  0.00  0.00    +0.000 NA
ATOM      5  C   UNL     1       4.384   2.639  19.857  0.00  0.00    +0.000 C 
ATOM      6  N   UNL     1       5.164   1.616  20.330  0.00  0.00    +0.000 N 
ATOM      7  N   UNL     1       5.051   3.540  19.114  0.00  0.00    +0.000 NA
ATOM      8  C   UNL     1       4.440   4.668  18.825  0.00  0.00    +0.000 C 
ATOM      9  N   UNL     1       5.244   5.527  18.147  0.00  0.00    +0.000 N 
ATOM     10  N   UNL     1       3.156   4.974  19.230  0.00  0.00    +0.000 N 
ATOM     11  H   UNL     1       4.638   0.758  20.439  0.00  0.00    +0.000 HD
ATOM     12  H   UNL     1       6.009   1.526  19.792  0.00  0.00    +0.000 HD
ATOM     13  H   UNL     1       6.181   5.107  18.127  0.00  0.00    +0.000 HD
ATOM     14  H   UNL     1       5.319   6.436  18.580  0.00  0.00    +0.000 HD
ENDROOT
BRANCH  10  15
ATOM     15  O   UNL     1       2.399   5.995  18.534  0.00  0.00    +0.000 OA
BRANCH  15  16
ATOM     16  C   UNL     1       2.653   7.256  19.167  0.00  0.00    +0.000 C 
BRANCH  16  17
ATOM     17  C   UNL     1       1.821   8.472  18.715  0.00  0.00    +0.000 C 
BRANCH  17  18
ATOM     18  C   UNL     1       1.036   9.058  19.896  0.00  0.00    +0.000 A 
ATOM     19  C   UNL     1       1.140   8.534  21.201  0.00  0.00    +0.000 A 
ATOM     20  C   UNL     1       0.434   9.097  22.273  0.00  0.00    +0.000 A 
ATOM     21  C   UNL     1      -0.406  10.191  22.071  0.00  0.00    +0.000 A 
ATOM     22  C   UNL     1      -1.095  10.766  23.150  0.00  0.00    +0.000 A 
ATOM     23  C   UNL     1      -1.931  11.856  22.946  0.00  0.00    +0.000 A 
ATOM     24  C   UNL     1      -2.087  12.377  21.663  0.00  0.00    +0.000 A 
ATOM     25  C   UNL     1      -1.404  11.811  20.583  0.00  0.00    +0.000 A 
ATOM     26  C   UNL     1      -0.553  10.716  20.770  0.00  0.00    +0.000 A 
ATOM     27  C   UNL     1       0.167  10.138  19.695  0.00  0.00    +0.000 A 
ENDBRANCH  17  18
ENDBRANCH  16  17
ENDBRANCH  15  16
ENDBRANCH  10  15
TORSDOF 4
ENDMDL
MODEL 3
REMARK VINA RESULT:      -8.3      2.294      3.632
REMARK  Name = 
REMARK  6 active torsions:
REMARK  status: ('A' for Active; 'I' for Inactive)
REMARK    1  A    between atoms: C_1  and  C_2
REMARK    2  A    between atoms: C_2  and  C_3
REMARK    3  A    between atoms: N_10  and  O_11
REMARK    4  A    between atoms: O_11  and  C_12
REMARK    5  A    between atoms: C_12  and  C_13
REMARK    6  A    between atoms: C_13  and  C_14
REMARK                            x       y       z     vdW  Elec       q    Type
REMARK                         _______ _______ _______ _____ _____    ______ ____
ROOT
ATOM      1  C   UNL     1       7.816   5.582  18.238  0.00  0.00    +0.000 C 
ATOM      2  C   UNL     1       6.635   5.993  17.338  0.00  0.00    +0.000 C 
ATOM      3  C   UNL     1       6.386   7.494  17.478  0.00  0.00    +0.000 C 
ATOM      4  N   UNL     1       7.077   5.793  15.943  0.00  0.00    +0.000 NA
ATOM      5  C   UNL     1       6.655   4.745  15.358  0.00  0.00    +0.000 C 
ATOM      6  N   UNL     1       7.029   4.492  14.064  0.00  0.00    +0.000 N 
ATOM      7  N   UNL     1       5.880   3.789  15.902  0.00  0.00    +0.000 NA
ATOM      8  C   UNL     1       5.284   4.060  17.042  0.00  0.00    +0.000 C 
ATOM      9  N   UNL     1       4.466   3.054  17.444  0.00  0.00    +0.000 N 
ATOM     10  N   UNL     1       5.415   5.259  17.714  0.00  0.00    +0.000 N 
ATOM     11  H   UNL     1       7.930   4.898  13.845  0.00  0.00    +0.000 HD
ATOM     12  H   UNL     1       6.944   3.514  13.846  0.00  0.00    +0.000 HD
ATOM     13  H   UNL     1       4.440   2.367  16.681  0.00  0.00    +0.000 HD
ATOM     14  H   UNL     1       3.519   3.352  17.627  0.00  0.00    +0.000 HD
ENDROOT
BRANCH  10  15
ATOM     15  O   UNL     1       5.111   5.336  19.129  0.00  0.00    +0.000 OA
BRANCH  15  16
ATOM     16  C   UNL     1       3.713   5.615  19.276  0.00  0.00    +0.000 C 
BRANCH  16  17
ATOM     17  C   UNL     1       3.007   6.389  18.145  0.00  0.00    +0.000 C 
BRANCH  17  18
ATOM     18  C   UNL     1       2.277   7.617  18.704  0.00  0.00    +0.000 A 
ATOM     19  C   UNL     1       2.006   8.753  17.915  0.00  0.00    +0.000 A 
ATOM     20  C   UNL     1       1.316   9.856  18.436  0.00  0.00    +0.000 A 
ATOM     21  C   UNL     1       0.888   9.862  19.762  0.00  0.00    +0.000 A 
ATOM     22  C   UNL     1       0.179  10.959  20.275  0.00  0.00    +0.000 A 
ATOM     23  C   UNL     1      -0.247  10.962  21.597  0.00  0.00    +0.000 A 
ATOM     24  C   UNL     1       0.036   9.871  22.417  0.00  0.00    +0.000 A 
ATOM     25  C   UNL     1       0.742   8.774  21.914  0.00  0.00    +0.000 A 
ATOM     26  C   UNL     1       1.174   8.751  20.583  0.00  0.00    +0.000 A 
ATOM     27  C   UNL     1       1.871   7.641  20.045  0.00  0.00    +0.000 A 
ENDBRANCH  17  18
ENDBRANCH  16  17
ENDBRANCH  15  16
ENDBRANCH  10  15
TORSDOF 4
ENDMDL
MODEL 4
REMARK VINA RESULT:      -8.1      0.834      1.193
REMARK  Name = 
REMARK  6 active torsions:
REMARK  status: ('A' for Active; 'I' for Inactive)
REMARK    1  A    between atoms: C_1  and  C_2
REMARK    2  A    between atoms: C_2  and  C_3
REMARK    3  A    between atoms: N_10  and  O_11
REMARK    4  A    between atoms: O_11  and  C_12
REMARK    5  A    between atoms: C_12  and  C_13
REMARK    6  A    between atoms: C_13  and  C_14
REMARK                            x       y       z     vdW  Elec       q    Type
REMARK                         _______ _______ _______ _____ _____    ______ ____
ROOT
ATOM      1  C   UNL     1       1.580   3.502  18.003  0.00  0.00    +0.000 C 
ATOM      2  C   UNL     1       2.231   3.964  19.320  0.00  0.00    +0.000 C 
ATOM      3  C   UNL     1       1.146   4.211  20.368  0.00  0.00    +0.000 C 
ATOM      4  N   UNL     1       3.017   2.820  19.827  0.00  0.00    +0.000 NA
ATOM      5  C   UNL     1       4.274   2.868  19.639  0.00  0.00    +0.000 C 
ATOM      6  N   UNL     1       5.066   1.838  20.078  0.00  0.00    +0.000 N 
ATOM      7  N   UNL     1       4.945   3.837  18.992  0.00  0.00    +0.000 NA
ATOM      8  C   UNL     1       4.311   4.963  18.751  0.00  0.00    +0.000 C 
ATOM      9  N   UNL     1       5.116   5.891  18.173  0.00  0.00    +0.000 N 
ATOM     10  N   UNL     1       3.000   5.202  19.114  0.00  0.00    +0.000 N 
ATOM     11  H   UNL     1       4.564   0.959  20.103  0.00  0.00    +0.000 HD
ATOM     12  H   UNL     1       5.937   1.810  19.577  0.00  0.00    +0.000 HD
ATOM     13  H   UNL     1       6.066   5.502  18.169  0.00  0.00    +0.000 HD
ATOM     14  H   UNL     1       5.141   6.770  18.669  0.00  0.00    +0.000 HD
ENDROOT
BRANCH  10  15
ATOM     15  O   UNL     1       2.243   6.247  18.453  0.00  0.00    +0.000 OA
BRANCH  15  16
ATOM     16  C   UNL     1       2.452   7.474  19.162  0.00  0.00    +0.000 C 
BRANCH  16  17
ATOM     17  C   UNL     1       1.816   7.620  20.559  0.00  0.00    +0.000 C 
BRANCH  17  18
ATOM     18  C   UNL     1       0.936   8.875  20.624  0.00  0.00    +0.000 A 
ATOM     19  C   UNL     1       0.727   9.704  19.503  0.00  0.00    +0.000 A 
ATOM     20  C   UNL     1      -0.100  10.834  19.574  0.00  0.00    +0.000 A 
ATOM     21  C   UNL     1      -0.730  11.176  20.769  0.00  0.00    +0.000 A 
ATOM     22  C   UNL     1      -1.574  12.295  20.832  0.00  0.00    +0.000 A 
ATOM     23  C   UNL     1      -2.201  12.634  22.024  0.00  0.00    +0.000 A 
ATOM     24  C   UNL     1      -1.987  11.859  23.163  0.00  0.00    +0.000 A 
ATOM     25  C   UNL     1      -1.148  10.742  23.108  0.00  0.00    +0.000 A 
ATOM     26  C   UNL     1      -0.512  10.381  21.915  0.00  0.00    +0.000 A 
ATOM     27  C   UNL     1       0.325   9.242  21.830  0.00  0.00    +0.000 A 
ENDBRANCH  17  18
ENDBRANCH  16  17
ENDBRANCH  15  16
ENDBRANCH  10  15
TORSDOF 4
ENDMDL
MODEL 5
REMARK VINA RESULT:      -8.1      1.812      2.550
REMARK  Name = 
REMARK  6 active torsions:
REMARK  status: ('A' for Active; 'I' for Inactive)
REMARK    1  A    between atoms: C_1  and  C_2
REMARK    2  A    between atoms: C_2  and  C_3
REMARK    3  A    between atoms: N_10  and  O_11
REMARK    4  A    between atoms: O_11  and  C_12
REMARK    5  A    between atoms: C_12  and  C_13
REMARK    6  A    between atoms: C_13  and  C_14
REMARK                            x       y       z     vdW  Elec       q    Type
REMARK                         _______ _______ _______ _____ _____    ______ ____
ROOT
ATOM      1  C   UNL     1       1.441   3.801  18.055  0.00  0.00    +0.000 C 
ATOM      2  C   UNL     1       2.258   4.394  19.218  0.00  0.00    +0.000 C 
ATOM      3  C   UNL     1       1.313   4.820  20.341  0.00  0.00    +0.000 C 
ATOM      4  N   UNL     1       3.064   3.290  19.777  0.00  0.00    +0.000 NA
ATOM      5  C   UNL     1       4.291   3.256  19.442  0.00  0.00    +0.000 C 
ATOM      6  N   UNL     1       5.098   2.256  19.919  0.00  0.00    +0.000 N 
ATOM      7  N   UNL     1       4.909   4.106  18.602  0.00  0.00    +0.000 NA
ATOM      8  C   UNL     1       4.285   5.220  18.290  0.00  0.00    +0.000 C 
ATOM      9  N   UNL     1       5.043   6.031  17.508  0.00  0.00    +0.000 N 
ATOM     10  N   UNL     1       3.034   5.562  18.766  0.00  0.00    +0.000 N 
ATOM     11  H   UNL     1       4.576   1.411  20.115  0.00  0.00    +0.000 HD
ATOM     12  H   UNL     1       5.902   2.126  19.329  0.00  0.00    +0.000 HD
ATOM     13  H   UNL     1       5.974   5.601  17.447  0.00  0.00    +0.000 HD
ATOM     14  H   UNL     1       5.153   6.963  17.879  0.00  0.00    +0.000 HD
ENDROOT
BRANCH  10  15
ATOM     15  O   UNL     1       2.235   6.547  18.065  0.00  0.00    +0.000 OA
BRANCH  15  16
ATOM     16  C   UNL     1       2.338   7.793  18.766  0.00  0.00    +0.000 C 
BRANCH  16  17
ATOM     17  C   UNL     1       2.226   9.095  17.947  0.00  0.00    +0.000 C 
BRANCH  17  18
ATOM     18  C   UNL     1       0.934   9.844  18.297  0.00  0.00    +0.000 A 
ATOM     19  C   UNL     1       0.894  10.854  19.279  0.00  0.00    +0.000 A 
ATOM     20  C   UNL     1      -0.291  11.545  19.569  0.00  0.00    +0.000 A 
ATOM     21  C   UNL     1      -1.472  11.238  18.896  0.00  0.00    +0.000 A 
ATOM     22  C   UNL     1      -2.652  11.945  19.173  0.00  0.00    +0.000 A 
ATOM     23  C   UNL     1      -3.827  11.637  18.501  0.00  0.00    +0.000 A 
ATOM     24  C   UNL     1      -3.834  10.619  17.550  0.00  0.00    +0.000 A 
ATOM     25  C   UNL     1      -2.663   9.909  17.268  0.00  0.00    +0.000 A 
ATOM     26  C   UNL     1      -1.467  10.209  17.931  0.00  0.00    +0.000 A 
ATOM     27  C   UNL     1      -0.263   9.519  17.647  0.00  0.00    +0.000 A 
ENDBRANCH  17  18
ENDBRANCH  16  17
ENDBRANCH  15  16
ENDBRANCH  10  15
TORSDOF 4
ENDMDL
MODEL 6
REMARK VINA RESULT:      -8.1      3.892      5.500
REMARK  Name = 
REMARK  6 active torsions:
REMARK  status: ('A' for Active; 'I' for Inactive)
REMARK    1  A    between atoms: C_1  and  C_2
REMARK    2  A    between atoms: C_2  and  C_3
REMARK    3  A    between atoms: N_10  and  O_11
REMARK    4  A    between atoms: O_11  and  C_12
REMARK    5  A    between atoms: C_12  and  C_13
REMARK    6  A    between atoms: C_13  and  C_14
REMARK                            x       y       z     vdW  Elec       q    Type
REMARK                         _______ _______ _______ _____ _____    ______ ____
ROOT
ATOM      1  C   UNL     1       7.565   4.587  16.048  0.00  0.00    +0.000 C 
ATOM      2  C   UNL     1       6.683   5.015  17.236  0.00  0.00    +0.000 C 
ATOM      3  C   UNL     1       5.387   4.205  17.227  0.00  0.00    +0.000 C 
ATOM      4  N   UNL     1       7.396   4.606  18.462  0.00  0.00    +0.000 NA
ATOM      5  C   UNL     1       8.016   5.523  19.091  0.00  0.00    +0.000 C 
ATOM      6  N   UNL     1       8.704   5.214  20.236  0.00  0.00    +0.000 N 
ATOM      7  N   UNL     1       8.111   6.813  18.725  0.00  0.00    +0.000 NA
ATOM      8  C   UNL     1       7.297   7.244  17.787  0.00  0.00    +0.000 C 
ATOM      9  N   UNL     1       7.430   8.577  17.565  0.00  0.00    +0.000 N 
ATOM     10  N   UNL     1       6.361   6.450  17.154  0.00  0.00    +0.000 N 
ATOM     11  H   UNL     1       9.030   4.256  20.234  0.00  0.00    +0.000 HD
ATOM     12  H   UNL     1       9.415   5.900  20.428  0.00  0.00    +0.000 HD
ATOM     13  H   UNL     1       8.074   8.936  18.280  0.00  0.00    +0.000 HD
ATOM     14  H   UNL     1       6.563   9.088  17.642  0.00  0.00    +0.000 HD
ENDROOT
BRANCH  10  15
ATOM     15  O   UNL     1       5.823   6.846  15.868  0.00  0.00    +0.000 OA
BRANCH  15  16
ATOM     16  C   UNL     1       4.400   6.963  15.990  0.00  0.00    +0.000 C 
BRANCH  16  17
ATOM     17  C   UNL     1       3.838   7.689  17.229  0.00  0.00    +0.000 C 
BRANCH  17  18
ATOM     18  C   UNL     1       3.108   6.701  18.148  0.00  0.00    +0.000 A 
ATOM     19  C   UNL     1       2.832   6.996  19.499  0.00  0.00    +0.000 A 
ATOM     20  C   UNL     1       2.143   6.091  20.318  0.00  0.00    +0.000 A 
ATOM     21  C   UNL     1       1.720   4.863  19.817  0.00  0.00    +0.000 A 
ATOM     22  C   UNL     1       1.011   3.968  20.632  0.00  0.00    +0.000 A 
ATOM     23  C   UNL     1       0.590   2.743  20.130  0.00  0.00    +0.000 A 
ATOM     24  C   UNL     1       0.878   2.402  18.809  0.00  0.00    +0.000 A 
ATOM     25  C   UNL     1       1.583   3.288  17.989  0.00  0.00    +0.000 A 
ATOM     26  C   UNL     1       2.010   4.528  18.476  0.00  0.00    +0.000 A 
ATOM     27  C   UNL     1       2.707   5.451  17.658  0.00  0.00    +0.000 A 
ENDBRANCH  17  18
ENDBRANCH  16  17
ENDBRANCH  15  16
ENDBRANCH  10  15
TORSDOF 4
ENDMDL
MODEL 7
REMARK VINA RESULT:      -8.0      1.529      2.151
REMARK  Name = 
REMARK  6 active torsions:
REMARK  status: ('A' for Active; 'I' for Inactive)
REMARK    1  A    between atoms: C_1  and  C_2
REMARK    2  A    between atoms: C_2  and  C_3
REMARK    3  A    between atoms: N_10  and  O_11
REMARK    4  A    between atoms: O_11  and  C_12
REMARK    5  A    between atoms: C_12  and  C_13
REMARK    6  A    between atoms: C_13  and  C_14
REMARK                            x       y       z     vdW  Elec       q    Type
REMARK                         _______ _______ _______ _____ _____    ______ ____
ROOT
ATOM      1  C   UNL     1       3.783   3.518  17.762  0.00  0.00    +0.000 C 
ATOM      2  C   UNL     1       4.592   4.652  18.420  0.00  0.00    +0.000 C 
ATOM      3  C   UNL     1       4.143   4.824  19.871  0.00  0.00    +0.000 C 
ATOM      4  N   UNL     1       5.992   4.186  18.492  0.00  0.00    +0.000 NA
ATOM      5  C   UNL     1       6.790   4.648  17.615  0.00  0.00    +0.000 C 
ATOM      6  N   UNL     1       8.104   4.255  17.618  0.00  0.00    +0.000 N 
ATOM      7  N   UNL     1       6.471   5.487  16.613  0.00  0.00    +0.000 NA
ATOM      8  C   UNL     1       5.308   6.096  16.673  0.00  0.00    +0.000 C 
ATOM      9  N   UNL     1       5.137   6.977  15.654  0.00  0.00    +0.000 N 
ATOM     10  N   UNL     1       4.396   5.919  17.695  0.00  0.00    +0.000 N 
ATOM     11  H   UNL     1       8.220   3.329  18.008  0.00  0.00    +0.000 HD
ATOM     12  H   UNL     1       8.524   4.387  16.714  0.00  0.00    +0.000 HD
ATOM     13  H   UNL     1       6.028   7.020  15.144  0.00  0.00    +0.000 HD
ATOM     14  H   UNL     1       4.909   7.911  15.961  0.00  0.00    +0.000 HD
ENDROOT
BRANCH  10  15
ATOM     15  O   UNL     1       3.001   6.255  17.491  0.00  0.00    +0.000 OA
BRANCH  15  16
ATOM     16  C   UNL     1       2.662   7.333  18.373  0.00  0.00    +0.000 C 
BRANCH  16  17
ATOM     17  C   UNL     1       2.106   8.628  17.750  0.00  0.00    +0.000 C 
BRANCH  17  18
ATOM     18  C   UNL     1       1.280   9.411  18.780  0.00  0.00    +0.000 A 
ATOM     19  C   UNL     1       0.597  10.598  18.448  0.00  0.00    +0.000 A 
ATOM     20  C   UNL     1      -0.172  11.288  19.396  0.00  0.00    +0.000 A 
ATOM     21  C   UNL     1      -0.271  10.819  20.704  0.00  0.00    +0.000 A 
ATOM     22  C   UNL     1      -1.058  11.499  21.645  0.00  0.00    +0.000 A 
ATOM     23  C   UNL     1      -1.155  11.029  22.949  0.00  0.00    +0.000 A 
ATOM     24  C   UNL     1      -0.463   9.878  23.322  0.00  0.00    +0.000 A 
ATOM     25  C   UNL     1       0.323   9.195  22.391  0.00  0.00    +0.000 A 
ATOM     26  C   UNL     1       0.429   9.649  21.072  0.00  0.00    +0.000 A 
ATOM     27  C   UNL     1       1.203   8.962  20.104  0.00  0.00    +0.000 A 
ENDBRANCH  17  18
ENDBRANCH  16  17
ENDBRANCH  15  16
ENDBRANCH  10  15
TORSDOF 4
ENDMDL
MODEL 8
REMARK VINA RESULT:      -8.0      4.414      5.436
REMARK  Name = 
REMARK  6 active torsions:
REMARK  status: ('A' for Active; 'I' for Inactive)
REMARK    1  A    between atoms: C_1  and  C_2
REMARK    2  A    between atoms: C_2  and  C_3
REMARK    3  A    between atoms: N_10  and  O_11
REMARK    4  A    between atoms: O_11  and  C_12
REMARK    5  A    between atoms: C_12  and  C_13
REMARK    6  A    between atoms: C_13  and  C_14
REMARK                            x       y       z     vdW  Elec       q    Type
REMARK                         _______ _______ _______ _____ _____    ______ ____
ROOT
ATOM      1  C   UNL     1       7.460   4.397  16.136  0.00  0.00    +0.000 C 
ATOM      2  C   UNL     1       6.609   4.878  17.326  0.00  0.00    +0.000 C 
ATOM      3  C   UNL     1       5.310   4.073  17.383  0.00  0.00    +0.000 C 
ATOM      4  N   UNL     1       7.351   4.516  18.551  0.00  0.00    +0.000 NA
ATOM      5  C   UNL     1       7.989   5.454  19.126  0.00  0.00    +0.000 C 
ATOM      6  N   UNL     1       8.705   5.190  20.265  0.00  0.00    +0.000 N 
ATOM      7  N   UNL     1       8.079   6.728  18.704  0.00  0.00    +0.000 NA
ATOM      8  C   UNL     1       7.244   7.125  17.770  0.00  0.00    +0.000 C 
ATOM      9  N   UNL     1       7.376   8.447  17.491  0.00  0.00    +0.000 N 
ATOM     10  N   UNL     1       6.290   6.309  17.193  0.00  0.00    +0.000 N 
ATOM     11  H   UNL     1       9.027   4.231  20.294  0.00  0.00    +0.000 HD
ATOM     12  H   UNL     1       9.422   5.880  20.411  0.00  0.00    +0.000 HD
ATOM     13  H   UNL     1       8.039   8.831  18.175  0.00  0.00    +0.000 HD
ATOM     14  H   UNL     1       6.513   8.964  17.569  0.00  0.00    +0.000 HD
ENDROOT
BRANCH  10  15
ATOM     15  O   UNL     1       5.721   6.655  15.906  0.00  0.00    +0.000 OA
BRANCH  15  16
ATOM     16  C   UNL     1       4.356   7.045  16.105  0.00  0.00    +0.000 C 
BRANCH  16  17
ATOM     17  C   UNL     1       3.899   7.371  17.541  0.00  0.00    +0.000 C 
BRANCH  17  18
ATOM     18  C   UNL     1       3.081   6.211  18.124  0.00  0.00    +0.000 A 
ATOM     19  C   UNL     1       2.148   5.489  17.353  0.00  0.00    +0.000 A 
ATOM     20  C   UNL     1       1.426   4.417  17.895  0.00  0.00    +0.000 A 
ATOM     21  C   UNL     1       1.606   4.043  19.225  0.00  0.00    +0.000 A 
ATOM     22  C   UNL     1       0.898   2.955  19.760  0.00  0.00    +0.000 A 
ATOM     23  C   UNL     1       1.079   2.585  21.086  0.00  0.00    +0.000 A 
ATOM     24  C   UNL     1       1.966   3.300  21.889  0.00  0.00    +0.000 A 
ATOM     25  C   UNL     1       2.676   4.384  21.364  0.00  0.00    +0.000 A 
ATOM     26  C   UNL     1       2.511   4.769  20.029  0.00  0.00    +0.000 A 
ATOM     27  C   UNL     1       3.235   5.850  19.469  0.00  0.00    +0.000 A 
ENDBRANCH  17  18
ENDBRANCH  16  17
ENDBRANCH  15  16
ENDBRANCH  10  15
TORSDOF 4
ENDMDL
MODEL 9
REMARK VINA RESULT:      -8.0      6.449      7.788
REMARK  Name = 
REMARK  6 active torsions:
REMARK  status: ('A' for Active; 'I' for Inactive)
REMARK    1  A    between atoms: C_1  and  C_2
REMARK    2  A    between atoms: C_2  and  C_3
REMARK    3  A    between atoms: N_10  and  O_11
REMARK    4  A    between atoms: O_11  and  C_12
REMARK    5  A    between atoms: C_12  and  C_13
REMARK    6  A    between atoms: C_13  and  C_14
REMARK                            x       y       z     vdW  Elec       q    Type
REMARK                         _______ _______ _______ _____ _____    ______ ____
ROOT
ATOM      1  C   UNL     1       6.254   4.958  15.860  0.00  0.00    +0.000 C 
ATOM      2  C   UNL     1       5.639   5.767  17.017  0.00  0.00    +0.000 C 
ATOM      3  C   UNL     1       4.861   6.956  16.453  0.00  0.00    +0.000 C 
ATOM      4  N   UNL     1       4.627   4.897  17.651  0.00  0.00    +0.000 NA
ATOM      5  C   UNL     1       4.967   4.332  18.739  0.00  0.00    +0.000 C 
ATOM      6  N   UNL     1       4.080   3.506  19.380  0.00  0.00    +0.000 N 
ATOM      7  N   UNL     1       6.166   4.422  19.342  0.00  0.00    +0.000 NA
ATOM      8  C   UNL     1       6.985   5.366  18.935  0.00  0.00    +0.000 C 
ATOM      9  N   UNL     1       8.123   5.411  19.674  0.00  0.00    +0.000 N 
ATOM     10  N   UNL     1       6.690   6.259  17.924  0.00  0.00    +0.000 N 
ATOM     11  H   UNL     1       3.432   3.073  18.734  0.00  0.00    +0.000 HD
ATOM     12  H   UNL     1       4.557   2.865  19.991  0.00  0.00    +0.000 HD
ATOM     13  H   UNL     1       8.003   4.747  20.448  0.00  0.00    +0.000 HD
ATOM     14  H   UNL     1       8.313   6.320  20.068  0.00  0.00    +0.000 HD
ENDROOT
BRANCH  10  15
ATOM     15  O   UNL     1       7.758   6.961  17.239  0.00  0.00    +0.000 OA
BRANCH  15  16
ATOM     16  C   UNL     1       8.163   8.070  18.051  0.00  0.00    +0.000 C 
BRANCH  16  17
ATOM     17  C   UNL     1       7.885   9.492  17.523  0.00  0.00    +0.000 C 
BRANCH  17  18
ATOM     18  C   UNL     1       8.722  10.525  18.287  0.00  0.00    +0.000 A 
ATOM     19  C   UNL     1       9.362  10.220  19.505  0.00  0.00    +0.000 A 
ATOM     20  C   UNL     1      10.143  11.170  20.178  0.00  0.00    +0.000 A 
ATOM     21  C   UNL     1      10.297  12.454  19.661  0.00  0.00    +0.000 A 
ATOM     22  C   UNL     1      11.097  13.397  20.326  0.00  0.00    +0.000 A 
ATOM     23  C   UNL     1      11.248  14.676  19.808  0.00  0.00    +0.000 A 
ATOM     24  C   UNL     1      10.600  15.025  18.625  0.00  0.00    +0.000 A 
ATOM     25  C   UNL     1       9.802  14.093  17.957  0.00  0.00    +0.000 A 
ATOM     26  C   UNL     1       9.641  12.797  18.460  0.00  0.00    +0.000 A 
ATOM     27  C   UNL     1       8.855  11.828  17.789  0.00  0.00    +0.000 A 
ENDBRANCH  17  18
ENDBRANCH  16  17
ENDBRANCH  15  16
ENDBRANCH  10  15
TORSDOF 4
ENDMDL
