MODEL 1
REMARK VINA RESULT:      -9.2      0.000      0.000
REMARK  Name = 
REMARK  9 active torsions:
REMARK  status: ('A' for Active; 'I' for Inactive)
REMARK    1  A    between atoms: C_1  and  C_2
REMARK    2  A    between atoms: C_2  and  C_3
REMARK    3  A    between atoms: C_9  and  C_10
REMARK    4  A    between atoms: C_10  and  C_11
REMARK    5  A    between atoms: C_15  and  C_16
REMARK    6  A    between atoms: C_17  and  C_18
REMARK    7  A    between atoms: C_18  and  O_19
REMARK    8  A    between atoms: C_18  and  C_20
REMARK    9  A    between atoms: C_20  and  C_21
REMARK                            x       y       z     vdW  Elec       q    Type
REMARK                         _______ _______ _______ _____ _____    ______ ____
ROOT
ATOM      1  C   UNL     1       1.820   8.662  18.933  0.00  0.00    +0.000 A 
ATOM      2  C   UNL     1       1.362   8.401  20.231  0.00  0.00    +0.000 A 
ATOM      3  C   UNL     1       1.578   7.151  20.814  0.00  0.00    +0.000 A 
ATOM      4  C   UNL     1       2.217   6.149  20.091  0.00  0.00    +0.000 A 
ATOM      5  C   UNL     1       2.705   6.396  18.802  0.00  0.00    +0.000 A 
ATOM      6  C   UNL     1       2.539   7.671  18.251  0.00  0.00    +0.000 A 
ENDROOT
BRANCH   5   7
ATOM      7  C   UNL     1       3.328   5.291  18.070  0.00  0.00    +0.000 C 
ATOM      8  C   UNL     1       4.136   5.447  17.009  0.00  0.00    +0.000 C 
BRANCH   8   9
ATOM      9  C   UNL     1       5.006   4.386  16.391  0.00  0.00    +0.000 C 
BRANCH   9  10
ATOM     10  C   UNL     1       6.464   4.887  16.092  0.00  0.00    +0.000 C 
ATOM     11  C   UNL     1       6.891   4.363  14.716  0.00  0.00    +0.000 C 
ATOM     12  C   UNL     1       7.526   4.541  17.137  0.00  0.00    +0.000 C 
ATOM     13  C   UNL     1       7.558   5.745  18.054  0.00  0.00    +0.000 C 
ATOM     14  C   UNL     1       7.096   6.849  17.148  0.00  0.00    +0.000 C 
ATOM     15  O   UNL     1       7.177   8.040  17.381  0.00  0.00    +0.000 OA
ATOM     16  O   UNL     1       6.495   6.329  16.034  0.00  0.00    +0.000 OA
ENDBRANCH   9  10
BRANCH   9  17
ATOM     17  O   UNL     1       5.036   3.224  17.224  0.00  0.00    +0.000 OA
ATOM     18  H   UNL     1       5.749   2.643  16.908  0.00  0.00    +0.000 HD
ENDBRANCH   9  17
ENDBRANCH   8   9
ENDBRANCH   5   7
BRANCH   1  19
ATOM     19  C   UNL     1       1.468   9.939  18.207  0.00  0.00    +0.000 C 
BRANCH  19  26
ATOM     20  C   UNL     1      -4.575  11.520  18.429  0.00  0.00    +0.000 A 
ATOM     21  C   UNL     1      -4.461  12.440  19.475  0.00  0.00    +0.000 A 
ATOM     22  C   UNL     1      -3.219  12.678  20.074  0.00  0.00    +0.000 A 
ATOM     23  C   UNL     1      -2.064  12.007  19.642  0.00  0.00    +0.000 A 
ATOM     24  C   UNL     1      -0.802  12.252  20.198  0.00  0.00    +0.000 A 
ATOM     25  C   UNL     1       0.333  11.588  19.731  0.00  0.00    +0.000 A 
ATOM     26  C   UNL     1       0.234  10.647  18.699  0.00  0.00    +0.000 A 
ATOM     27  C   UNL     1      -1.030  10.385  18.148  0.00  0.00    +0.000 A 
ATOM     28  C   UNL     1      -2.175  11.067  18.590  0.00  0.00    +0.000 A 
ATOM     29  C   UNL     1      -3.426  10.843  17.996  0.00  0.00    +0.000 A 
BRANCH  20  31
ATOM     30  C   UNL     1      -7.075  11.488  18.677  0.00  0.00    +0.000 C 
ATOM     31  C   UNL     1      -5.893  11.276  17.742  0.00  0.00    +0.000 C 
ENDBRANCH  20  31
ENDBRANCH  19  26
ENDBRANCH   1  19
TORSDOF 7
ENDMDL
MODEL 2
REMARK VINA RESULT:      -9.1      0.864      1.663
REMARK  Name = 
REMARK  9 active torsions:
REMARK  status: ('A' for Active; 'I' for Inactive)
REMARK    1  A    between atoms: C_1  and  C_2
REMARK    2  A    between atoms: C_2  and  C_3
REMARK    3  A    between atoms: C_9  and  C_10
REMARK    4  A    between atoms: C_10  and  C_11
REMARK    5  A    between atoms: C_15  and  C_16
REMARK    6  A    between atoms: C_17  and  C_18
REMARK    7  A    between atoms: C_18  and  O_19
REMARK    8  A    between atoms: C_18  and  C_20
REMARK    9  A    between atoms: C_20  and  C_21
REMARK                            x       y       z     vdW  Elec       q    Type
REMARK                         _______ _______ _______ _____ _____    ______ ____
ROOT
ATOM      1  C   UNL     1       1.383   9.310  19.382  0.00  0.00    +0.000 A 
ATOM      2  C   UNL     1       1.077   8.711  20.610  0.00  0.00    +0.000 A 
ATOM      3  C   UNL     1       1.483   7.401  20.873  0.00  0.00    +0.000 A 
ATOM      4  C   UNL     1       2.161   6.676  19.899  0.00  0.00    +0.000 A 
ATOM      5  C   UNL     1       2.499   7.264  18.674  0.00  0.00    +0.000 A 
ATOM      6  C   UNL     1       2.143   8.597  18.445  0.00  0.00    +0.000 A 
ENDROOT
BRANCH   5   7
ATOM      7  C   UNL     1       3.172   6.439  17.669  0.00  0.00    +0.000 C 
ATOM      8  C   UNL     1       4.294   5.738  17.894  0.00  0.00    +0.000 C 
BRANCH   8   9
ATOM      9  C   UNL     1       4.876   4.678  16.997  0.00  0.00    +0.000 C 
BRANCH   9  10
ATOM     10  C   UNL     1       6.348   4.994  16.550  0.00  0.00    +0.000 C 
ATOM     11  C   UNL     1       6.625   4.270  15.228  0.00  0.00    +0.000 C 
ATOM     12  C   UNL     1       7.446   4.673  17.564  0.00  0.00    +0.000 C 
ATOM     13  C   UNL     1       7.653   5.969  18.318  0.00  0.00    +0.000 C 
ATOM     14  C   UNL     1       7.228   6.996  17.310  0.00  0.00    +0.000 C 
ATOM     15  O   UNL     1       7.433   8.193  17.386  0.00  0.00    +0.000 OA
ATOM     16  O   UNL     1       6.503   6.408  16.309  0.00  0.00    +0.000 OA
ENDBRANCH   9  10
BRANCH   9  17
ATOM     17  O   UNL     1       4.809   3.400  17.635  0.00  0.00    +0.000 OA
ATOM     18  H   UNL     1       3.987   3.361  18.151  0.00  0.00    +0.000 HD
ENDBRANCH   9  17
ENDBRANCH   8   9
ENDBRANCH   5   7
BRANCH   1  19
ATOM     19  C   UNL     1       0.827  10.661  18.995  0.00  0.00    +0.000 C 
BRANCH  19  26
ATOM     20  C   UNL     1      -5.191  12.336  19.190  0.00  0.00    +0.000 A 
ATOM     21  C   UNL     1      -5.625  11.497  18.159  0.00  0.00    +0.000 A 
ATOM     22  C   UNL     1      -4.712  10.674  17.488  0.00  0.00    +0.000 A 
ATOM     23  C   UNL     1      -3.351  10.668  17.832  0.00  0.00    +0.000 A 
ATOM     24  C   UNL     1      -2.423   9.829  17.202  0.00  0.00    +0.000 A 
ATOM     25  C   UNL     1      -1.080   9.826  17.582  0.00  0.00    +0.000 A 
ATOM     26  C   UNL     1      -0.625  10.675  18.597  0.00  0.00    +0.000 A 
ATOM     27  C   UNL     1      -1.547  11.531  19.222  0.00  0.00    +0.000 A 
ATOM     28  C   UNL     1      -2.906  11.523  18.867  0.00  0.00    +0.000 A 
ATOM     29  C   UNL     1      -3.833  12.337  19.534  0.00  0.00    +0.000 A 
BRANCH  20  31
ATOM     30  C   UNL     1      -7.553  13.183  19.338  0.00  0.00    +0.000 C 
ATOM     31  C   UNL     1      -6.161  13.200  19.954  0.00  0.00    +0.000 C 
ENDBRANCH  20  31
ENDBRANCH  19  26
ENDBRANCH   1  19
TORSDOF 7
ENDMDL
MODEL 3
REMARK VINA RESULT:      -9.1      2.399      4.014
REMARK  Name = 
REMARK  9 active torsions:
REMARK  status: ('A' for Active; 'I' for Inactive)
REMARK    1  A    between atoms: C_1  and  C_2
REMARK    2  A    between atoms: C_2  and  C_3
REMARK    3  A    between atoms: C_9  and  C_10
REMARK    4  A    between atoms: C_10  and  C_11
REMARK    5  A    between atoms: C_15  and  C_16
REMARK    6  A    between atoms: C_17  and  C_18
REMARK    7  A    between atoms: C_18  and  O_19
REMARK    8  A    between atoms: C_18  and  C_20
REMARK    9  A    between atoms: C_20  and  C_21
REMARK                            x       y       z     vdW  Elec       q    Type
REMARK                         _______ _______ _______ _____ _____    ______ ____
ROOT
ATOM      1  C   UNL     1       0.823   9.819  19.408  0.00  0.00    +0.000 A 
ATOM      2  C   UNL     1       0.393   9.624  20.727  0.00  0.00    +0.000 A 
ATOM      3  C   UNL     1       0.800   8.494  21.439  0.00  0.00    +0.000 A 
ATOM      4  C   UNL     1       1.606   7.541  20.827  0.00  0.00    +0.000 A 
ATOM      5  C   UNL     1       2.068   7.728  19.518  0.00  0.00    +0.000 A 
ATOM      6  C   UNL     1       1.705   8.893  18.835  0.00  0.00    +0.000 A 
ENDROOT
BRANCH   5   7
ATOM      7  C   UNL     1       2.875   6.670  18.907  0.00  0.00    +0.000 C 
ATOM      8  C   UNL     1       2.945   5.410  19.366  0.00  0.00    +0.000 C 
BRANCH   8   9
ATOM      9  C   UNL     1       3.533   4.230  18.641  0.00  0.00    +0.000 C 
BRANCH   9  10
ATOM     10  C   UNL     1       2.765   2.890  18.928  0.00  0.00    +0.000 C 
ATOM     11  C   UNL     1       3.363   1.785  18.050  0.00  0.00    +0.000 C 
ATOM     12  C   UNL     1       1.246   2.932  18.756  0.00  0.00    +0.000 C 
ATOM     13  C   UNL     1       0.719   3.248  20.140  0.00  0.00    +0.000 C 
ATOM     14  C   UNL     1       1.802   2.704  21.025  0.00  0.00    +0.000 C 
ATOM     15  O   UNL     1       1.717   2.527  22.226  0.00  0.00    +0.000 OA
ATOM     16  O   UNL     1       2.946   2.494  20.304  0.00  0.00    +0.000 OA
ENDBRANCH   9  10
BRANCH   9  17
ATOM     17  O   UNL     1       3.584   4.488  17.236  0.00  0.00    +0.000 OA
ATOM     18  H   UNL     1       3.797   5.428  17.108  0.00  0.00    +0.000 HD
ENDBRANCH   9  17
ENDBRANCH   8   9
ENDBRANCH   5   7
BRANCH   1  19
ATOM     19  C   UNL     1       0.280  10.938  18.551  0.00  0.00    +0.000 C 
BRANCH  19  26
ATOM     20  C   UNL     1      -5.698  12.477  19.532  0.00  0.00    +0.000 A 
ATOM     21  C   UNL     1      -6.240  11.648  18.546  0.00  0.00    +0.000 A 
ATOM     22  C   UNL     1      -5.404  10.857  17.749  0.00  0.00    +0.000 A 
ATOM     23  C   UNL     1      -4.010  10.875  17.920  0.00  0.00    +0.000 A 
ATOM     24  C   UNL     1      -3.152  10.068  17.162  0.00  0.00    +0.000 A 
ATOM     25  C   UNL     1      -1.772  10.088  17.371  0.00  0.00    +0.000 A 
ATOM     26  C   UNL     1      -1.210  10.928  18.338  0.00  0.00    +0.000 A 
ATOM     27  C   UNL     1      -2.063  11.752  19.091  0.00  0.00    +0.000 A 
ATOM     28  C   UNL     1      -3.455  11.720  18.909  0.00  0.00    +0.000 A 
ATOM     29  C   UNL     1      -4.307  12.502  19.703  0.00  0.00    +0.000 A 
BRANCH  20  31
ATOM     30  C   UNL     1      -7.332  12.454  21.441  0.00  0.00    +0.000 C 
ATOM     31  C   UNL     1      -6.580  13.306  20.428  0.00  0.00    +0.000 C 
ENDBRANCH  20  31
ENDBRANCH  19  26
ENDBRANCH   1  19
TORSDOF 7
ENDMDL
MODEL 4
REMARK VINA RESULT:      -9.1      3.652      9.735
REMARK  Name = 
REMARK  9 active torsions:
REMARK  status: ('A' for Active; 'I' for Inactive)
REMARK    1  A    between atoms: C_1  and  C_2
REMARK    2  A    between atoms: C_2  and  C_3
REMARK    3  A    between atoms: C_9  and  C_10
REMARK    4  A    between atoms: C_10  and  C_11
REMARK    5  A    between atoms: C_15  and  C_16
REMARK    6  A    between atoms: C_17  and  C_18
REMARK    7  A    between atoms: C_18  and  O_19
REMARK    8  A    between atoms: C_18  and  C_20
REMARK    9  A    between atoms: C_20  and  C_21
REMARK                            x       y       z     vdW  Elec       q    Type
REMARK                         _______ _______ _______ _____ _____    ______ ____
ROOT
ATOM      1  C   UNL     1       3.328   4.194  19.659  0.00  0.00    +0.000 A 
ATOM      2  C   UNL     1       2.163   3.438  19.841  0.00  0.00    +0.000 A 
ATOM      3  C   UNL     1       0.973   4.063  20.223  0.00  0.00    +0.000 A 
ATOM      4  C   UNL     1       0.953   5.433  20.459  0.00  0.00    +0.000 A 
ATOM      5  C   UNL     1       2.100   6.211  20.259  0.00  0.00    +0.000 A 
ATOM      6  C   UNL     1       3.270   5.585  19.816  0.00  0.00    +0.000 A 
ENDROOT
BRANCH   5   7
ATOM      7  C   UNL     1       2.034   7.641  20.568  0.00  0.00    +0.000 C 
ATOM      8  C   UNL     1       1.063   8.213  21.297  0.00  0.00    +0.000 C 
BRANCH   8   9
ATOM      9  C   UNL     1       1.081   9.607  21.865  0.00  0.00    +0.000 C 
BRANCH   9  10
ATOM     10  C   UNL     1       0.145  10.598  21.085  0.00  0.00    +0.000 C 
ATOM     11  C   UNL     1      -0.850  11.214  22.074  0.00  0.00    +0.000 C 
ATOM     12  C   UNL     1      -0.601  10.018  19.882  0.00  0.00    +0.000 C 
ATOM     13  C   UNL     1       0.298  10.318  18.701  0.00  0.00    +0.000 C 
ATOM     14  C   UNL     1       1.040  11.536  19.165  0.00  0.00    +0.000 C 
ATOM     15  O   UNL     1       1.711  12.269  18.464  0.00  0.00    +0.000 OA
ATOM     16  O   UNL     1       0.920  11.678  20.522  0.00  0.00    +0.000 OA
ENDBRANCH   9  10
BRANCH   9  17
ATOM     17  O   UNL     1       0.737   9.580  23.252  0.00  0.00    +0.000 OA
ATOM     18  H   UNL     1       0.742  10.494  23.584  0.00  0.00    +0.000 HD
ENDBRANCH   9  17
ENDBRANCH   8   9
ENDBRANCH   5   7
BRANCH   1  19
ATOM     19  C   UNL     1       4.667   3.542  19.405  0.00  0.00    +0.000 C 
BRANCH  19  26
ATOM     20  C   UNL     1       6.130   3.830  13.335  0.00  0.00    +0.000 A 
ATOM     21  C   UNL     1       7.150   4.778  13.461  0.00  0.00    +0.000 A 
ATOM     22  C   UNL     1       7.471   5.306  14.717  0.00  0.00    +0.000 A 
ATOM     23  C   UNL     1       6.787   4.899  15.873  0.00  0.00    +0.000 A 
ATOM     24  C   UNL     1       7.112   5.383  17.146  0.00  0.00    +0.000 A 
ATOM     25  C   UNL     1       6.430   4.941  18.281  0.00  0.00    +0.000 A 
ATOM     26  C   UNL     1       5.392   4.009  18.171  0.00  0.00    +0.000 A 
ATOM     27  C   UNL     1       5.050   3.531  16.896  0.00  0.00    +0.000 A 
ATOM     28  C   UNL     1       5.747   3.947  15.749  0.00  0.00    +0.000 A 
ATOM     29  C   UNL     1       5.440   3.423  14.485  0.00  0.00    +0.000 A 
BRANCH  20  31
ATOM     30  C   UNL     1       4.323   3.396  11.643  0.00  0.00    +0.000 C 
ATOM     31  C   UNL     1       5.792   3.217  12.001  0.00  0.00    +0.000 C 
ENDBRANCH  20  31
ENDBRANCH  19  26
ENDBRANCH   1  19
TORSDOF 7
ENDMDL
MODEL 5
REMARK VINA RESULT:      -8.9      1.430      2.816
REMARK  Name = 
REMARK  9 active torsions:
REMARK  status: ('A' for Active; 'I' for Inactive)
REMARK    1  A    between atoms: C_1  and  C_2
REMARK    2  A    between atoms: C_2  and  C_3
REMARK    3  A    between atoms: C_9  and  C_10
REMARK    4  A    between atoms: C_10  and  C_11
REMARK    5  A    between atoms: C_15  and  C_16
REMARK    6  A    between atoms: C_17  and  C_18
REMARK    7  A    between atoms: C_18  and  O_19
REMARK    8  A    between atoms: C_18  and  C_20
REMARK    9  A    between atoms: C_20  and  C_21
REMARK                            x       y       z     vdW  Elec       q    Type
REMARK                         _______ _______ _______ _____ _____    ______ ____
ROOT
ATOM      1  C   UNL     1       0.489  10.274  19.459  0.00  0.00    +0.000 A 
ATOM      2  C   UNL     1       0.203   9.822  20.754  0.00  0.00    +0.000 A 
ATOM      3  C   UNL     1       0.767   8.634  21.223  0.00  0.00    +0.000 A 
ATOM      4  C   UNL     1       1.586   7.878  20.391  0.00  0.00    +0.000 A 
ATOM      5  C   UNL     1       1.905   8.325  19.103  0.00  0.00    +0.000 A 
ATOM      6  C   UNL     1       1.385   9.547  18.665  0.00  0.00    +0.000 A 
ENDROOT
BRANCH   5   7
ATOM      7  C   UNL     1       2.734   7.466  18.254  0.00  0.00    +0.000 C 
ATOM      8  C   UNL     1       3.237   6.283  18.638  0.00  0.00    +0.000 C 
BRANCH   8   9
ATOM      9  C   UNL     1       3.861   5.248  17.740  0.00  0.00    +0.000 C 
BRANCH   9  10
ATOM     10  C   UNL     1       5.072   4.506  18.410  0.00  0.00    +0.000 C 
ATOM     11  C   UNL     1       4.531   3.345  19.251  0.00  0.00    +0.000 C 
ATOM     12  C   UNL     1       6.012   5.370  19.252  0.00  0.00    +0.000 C 
ATOM     13  C   UNL     1       7.108   5.781  18.290  0.00  0.00    +0.000 C 
ATOM     14  C   UNL     1       7.095   4.659  17.294  0.00  0.00    +0.000 C 
ATOM     15  O   UNL     1       7.954   4.439  16.461  0.00  0.00    +0.000 OA
ATOM     16  O   UNL     1       5.934   3.942  17.399  0.00  0.00    +0.000 OA
ENDBRANCH   9  10
BRANCH   9  17
ATOM     17  O   UNL     1       2.873   4.308  17.309  0.00  0.00    +0.000 OA
ATOM     18  H   UNL     1       2.928   3.526  17.883  0.00  0.00    +0.000 HD
ENDBRANCH   9  17
ENDBRANCH   8   9
ENDBRANCH   5   7
BRANCH   1  19
ATOM     19  C   UNL     1      -0.223  11.463  18.857  0.00  0.00    +0.000 C 
BRANCH  19  26
ATOM     20  C   UNL     1      -6.343  12.528  19.541  0.00  0.00    +0.000 A 
ATOM     21  C   UNL     1      -6.778  11.539  18.654  0.00  0.00    +0.000 A 
ATOM     22  C   UNL     1      -5.849  10.743  17.973  0.00  0.00    +0.000 A 
ATOM     23  C   UNL     1      -4.469  10.914  18.165  0.00  0.00    +0.000 A 
ATOM     24  C   UNL     1      -3.518  10.108  17.526  0.00  0.00    +0.000 A 
ATOM     25  C   UNL     1      -2.153  10.285  17.754  0.00  0.00    +0.000 A 
ATOM     26  C   UNL     1      -1.699  11.285  18.621  0.00  0.00    +0.000 A 
ATOM     27  C   UNL     1      -2.646  12.108  19.253  0.00  0.00    +0.000 A 
ATOM     28  C   UNL     1      -4.024  11.921  19.053  0.00  0.00    +0.000 A 
ATOM     29  C   UNL     1      -4.967  12.707  19.732  0.00  0.00    +0.000 A 
BRANCH  20  31
ATOM     30  C   UNL     1      -6.661  14.581  20.955  0.00  0.00    +0.000 C 
ATOM     31  C   UNL     1      -7.325  13.370  20.314  0.00  0.00    +0.000 C 
ENDBRANCH  20  31
ENDBRANCH  19  26
ENDBRANCH   1  19
TORSDOF 7
ENDMDL
MODEL 6
REMARK VINA RESULT:      -8.9      3.453      9.644
REMARK  Name = 
REMARK  9 active torsions:
REMARK  status: ('A' for Active; 'I' for Inactive)
REMARK    1  A    between atoms: C_1  and  C_2
REMARK    2  A    between atoms: C_2  and  C_3
REMARK    3  A    between atoms: C_9  and  C_10
REMARK    4  A    between atoms: C_10  and  C_11
REMARK    5  A    between atoms: C_15  and  C_16
REMARK    6  A    between atoms: C_17  and  C_18
REMARK    7  A    between atoms: C_18  and  O_19
REMARK    8  A    between atoms: C_18  and  C_20
REMARK    9  A    between atoms: C_20  and  C_21
REMARK                            x       y       z     vdW  Elec       q    Type
REMARK                         _______ _______ _______ _____ _____    ______ ____
ROOT
ATOM      1  C   UNL     1       3.586   3.907  19.625  0.00  0.00    +0.000 A 
ATOM      2  C   UNL     1       2.637   2.878  19.613  0.00  0.00    +0.000 A 
ATOM      3  C   UNL     1       1.307   3.145  19.946  0.00  0.00    +0.000 A 
ATOM      4  C   UNL     1       0.931   4.428  20.326  0.00  0.00    +0.000 A 
ATOM      5  C   UNL     1       1.859   5.477  20.321  0.00  0.00    +0.000 A 
ATOM      6  C   UNL     1       3.174   5.212  19.925  0.00  0.00    +0.000 A 
ENDROOT
BRANCH   5   7
ATOM      7  C   UNL     1       1.419   6.798  20.775  0.00  0.00    +0.000 C 
ATOM      8  C   UNL     1       1.690   7.947  20.136  0.00  0.00    +0.000 C 
BRANCH   8   9
ATOM      9  C   UNL     1       1.052   9.284  20.400  0.00  0.00    +0.000 C 
BRANCH   9  10
ATOM     10  C   UNL     1       0.764  10.096  19.086  0.00  0.00    +0.000 C 
ATOM     11  C   UNL     1       1.291   9.295  17.890  0.00  0.00    +0.000 C 
ATOM     12  C   UNL     1       1.308  11.525  19.041  0.00  0.00    +0.000 C 
ATOM     13  C   UNL     1       0.160  12.380  19.534  0.00  0.00    +0.000 C 
ATOM     14  C   UNL     1      -1.036  11.550  19.169  0.00  0.00    +0.000 C 
ATOM     15  O   UNL     1      -2.191  11.932  19.165  0.00  0.00    +0.000 OA
ATOM     16  O   UNL     1      -0.658  10.262  18.902  0.00  0.00    +0.000 OA
ENDBRANCH   9  10
BRANCH   9  17
ATOM     17  O   UNL     1      -0.149   9.117  21.158  0.00  0.00    +0.000 OA
ATOM     18  H   UNL     1      -0.210   8.186  21.428  0.00  0.00    +0.000 HD
ENDBRANCH   9  17
ENDBRANCH   8   9
ENDBRANCH   5   7
BRANCH   1  19
ATOM     19  C   UNL     1       5.059   3.633  19.429  0.00  0.00    +0.000 C 
BRANCH  19  26
ATOM     20  C   UNL     1       6.088   3.808  13.267  0.00  0.00    +0.000 A 
ATOM     21  C   UNL     1       6.994   4.873  13.286  0.00  0.00    +0.000 A 
ATOM     22  C   UNL     1       7.330   5.492  14.496  0.00  0.00    +0.000 A 
ATOM     23  C   UNL     1       6.774   5.062  15.711  0.00  0.00    +0.000 A 
ATOM     24  C   UNL     1       7.120   5.638  16.939  0.00  0.00    +0.000 A 
ATOM     25  C   UNL     1       6.569   5.173  18.134  0.00  0.00    +0.000 A 
ATOM     26  C   UNL     1       5.644   4.123  18.132  0.00  0.00    +0.000 A 
ATOM     27  C   UNL     1       5.280   3.551  16.902  0.00  0.00    +0.000 A 
ATOM     28  C   UNL     1       5.848   3.991  15.695  0.00  0.00    +0.000 A 
ATOM     29  C   UNL     1       5.525   3.378  14.476  0.00  0.00    +0.000 A 
BRANCH  20  31
ATOM     30  C   UNL     1       4.283   3.304  11.592  0.00  0.00    +0.000 C 
ATOM     31  C   UNL     1       5.741   3.101  11.983  0.00  0.00    +0.000 C 
ENDBRANCH  20  31
ENDBRANCH  19  26
ENDBRANCH   1  19
TORSDOF 7
ENDMDL
MODEL 7
REMARK VINA RESULT:      -8.7      3.007      9.740
REMARK  Name = 
REMARK  9 active torsions:
REMARK  status: ('A' for Active; 'I' for Inactive)
REMARK    1  A    between atoms: C_1  and  C_2
REMARK    2  A    between atoms: C_2  and  C_3
REMARK    3  A    between atoms: C_9  and  C_10
REMARK    4  A    between atoms: C_10  and  C_11
REMARK    5  A    between atoms: C_15  and  C_16
REMARK    6  A    between atoms: C_17  and  C_18
REMARK    7  A    between atoms: C_18  and  O_19
REMARK    8  A    between atoms: C_18  and  C_20
REMARK    9  A    between atoms: C_20  and  C_21
REMARK                            x       y       z     vdW  Elec       q    Type
REMARK                         _______ _______ _______ _____ _____    ______ ____
ROOT
ATOM      1  C   UNL     1       3.894   4.922  19.292  0.00  0.00    +0.000 A 
ATOM      2  C   UNL     1       3.032   4.517  20.319  0.00  0.00    +0.000 A 
ATOM      3  C   UNL     1       1.941   5.312  20.676  0.00  0.00    +0.000 A 
ATOM      4  C   UNL     1       1.730   6.528  20.035  0.00  0.00    +0.000 A 
ATOM      5  C   UNL     1       2.565   6.940  18.988  0.00  0.00    +0.000 A 
ATOM      6  C   UNL     1       3.617   6.106  18.597  0.00  0.00    +0.000 A 
ENDROOT
BRANCH   5   7
ATOM      7  C   UNL     1       2.323   8.250  18.380  0.00  0.00    +0.000 C 
ATOM      8  C   UNL     1       1.124   8.853  18.334  0.00  0.00    +0.000 C 
BRANCH   8   9
ATOM      9  C   UNL     1       0.865  10.290  17.969  0.00  0.00    +0.000 C 
BRANCH   9  10
ATOM     10  C   UNL     1      -0.162  10.990  18.930  0.00  0.00    +0.000 C 
ATOM     11  C   UNL     1      -1.311  11.559  18.091  0.00  0.00    +0.000 C 
ATOM     12  C   UNL     1       0.404  12.075  19.849  0.00  0.00    +0.000 C 
ATOM     13  C   UNL     1       0.739  11.345  21.132  0.00  0.00    +0.000 C 
ATOM     14  C   UNL     1      -0.220  10.191  21.103  0.00  0.00    +0.000 C 
ATOM     15  O   UNL     1      -0.475   9.457  22.038  0.00  0.00    +0.000 OA
ATOM     16  O   UNL     1      -0.729  10.026  19.843  0.00  0.00    +0.000 OA
ENDBRANCH   9  10
BRANCH   9  17
ATOM     17  O   UNL     1       2.094  11.020  17.931  0.00  0.00    +0.000 OA
ATOM     18  H   UNL     1       1.920  11.885  17.524  0.00  0.00    +0.000 HD
ENDBRANCH   9  17
ENDBRANCH   8   9
ENDBRANCH   5   7
BRANCH   1  19
ATOM     19  C   UNL     1       5.171   4.176  18.984  0.00  0.00    +0.000 C 
BRANCH  19  26
ATOM     20  C   UNL     1       5.915   3.579  12.807  0.00  0.00    +0.000 A 
ATOM     21  C   UNL     1       6.979   4.479  12.687  0.00  0.00    +0.000 A 
ATOM     22  C   UNL     1       7.468   5.149  13.814  0.00  0.00    +0.000 A 
ATOM     23  C   UNL     1       6.910   4.936  15.084  0.00  0.00    +0.000 A 
ATOM     24  C   UNL     1       7.402   5.565  16.235  0.00  0.00    +0.000 A 
ATOM     25  C   UNL     1       6.843   5.315  17.489  0.00  0.00    +0.000 A 
ATOM     26  C   UNL     1       5.763   4.435  17.625  0.00  0.00    +0.000 A 
ATOM     27  C   UNL     1       5.254   3.813  16.473  0.00  0.00    +0.000 A 
ATOM     28  C   UNL     1       5.826   4.035  15.210  0.00  0.00    +0.000 A 
ATOM     29  C   UNL     1       5.350   3.367  14.072  0.00  0.00    +0.000 A 
BRANCH  20  31
ATOM     30  C   UNL     1       4.007   3.276  11.200  0.00  0.00    +0.000 C 
ATOM     31  C   UNL     1       5.398   2.816  11.616  0.00  0.00    +0.000 C 
ENDBRANCH  20  31
ENDBRANCH  19  26
ENDBRANCH   1  19
TORSDOF 7
ENDMDL
MODEL 8
REMARK VINA RESULT:      -8.7      3.091      9.885
REMARK  Name = 
REMARK  9 active torsions:
REMARK  status: ('A' for Active; 'I' for Inactive)
REMARK    1  A    between atoms: C_1  and  C_2
REMARK    2  A    between atoms: C_2  and  C_3
REMARK    3  A    between atoms: C_9  and  C_10
REMARK    4  A    between atoms: C_10  and  C_11
REMARK    5  A    between atoms: C_15  and  C_16
REMARK    6  A    between atoms: C_17  and  C_18
REMARK    7  A    between atoms: C_18  and  O_19
REMARK    8  A    between atoms: C_18  and  C_20
REMARK    9  A    between atoms: C_20  and  C_21
REMARK                            x       y       z     vdW  Elec       q    Type
REMARK                         _______ _______ _______ _____ _____    ______ ____
ROOT
ATOM      1  C   UNL     1       4.227   5.064  18.861  0.00  0.00    +0.000 A 
ATOM      2  C   UNL     1       3.391   4.570  19.871  0.00  0.00    +0.000 A 
ATOM      3  C   UNL     1       2.224   5.256  20.214  0.00  0.00    +0.000 A 
ATOM      4  C   UNL     1       1.909   6.451  19.577  0.00  0.00    +0.000 A 
ATOM      5  C   UNL     1       2.717   6.949  18.548  0.00  0.00    +0.000 A 
ATOM      6  C   UNL     1       3.850   6.222  18.169  0.00  0.00    +0.000 A 
ENDROOT
BRANCH   5   7
ATOM      7  C   UNL     1       2.362   8.236  17.944  0.00  0.00    +0.000 C 
ATOM      8  C   UNL     1       1.472   9.095  18.465  0.00  0.00    +0.000 C 
BRANCH   8   9
ATOM      9  C   UNL     1       1.265  10.526  18.043  0.00  0.00    +0.000 C 
BRANCH   9  10
ATOM     10  C   UNL     1       0.638  11.414  19.177  0.00  0.00    +0.000 C 
ATOM     11  C   UNL     1       0.586  10.593  20.470  0.00  0.00    +0.000 C 
ATOM     12  C   UNL     1      -0.737  12.015  18.881  0.00  0.00    +0.000 C 
ATOM     13  C   UNL     1      -0.434  13.384  18.310  0.00  0.00    +0.000 C 
ATOM     14  C   UNL     1       0.896  13.702  18.929  0.00  0.00    +0.000 C 
ATOM     15  O   UNL     1       1.431  14.794  18.940  0.00  0.00    +0.000 OA
ATOM     16  O   UNL     1       1.471  12.565  19.429  0.00  0.00    +0.000 OA
ENDBRANCH   9  10
BRANCH   9  17
ATOM     17  O   UNL     1       2.498  11.090  17.589  0.00  0.00    +0.000 OA
ATOM     18  H   UNL     1       2.814  11.712  18.265  0.00  0.00    +0.000 HD
ENDBRANCH   9  17
ENDBRANCH   8   9
ENDBRANCH   5   7
BRANCH   1  19
ATOM     19  C   UNL     1       5.574   4.444  18.570  0.00  0.00    +0.000 C 
BRANCH  19  26
ATOM     20  C   UNL     1       5.652   3.412  12.406  0.00  0.00    +0.000 A 
ATOM     21  C   UNL     1       6.774   4.197  12.127  0.00  0.00    +0.000 A 
ATOM     22  C   UNL     1       7.429   4.885  13.155  0.00  0.00    +0.000 A 
ATOM     23  C   UNL     1       6.982   4.802  14.483  0.00  0.00    +0.000 A 
ATOM     24  C   UNL     1       7.638   5.449  15.538  0.00  0.00    +0.000 A 
ATOM     25  C   UNL     1       7.185   5.328  16.852  0.00  0.00    +0.000 A 
ATOM     26  C   UNL     1       6.050   4.565  17.147  0.00  0.00    +0.000 A 
ATOM     27  C   UNL     1       5.377   3.926  16.093  0.00  0.00    +0.000 A 
ATOM     28  C   UNL     1       5.840   4.017  14.770  0.00  0.00    +0.000 A 
ATOM     29  C   UNL     1       5.198   3.329  13.730  0.00  0.00    +0.000 A 
BRANCH  20  31
ATOM     30  C   UNL     1       3.831   3.428  10.674  0.00  0.00    +0.000 C 
ATOM     31  C   UNL     1       4.955   2.631  11.323  0.00  0.00    +0.000 C 
ENDBRANCH  20  31
ENDBRANCH  19  26
ENDBRANCH   1  19
TORSDOF 7
ENDMDL
MODEL 9
REMARK VINA RESULT:      -8.7      3.045      9.778
REMARK  Name = 
REMARK  9 active torsions:
REMARK  status: ('A' for Active; 'I' for Inactive)
REMARK    1  A    between atoms: C_1  and  C_2
REMARK    2  A    between atoms: C_2  and  C_3
REMARK    3  A    between atoms: C_9  and  C_10
REMARK    4  A    between atoms: C_10  and  C_11
REMARK    5  A    between atoms: C_15  and  C_16
REMARK    6  A    between atoms: C_17  and  C_18
REMARK    7  A    between atoms: C_18  and  O_19
REMARK    8  A    between atoms: C_18  and  C_20
REMARK    9  A    between atoms: C_20  and  C_21
REMARK                            x       y       z     vdW  Elec       q    Type
REMARK                         _______ _______ _______ _____ _____    ______ ____
ROOT
ATOM      1  C   UNL     1       3.846   4.732  19.466  0.00  0.00    +0.000 A 
ATOM      2  C   UNL     1       2.916   4.198  20.367  0.00  0.00    +0.000 A 
ATOM      3  C   UNL     1       1.807   4.951  20.761  0.00  0.00    +0.000 A 
ATOM      4  C   UNL     1       1.644   6.247  20.285  0.00  0.00    +0.000 A 
ATOM      5  C   UNL     1       2.548   6.791  19.364  0.00  0.00    +0.000 A 
ATOM      6  C   UNL     1       3.620   6.006  18.928  0.00  0.00    +0.000 A 
ENDROOT
BRANCH   5   7
ATOM      7  C   UNL     1       2.353   8.176  18.932  0.00  0.00    +0.000 C 
ATOM      8  C   UNL     1       1.381   8.579  18.098  0.00  0.00    +0.000 C 
BRANCH   8   9
ATOM      9  C   UNL     1       0.970  10.003  17.833  0.00  0.00    +0.000 C 
BRANCH   9  10
ATOM     10  C   UNL     1      -0.063  10.547  18.883  0.00  0.00    +0.000 C 
ATOM     11  C   UNL     1       0.080   9.739  20.177  0.00  0.00    +0.000 C 
ATOM     12  C   UNL     1      -1.527  10.573  18.439  0.00  0.00    +0.000 C 
ATOM     13  C   UNL     1      -1.727  11.966  17.880  0.00  0.00    +0.000 C 
ATOM     14  C   UNL     1      -0.695  12.761  18.626  0.00  0.00    +0.000 C 
ATOM     15  O   UNL     1      -0.632  13.974  18.674  0.00  0.00    +0.000 OA
ATOM     16  O   UNL     1       0.225  11.926  19.200  0.00  0.00    +0.000 OA
ENDBRANCH   9  10
BRANCH   9  17
ATOM     17  O   UNL     1       2.123  10.848  17.779  0.00  0.00    +0.000 OA
ATOM     18  H   UNL     1       1.912  11.611  17.216  0.00  0.00    +0.000 HD
ENDBRANCH   9  17
ENDBRANCH   8   9
ENDBRANCH   5   7
BRANCH   1  19
ATOM     19  C   UNL     1       5.137   4.018  19.140  0.00  0.00    +0.000 C 
BRANCH  19  26
ATOM     20  C   UNL     1       5.993   3.679  12.958  0.00  0.00    +0.000 A 
ATOM     21  C   UNL     1       7.028   4.617  12.888  0.00  0.00    +0.000 A 
ATOM     22  C   UNL     1       7.477   5.260  14.047  0.00  0.00    +0.000 A 
ATOM     23  C   UNL     1       6.907   4.981  15.299  0.00  0.00    +0.000 A 
ATOM     24  C   UNL     1       7.361   5.583  16.480  0.00  0.00    +0.000 A 
ATOM     25  C   UNL     1       6.792   5.267  17.714  0.00  0.00    +0.000 A 
ATOM     26  C   UNL     1       5.740   4.348  17.800  0.00  0.00    +0.000 A 
ATOM     27  C   UNL     1       5.269   3.753  16.618  0.00  0.00    +0.000 A 
ATOM     28  C   UNL     1       5.853   4.041  15.374  0.00  0.00    +0.000 A 
ATOM     29  C   UNL     1       5.417   3.400  14.205  0.00  0.00    +0.000 A 
BRANCH  20  31
ATOM     30  C   UNL     1       4.080   3.289  11.375  0.00  0.00    +0.000 C 
ATOM     31  C   UNL     1       5.520   2.945  11.731  0.00  0.00    +0.000 C 
ENDBRANCH  20  31
ENDBRANCH  19  26
ENDBRANCH   1  19
TORSDOF 7
ENDMDL
