MODEL 1
REMARK VINA RESULT:      -7.5      0.000      0.000
REMARK  Name = 
REMARK  5 active torsions:
REMARK  status: ('A' for Active; 'I' for Inactive)
REMARK    1  A    between atoms: N_4  and  N_5
REMARK    2  A    between atoms: C_6  and  C_7
REMARK    3  A    between atoms: C_10  and  O_11
REMARK    4  A    between atoms: O_11  and  C_12
REMARK    5  A    between atoms: C_12  and  C_13
REMARK                            x       y       z     vdW  Elec       q    Type
REMARK                         _______ _______ _______ _____ _____    ______ ____
ROOT
ATOM      1  C   UNL     1       6.318   5.184  17.184  0.00  0.00    +0.000 A 
ATOM      2  C   UNL     1       7.210   4.867  18.208  0.00  0.00    +0.000 A 
ATOM      3  C   UNL     1       7.954   5.873  18.817  0.00  0.00    +0.000 A 
ATOM      4  C   UNL     1       7.888   7.182  18.340  0.00  0.00    +0.000 A 
ATOM      5  C   UNL     1       6.997   7.501  17.312  0.00  0.00    +0.000 A 
ATOM      6  C   UNL     1       6.213   6.502  16.727  0.00  0.00    +0.000 A 
ENDROOT
BRANCH   1   8
ATOM      7  N   UNL     1       4.432   3.540  16.914  0.00  0.00    +0.000 NA
ATOM      8  C   UNL     1       5.523   4.132  16.515  0.00  0.00    +0.000 C 
BRANCH   7  12
ATOM      9  N   UNL     1       4.689   2.270  19.246  0.00  0.00    +0.000 N 
ATOM     10  C   UNL     1       3.899   3.370  19.248  0.00  0.00    +0.000 C 
ATOM     11  O   UNL     1       3.323   3.768  20.251  0.00  0.00    +0.000 OA
ATOM     12  N   UNL     1       3.810   4.006  18.038  0.00  0.00    +0.000 N 
ATOM     13  H   UNL     1       4.627   1.658  20.043  0.00  0.00    +0.000 HD
ATOM     14  H   UNL     1       4.852   1.881  18.326  0.00  0.00    +0.000 HD
ATOM     15  H   UNL     1       3.173   4.792  17.997  0.00  0.00    +0.000 HD
ENDBRANCH   7  12
ENDBRANCH   1   8
BRANCH   4  16
ATOM     16  O   UNL     1       8.675   8.205  18.799  0.00  0.00    +0.000 OA
BRANCH  16  17
ATOM     17  C   UNL     1       8.420   9.465  18.172  0.00  0.00    +0.000 C 
BRANCH  17  18
ATOM     18  C   UNL     1       9.356  10.503  18.721  0.00  0.00    +0.000 A 
ATOM     19  C   UNL     1       9.416  10.755  20.097  0.00  0.00    +0.000 A 
ATOM     20  C   UNL     1      10.310  11.701  20.597  0.00  0.00    +0.000 A 
ATOM     21  C   UNL     1      11.141  12.406  19.727  0.00  0.00    +0.000 A 
ATOM     22  C   UNL     1      11.079  12.170  18.356  0.00  0.00    +0.000 A 
ATOM     23  C   UNL     1      10.186  11.228  17.852  0.00  0.00    +0.000 A 
ENDBRANCH  17  18
ENDBRANCH  16  17
ENDBRANCH   4  16
TORSDOF 5
ENDMDL
MODEL 2
REMARK VINA RESULT:      -7.5      0.167      1.094
REMARK  Name = 
REMARK  5 active torsions:
REMARK  status: ('A' for Active; 'I' for Inactive)
REMARK    1  A    between atoms: N_4  and  N_5
REMARK    2  A    between atoms: C_6  and  C_7
REMARK    3  A    between atoms: C_10  and  O_11
REMARK    4  A    between atoms: O_11  and  C_12
REMARK    5  A    between atoms: C_12  and  C_13
REMARK                            x       y       z     vdW  Elec       q    Type
REMARK                         _______ _______ _______ _____ _____    ______ ____
ROOT
ATOM      1  C   UNL     1       6.248   5.168  17.179  0.00  0.00    +0.000 A 
ATOM      2  C   UNL     1       7.123   4.843  18.214  0.00  0.00    +0.000 A 
ATOM      3  C   UNL     1       7.889   5.837  18.814  0.00  0.00    +0.000 A 
ATOM      4  C   UNL     1       7.861   7.141  18.317  0.00  0.00    +0.000 A 
ATOM      5  C   UNL     1       6.987   7.468  17.277  0.00  0.00    +0.000 A 
ATOM      6  C   UNL     1       6.181   6.481  16.701  0.00  0.00    +0.000 A 
ENDROOT
BRANCH   1   8
ATOM      7  N   UNL     1       4.371   3.507  16.957  0.00  0.00    +0.000 NA
ATOM      8  C   UNL     1       5.430   4.127  16.519  0.00  0.00    +0.000 C 
BRANCH   7  12
ATOM      9  N   UNL     1       4.322   1.916  19.098  0.00  0.00    +0.000 N 
ATOM     10  C   UNL     1       3.741   3.131  19.243  0.00  0.00    +0.000 C 
ATOM     11  O   UNL     1       3.214   3.492  20.287  0.00  0.00    +0.000 OA
ATOM     12  N   UNL     1       3.806   3.926  18.129  0.00  0.00    +0.000 N 
ATOM     13  H   UNL     1       4.126   1.226  19.806  0.00  0.00    +0.000 HD
ATOM     14  H   UNL     1       4.442   1.628  18.136  0.00  0.00    +0.000 HD
ATOM     15  H   UNL     1       3.321   4.813  18.190  0.00  0.00    +0.000 HD
ENDBRANCH   7  12
ENDBRANCH   1   8
BRANCH   4  16
ATOM     16  O   UNL     1       8.672   8.150  18.767  0.00  0.00    +0.000 OA
BRANCH  16  17
ATOM     17  C   UNL     1       8.372   9.432  18.209  0.00  0.00    +0.000 C 
BRANCH  17  18
ATOM     18  C   UNL     1       9.329  10.456  18.752  0.00  0.00    +0.000 A 
ATOM     19  C   UNL     1      10.179  11.165  17.895  0.00  0.00    +0.000 A 
ATOM     20  C   UNL     1      11.041  12.132  18.409  0.00  0.00    +0.000 A 
ATOM     21  C   UNL     1      11.067  12.390  19.779  0.00  0.00    +0.000 A 
ATOM     22  C   UNL     1      10.233  11.681  20.640  0.00  0.00    +0.000 A 
ATOM     23  C   UNL     1       9.371  10.713  20.131  0.00  0.00    +0.000 A 
ENDBRANCH  17  18
ENDBRANCH  16  17
ENDBRANCH   4  16
TORSDOF 5
ENDMDL
MODEL 3
REMARK VINA RESULT:      -7.4      4.998      6.598
REMARK  Name = 
REMARK  5 active torsions:
REMARK  status: ('A' for Active; 'I' for Inactive)
REMARK    1  A    between atoms: N_4  and  N_5
REMARK    2  A    between atoms: C_6  and  C_7
REMARK    3  A    between atoms: C_10  and  O_11
REMARK    4  A    between atoms: O_11  and  C_12
REMARK    5  A    between atoms: C_12  and  C_13
REMARK                            x       y       z     vdW  Elec       q    Type
REMARK                         _______ _______ _______ _____ _____    ______ ____
ROOT
ATOM      1  C   UNL     1       3.299   5.438  18.895  0.00  0.00    +0.000 A 
ATOM      2  C   UNL     1       3.091   4.600  17.800  0.00  0.00    +0.000 A 
ATOM      3  C   UNL     1       4.178   4.117  17.079  0.00  0.00    +0.000 A 
ATOM      4  C   UNL     1       5.470   4.548  17.381  0.00  0.00    +0.000 A 
ATOM      5  C   UNL     1       5.681   5.391  18.476  0.00  0.00    +0.000 A 
ATOM      6  C   UNL     1       4.595   5.843  19.233  0.00  0.00    +0.000 A 
ENDROOT
BRANCH   1   8
ATOM      7  N   UNL     1       1.674   5.566  20.811  0.00  0.00    +0.000 NA
ATOM      8  C   UNL     1       2.160   5.972  19.672  0.00  0.00    +0.000 C 
BRANCH   7  12
ATOM      9  N   UNL     1       0.798   3.046  20.849  0.00  0.00    +0.000 N 
ATOM     10  C   UNL     1       1.920   3.300  21.565  0.00  0.00    +0.000 C 
ATOM     11  O   UNL     1       2.506   2.437  22.203  0.00  0.00    +0.000 OA
ATOM     12  N   UNL     1       2.349   4.600  21.503  0.00  0.00    +0.000 N 
ATOM     13  H   UNL     1       0.332   2.171  21.022  0.00  0.00    +0.000 HD
ATOM     14  H   UNL     1       0.255   3.870  20.628  0.00  0.00    +0.000 HD
ATOM     15  H   UNL     1       3.147   4.830  22.083  0.00  0.00    +0.000 HD
ENDBRANCH   7  12
ENDBRANCH   1   8
BRANCH   4  16
ATOM     16  O   UNL     1       6.579   4.220  16.647  0.00  0.00    +0.000 OA
BRANCH  16  17
ATOM     17  C   UNL     1       6.992   5.235  15.728  0.00  0.00    +0.000 C 
BRANCH  17  18
ATOM     18  C   UNL     1       6.861   4.728  14.320  0.00  0.00    +0.000 A 
ATOM     19  C   UNL     1       5.871   3.797  13.986  0.00  0.00    +0.000 A 
ATOM     20  C   UNL     1       5.741   3.355  12.670  0.00  0.00    +0.000 A 
ATOM     21  C   UNL     1       6.605   3.833  11.684  0.00  0.00    +0.000 A 
ATOM     22  C   UNL     1       7.600   4.750  12.011  0.00  0.00    +0.000 A 
ATOM     23  C   UNL     1       7.734   5.192  13.324  0.00  0.00    +0.000 A 
ENDBRANCH  17  18
ENDBRANCH  16  17
ENDBRANCH   4  16
TORSDOF 5
ENDMDL
MODEL 4
REMARK VINA RESULT:      -7.4      5.040      6.726
REMARK  Name = 
REMARK  5 active torsions:
REMARK  status: ('A' for Active; 'I' for Inactive)
REMARK    1  A    between atoms: N_4  and  N_5
REMARK    2  A    between atoms: C_6  and  C_7
REMARK    3  A    between atoms: C_10  and  O_11
REMARK    4  A    between atoms: O_11  and  C_12
REMARK    5  A    between atoms: C_12  and  C_13
REMARK                            x       y       z     vdW  Elec       q    Type
REMARK                         _______ _______ _______ _____ _____    ______ ____
ROOT
ATOM      1  C   UNL     1       3.252   5.307  18.734  0.00  0.00    +0.000 A 
ATOM      2  C   UNL     1       3.092   4.212  17.886  0.00  0.00    +0.000 A 
ATOM      3  C   UNL     1       4.175   3.734  17.157  0.00  0.00    +0.000 A 
ATOM      4  C   UNL     1       5.397   4.407  17.190  0.00  0.00    +0.000 A 
ATOM      5  C   UNL     1       5.559   5.507  18.036  0.00  0.00    +0.000 A 
ATOM      6  C   UNL     1       4.486   5.964  18.807  0.00  0.00    +0.000 A 
ENDROOT
BRANCH   1   8
ATOM      7  N   UNL     1       1.652   5.455  20.670  0.00  0.00    +0.000 NA
ATOM      8  C   UNL     1       2.114   5.840  19.514  0.00  0.00    +0.000 C 
BRANCH   7  12
ATOM      9  N   UNL     1       0.763   2.949  20.888  0.00  0.00    +0.000 N 
ATOM     10  C   UNL     1       1.922   3.230  21.531  0.00  0.00    +0.000 C 
ATOM     11  O   UNL     1       2.535   2.397  22.184  0.00  0.00    +0.000 OA
ATOM     12  N   UNL     1       2.356   4.521  21.377  0.00  0.00    +0.000 N 
ATOM     13  H   UNL     1       0.301   2.089  21.132  0.00  0.00    +0.000 HD
ATOM     14  H   UNL     1       0.214   3.765  20.651  0.00  0.00    +0.000 HD
ATOM     15  H   UNL     1       3.184   4.774  21.902  0.00  0.00    +0.000 HD
ENDBRANCH   7  12
ENDBRANCH   1   8
BRANCH   4  16
ATOM     16  O   UNL     1       6.474   4.078  16.410  0.00  0.00    +0.000 OA
BRANCH  16  17
ATOM     17  C   UNL     1       6.912   5.130  15.545  0.00  0.00    +0.000 C 
BRANCH  17  18
ATOM     18  C   UNL     1       6.835   4.673  14.115  0.00  0.00    +0.000 A 
ATOM     19  C   UNL     1       7.698   5.203  13.149  0.00  0.00    +0.000 A 
ATOM     20  C   UNL     1       7.636   4.750  11.832  0.00  0.00    +0.000 A 
ATOM     21  C   UNL     1       6.707   3.775  11.471  0.00  0.00    +0.000 A 
ATOM     22  C   UNL     1       5.836   3.251  12.424  0.00  0.00    +0.000 A 
ATOM     23  C   UNL     1       5.894   3.702  13.740  0.00  0.00    +0.000 A 
ENDBRANCH  17  18
ENDBRANCH  16  17
ENDBRANCH   4  16
TORSDOF 5
ENDMDL
MODEL 5
REMARK VINA RESULT:      -7.3      5.294      7.877
REMARK  Name = 
REMARK  5 active torsions:
REMARK  status: ('A' for Active; 'I' for Inactive)
REMARK    1  A    between atoms: N_4  and  N_5
REMARK    2  A    between atoms: C_6  and  C_7
REMARK    3  A    between atoms: C_10  and  O_11
REMARK    4  A    between atoms: O_11  and  C_12
REMARK    5  A    between atoms: C_12  and  C_13
REMARK                            x       y       z     vdW  Elec       q    Type
REMARK                         _______ _______ _______ _____ _____    ______ ____
ROOT
ATOM      1  C   UNL     1       5.720   4.962  15.966  0.00  0.00    +0.000 A 
ATOM      2  C   UNL     1       5.495   6.327  16.144  0.00  0.00    +0.000 A 
ATOM      3  C   UNL     1       4.447   6.759  16.950  0.00  0.00    +0.000 A 
ATOM      4  C   UNL     1       3.557   5.835  17.500  0.00  0.00    +0.000 A 
ATOM      5  C   UNL     1       3.778   4.468  17.320  0.00  0.00    +0.000 A 
ATOM      6  C   UNL     1       4.858   4.027  16.548  0.00  0.00    +0.000 A 
ENDROOT
BRANCH   1   8
ATOM      7  N   UNL     1       6.774   3.980  13.903  0.00  0.00    +0.000 NA
ATOM      8  C   UNL     1       6.822   4.478  15.107  0.00  0.00    +0.000 C 
BRANCH   7  12
ATOM      9  N   UNL     1       6.316   2.322  11.864  0.00  0.00    +0.000 N 
ATOM     10  C   UNL     1       5.318   3.186  12.167  0.00  0.00    +0.000 C 
ATOM     11  O   UNL     1       4.264   3.222  11.547  0.00  0.00    +0.000 OA
ATOM     12  N   UNL     1       5.583   4.004  13.233  0.00  0.00    +0.000 N 
ATOM     13  H   UNL     1       6.259   1.847  10.978  0.00  0.00    +0.000 HD
ATOM     14  H   UNL     1       7.219   2.588  12.233  0.00  0.00    +0.000 HD
ATOM     15  H   UNL     1       4.880   4.704  13.438  0.00  0.00    +0.000 HD
ENDBRANCH   7  12
ENDBRANCH   1   8
BRANCH   4  16
ATOM     16  O   UNL     1       2.431   6.180  18.201  0.00  0.00    +0.000 OA
BRANCH  16  17
ATOM     17  C   UNL     1       2.610   6.198  19.620  0.00  0.00    +0.000 C 
BRANCH  17  18
ATOM     18  C   UNL     1       2.136   4.899  20.206  0.00  0.00    +0.000 A 
ATOM     19  C   UNL     1       2.773   4.344  21.322  0.00  0.00    +0.000 A 
ATOM     20  C   UNL     1       2.305   3.152  21.874  0.00  0.00    +0.000 A 
ATOM     21  C   UNL     1       1.207   2.504  21.310  0.00  0.00    +0.000 A 
ATOM     22  C   UNL     1       0.575   3.043  20.192  0.00  0.00    +0.000 A 
ATOM     23  C   UNL     1       1.040   4.232  19.637  0.00  0.00    +0.000 A 
ENDBRANCH  17  18
ENDBRANCH  16  17
ENDBRANCH   4  16
TORSDOF 5
ENDMDL
MODEL 6
REMARK VINA RESULT:      -7.3      6.793      9.396
REMARK  Name = 
REMARK  5 active torsions:
REMARK  status: ('A' for Active; 'I' for Inactive)
REMARK    1  A    between atoms: N_4  and  N_5
REMARK    2  A    between atoms: C_6  and  C_7
REMARK    3  A    between atoms: C_10  and  O_11
REMARK    4  A    between atoms: O_11  and  C_12
REMARK    5  A    between atoms: C_12  and  C_13
REMARK                            x       y       z     vdW  Elec       q    Type
REMARK                         _______ _______ _______ _____ _____    ______ ____
ROOT
ATOM      1  C   UNL     1       0.799   9.874  19.366  0.00  0.00    +0.000 A 
ATOM      2  C   UNL     1       1.039   8.890  20.325  0.00  0.00    +0.000 A 
ATOM      3  C   UNL     1       1.908   7.842  20.042  0.00  0.00    +0.000 A 
ATOM      4  C   UNL     1       2.462   7.713  18.768  0.00  0.00    +0.000 A 
ATOM      5  C   UNL     1       2.220   8.696  17.804  0.00  0.00    +0.000 A 
ATOM      6  C   UNL     1       1.383   9.777  18.099  0.00  0.00    +0.000 A 
ENDROOT
BRANCH   1   8
ATOM      7  N   UNL     1      -1.315  11.222  19.151  0.00  0.00    +0.000 NA
ATOM      8  C   UNL     1      -0.128  10.993  19.640  0.00  0.00    +0.000 C 
BRANCH   7  12
ATOM      9  N   UNL     1      -2.011  11.741  16.628  0.00  0.00    +0.000 N 
ATOM     10  C   UNL     1      -2.290  10.495  17.081  0.00  0.00    +0.000 C 
ATOM     11  O   UNL     1      -2.835   9.647  16.389  0.00  0.00    +0.000 OA
ATOM     12  N   UNL     1      -1.897  10.261  18.373  0.00  0.00    +0.000 N 
ATOM     13  H   UNL     1      -2.454  12.027  15.770  0.00  0.00    +0.000 HD
ATOM     14  H   UNL     1      -1.849  12.419  17.360  0.00  0.00    +0.000 HD
ATOM     15  H   UNL     1      -2.154   9.360  18.756  0.00  0.00    +0.000 HD
ENDBRANCH   7  12
ENDBRANCH   1   8
BRANCH   4  16
ATOM     16  O   UNL     1       3.227   6.649  18.369  0.00  0.00    +0.000 OA
BRANCH  16  17
ATOM     17  C   UNL     1       3.483   5.694  19.403  0.00  0.00    +0.000 C 
BRANCH  17  18
ATOM     18  C   UNL     1       2.638   4.471  19.183  0.00  0.00    +0.000 A 
ATOM     19  C   UNL     1       2.915   3.591  18.131  0.00  0.00    +0.000 A 
ATOM     20  C   UNL     1       2.141   2.445  17.955  0.00  0.00    +0.000 A 
ATOM     21  C   UNL     1       1.082   2.177  18.822  0.00  0.00    +0.000 A 
ATOM     22  C   UNL     1       0.792   3.054  19.864  0.00  0.00    +0.000 A 
ATOM     23  C   UNL     1       1.561   4.201  20.042  0.00  0.00    +0.000 A 
ENDBRANCH  17  18
ENDBRANCH  16  17
ENDBRANCH   4  16
TORSDOF 5
ENDMDL
MODEL 7
REMARK VINA RESULT:      -7.2      5.244      7.812
REMARK  Name = 
REMARK  5 active torsions:
REMARK  status: ('A' for Active; 'I' for Inactive)
REMARK    1  A    between atoms: N_4  and  N_5
REMARK    2  A    between atoms: C_6  and  C_7
REMARK    3  A    between atoms: C_10  and  O_11
REMARK    4  A    between atoms: O_11  and  C_12
REMARK    5  A    between atoms: C_12  and  C_13
REMARK                            x       y       z     vdW  Elec       q    Type
REMARK                         _______ _______ _______ _____ _____    ______ ____
ROOT
ATOM      1  C   UNL     1       5.514   4.948  16.101  0.00  0.00    +0.000 A 
ATOM      2  C   UNL     1       4.559   4.060  16.596  0.00  0.00    +0.000 A 
ATOM      3  C   UNL     1       3.467   4.542  17.310  0.00  0.00    +0.000 A 
ATOM      4  C   UNL     1       3.376   5.900  17.623  0.00  0.00    +0.000 A 
ATOM      5  C   UNL     1       4.333   6.790  17.131  0.00  0.00    +0.000 A 
ATOM      6  C   UNL     1       5.408   6.316  16.373  0.00  0.00    +0.000 A 
ENDROOT
BRANCH   1   8
ATOM      7  N   UNL     1       6.748   3.960  14.144  0.00  0.00    +0.000 NA
ATOM      8  C   UNL     1       6.688   4.459  15.346  0.00  0.00    +0.000 C 
BRANCH   7  12
ATOM      9  N   UNL     1       6.549   2.429  11.968  0.00  0.00    +0.000 N 
ATOM     10  C   UNL     1       5.492   3.235  12.231  0.00  0.00    +0.000 C 
ATOM     11  O   UNL     1       4.499   3.276  11.518  0.00  0.00    +0.000 OA
ATOM     12  N   UNL     1       5.624   3.989  13.367  0.00  0.00    +0.000 N 
ATOM     13  H   UNL     1       6.592   2.014  11.052  0.00  0.00    +0.000 HD
ATOM     14  H   UNL     1       7.403   2.702  12.437  0.00  0.00    +0.000 HD
ATOM     15  H   UNL     1       4.878   4.648  13.549  0.00  0.00    +0.000 HD
ENDBRANCH   7  12
ENDBRANCH   1   8
BRANCH   4  16
ATOM     16  O   UNL     1       2.403   6.437  18.424  0.00  0.00    +0.000 OA
BRANCH  16  17
ATOM     17  C   UNL     1       2.662   6.307  19.825  0.00  0.00    +0.000 C 
BRANCH  17  18
ATOM     18  C   UNL     1       2.212   4.954  20.299  0.00  0.00    +0.000 A 
ATOM     19  C   UNL     1       0.964   4.444  19.923  0.00  0.00    +0.000 A 
ATOM     20  C   UNL     1       0.570   3.176  20.346  0.00  0.00    +0.000 A 
ATOM     21  C   UNL     1       1.414   2.415  21.155  0.00  0.00    +0.000 A 
ATOM     22  C   UNL     1       2.652   2.920  21.544  0.00  0.00    +0.000 A 
ATOM     23  C   UNL     1       3.049   4.187  21.124  0.00  0.00    +0.000 A 
ENDBRANCH  17  18
ENDBRANCH  16  17
ENDBRANCH   4  16
TORSDOF 5
ENDMDL
MODEL 8
REMARK VINA RESULT:      -7.2      5.249      7.801
REMARK  Name = 
REMARK  5 active torsions:
REMARK  status: ('A' for Active; 'I' for Inactive)
REMARK    1  A    between atoms: N_4  and  N_5
REMARK    2  A    between atoms: C_6  and  C_7
REMARK    3  A    between atoms: C_10  and  O_11
REMARK    4  A    between atoms: O_11  and  C_12
REMARK    5  A    between atoms: C_12  and  C_13
REMARK                            x       y       z     vdW  Elec       q    Type
REMARK                         _______ _______ _______ _____ _____    ______ ____
ROOT
ATOM      1  C   UNL     1       5.550   4.993  16.056  0.00  0.00    +0.000 A 
ATOM      2  C   UNL     1       4.632   4.085  16.582  0.00  0.00    +0.000 A 
ATOM      3  C   UNL     1       3.541   4.544  17.312  0.00  0.00    +0.000 A 
ATOM      4  C   UNL     1       3.416   5.902  17.609  0.00  0.00    +0.000 A 
ATOM      5  C   UNL     1       4.337   6.814  17.086  0.00  0.00    +0.000 A 
ATOM      6  C   UNL     1       5.410   6.361  16.312  0.00  0.00    +0.000 A 
ENDROOT
BRANCH   1   8
ATOM      7  N   UNL     1       6.774   4.009  14.090  0.00  0.00    +0.000 NA
ATOM      8  C   UNL     1       6.723   4.529  15.284  0.00  0.00    +0.000 C 
BRANCH   7  12
ATOM      9  N   UNL     1       6.585   2.445  11.937  0.00  0.00    +0.000 N 
ATOM     10  C   UNL     1       5.504   3.213  12.215  0.00  0.00    +0.000 C 
ATOM     11  O   UNL     1       4.494   3.207  11.524  0.00  0.00    +0.000 OA
ATOM     12  N   UNL     1       5.632   3.985  13.339  0.00  0.00    +0.000 N 
ATOM     13  H   UNL     1       6.623   2.020  11.025  0.00  0.00    +0.000 HD
ATOM     14  H   UNL     1       7.437   2.755  12.383  0.00  0.00    +0.000 HD
ATOM     15  H   UNL     1       4.865   4.618  13.530  0.00  0.00    +0.000 HD
ENDBRANCH   7  12
ENDBRANCH   1   8
BRANCH   4  16
ATOM     16  O   UNL     1       2.444   6.422  18.422  0.00  0.00    +0.000 OA
BRANCH  16  17
ATOM     17  C   UNL     1       2.712   6.275  19.820  0.00  0.00    +0.000 C 
BRANCH  17  18
ATOM     18  C   UNL     1       2.251   4.923  20.284  0.00  0.00    +0.000 A 
ATOM     19  C   UNL     1       3.048   4.150  21.136  0.00  0.00    +0.000 A 
ATOM     20  C   UNL     1       2.596   2.909  21.582  0.00  0.00    +0.000 A 
ATOM     21  C   UNL     1       1.351   2.430  21.174  0.00  0.00    +0.000 A 
ATOM     22  C   UNL     1       0.557   3.188  20.317  0.00  0.00    +0.000 A 
ATOM     23  C   UNL     1       1.006   4.427  19.868  0.00  0.00    +0.000 A 
ENDBRANCH  17  18
ENDBRANCH  16  17
ENDBRANCH   4  16
TORSDOF 5
ENDMDL
MODEL 9
REMARK VINA RESULT:      -7.2      5.127      7.786
REMARK  Name = 
REMARK  5 active torsions:
REMARK  status: ('A' for Active; 'I' for Inactive)
REMARK    1  A    between atoms: N_4  and  N_5
REMARK    2  A    between atoms: C_6  and  C_7
REMARK    3  A    between atoms: C_10  and  O_11
REMARK    4  A    between atoms: O_11  and  C_12
REMARK    5  A    between atoms: C_12  and  C_13
REMARK                            x       y       z     vdW  Elec       q    Type
REMARK                         _______ _______ _______ _____ _____    ______ ____
ROOT
ATOM      1  C   UNL     1       6.297   5.259  16.333  0.00  0.00    +0.000 A 
ATOM      2  C   UNL     1       6.297   4.559  17.539  0.00  0.00    +0.000 A 
ATOM      3  C   UNL     1       5.368   4.875  18.525  0.00  0.00    +0.000 A 
ATOM      4  C   UNL     1       4.504   5.958  18.356  0.00  0.00    +0.000 A 
ATOM      5  C   UNL     1       4.505   6.663  17.150  0.00  0.00    +0.000 A 
ATOM      6  C   UNL     1       5.405   6.319  16.136  0.00  0.00    +0.000 A 
ENDROOT
BRANCH   1   8
ATOM      7  N   UNL     1       7.096   4.365  14.121  0.00  0.00    +0.000 NA
ATOM      8  C   UNL     1       7.279   4.949  15.272  0.00  0.00    +0.000 C 
BRANCH   7  12
ATOM      9  N   UNL     1       6.618   3.115  11.813  0.00  0.00    +0.000 N 
ATOM     10  C   UNL     1       5.529   3.480  12.532  0.00  0.00    +0.000 C 
ATOM     11  O   UNL     1       4.386   3.262  12.156  0.00  0.00    +0.000 OA
ATOM     12  N   UNL     1       5.817   4.099  13.720  0.00  0.00    +0.000 N 
ATOM     13  H   UNL     1       6.466   2.846  10.855  0.00  0.00    +0.000 HD
ATOM     14  H   UNL     1       7.465   3.605  12.069  0.00  0.00    +0.000 HD
ATOM     15  H   UNL     1       5.021   4.441  14.243  0.00  0.00    +0.000 HD
ENDBRANCH   7  12
ENDBRANCH   1   8
BRANCH   4  16
ATOM     16  O   UNL     1       3.647   6.412  19.323  0.00  0.00    +0.000 OA
BRANCH  16  17
ATOM     17  C   UNL     1       2.263   6.269  18.991  0.00  0.00    +0.000 C 
BRANCH  17  18
ATOM     18  C   UNL     1       1.813   4.867  19.292  0.00  0.00    +0.000 A 
ATOM     19  C   UNL     1       1.542   3.966  18.256  0.00  0.00    +0.000 A 
ATOM     20  C   UNL     1       1.153   2.660  18.549  0.00  0.00    +0.000 A 
ATOM     21  C   UNL     1       1.022   2.250  19.875  0.00  0.00    +0.000 A 
ATOM     22  C   UNL     1       1.278   3.144  20.912  0.00  0.00    +0.000 A 
ATOM     23  C   UNL     1       1.665   4.450  20.624  0.00  0.00    +0.000 A 
ENDBRANCH  17  18
ENDBRANCH  16  17
ENDBRANCH   4  16
TORSDOF 5
ENDMDL
