MODEL 1
REMARK VINA RESULT:      -7.7      0.000      0.000
REMARK  Name = 
REMARK  4 active torsions:
REMARK  status: ('A' for Active; 'I' for Inactive)
REMARK    1  A    between atoms: C_2  and  C_8
REMARK    2  A    between atoms: N_3  and  C_4
REMARK    3  A    between atoms: C_4  and  C_5
REMARK    4  A    between atoms: C_15  and  C_17
REMARK                            x       y       z     vdW  Elec       q    Type
REMARK                         _______ _______ _______ _____ _____    ______ ____
ROOT
ATOM      1  C   UNL     1       4.706   4.681  17.889  0.00  0.00    +0.000 C 
ATOM      2  C   UNL     1       3.399   4.492  17.146  0.00  0.00    +0.000 C 
ATOM      3  C   UNL     1       2.452   5.340  17.953  0.00  0.00    +0.000 C 
ATOM      4  C   UNL     1       3.334   6.504  18.425  0.00  0.00    +0.000 C 
ATOM      5  C   UNL     1       3.072   6.860  19.885  0.00  0.00    +0.000 C 
ATOM      6  C   UNL     1       1.706   7.495  20.065  0.00  0.00    +0.000 C 
ATOM      7  N   UNL     1       1.520   8.658  19.202  0.00  0.00    +0.000 N 
ATOM      8  C   UNL     1       0.946   9.883  19.583  0.00  0.00    +0.000 C 
ATOM      9  O   UNL     1       0.895  10.851  18.830  0.00  0.00    +0.000 OA
ATOM     10  C   UNL     1       1.830   8.458  17.783  0.00  0.00    +0.000 C 
ATOM     11  C   UNL     1       3.181   7.771  17.572  0.00  0.00    +0.000 C 
ATOM     12  O   UNL     1       4.702   6.050  18.323  0.00  0.00    +0.000 OA
ENDROOT
BRANCH   8  13
ATOM     13  C   UNL     1       0.383  10.064  20.951  0.00  0.00    +0.000 A 
ATOM     14  C   UNL     1      -0.533  11.098  21.159  0.00  0.00    +0.000 A 
ATOM     15  C   UNL     1      -1.026  11.282  22.440  0.00  0.00    +0.000 A 
ATOM     16  N   UNL     1      -0.661  10.529  23.501  0.00  0.00    +0.000 NA
ATOM     17  C   UNL     1       0.184   9.507  23.260  0.00  0.00    +0.000 A 
ATOM     18  C   UNL     1       0.689   9.209  22.010  0.00  0.00    +0.000 A 
ENDBRANCH   8  13
BRANCH   1  20
ATOM     19  O   UNL     1       7.042   4.260  17.405  0.00  0.00    +0.000 OA
ATOM     20  C   UNL     1       5.885   4.323  16.983  0.00  0.00    +0.000 C 
ATOM     21  N   UNL     1       5.532   4.056  15.687  0.00  0.00    +0.000 N 
ATOM     22  H   UNL     1       4.582   4.290  15.411  0.00  0.00    +0.000 HD
BRANCH  21  23
ATOM     23  C   UNL     1       6.525   3.732  14.697  0.00  0.00    +0.000 C 
BRANCH  23  24
ATOM     24  C   UNL     1       6.070   4.192  13.353  0.00  0.00    +0.000 C 
ATOM     25  C   UNL     1       6.922   3.962  12.129  0.00  0.00    +0.000 C 
ATOM     26  C   UNL     1       5.647   3.188  12.311  0.00  0.00    +0.000 C 
ENDBRANCH  23  24
ENDBRANCH  21  23
ENDBRANCH   1  20
TORSDOF 4
ENDMDL
MODEL 2
REMARK VINA RESULT:      -7.2      0.970      1.402
REMARK  Name = 
REMARK  4 active torsions:
REMARK  status: ('A' for Active; 'I' for Inactive)
REMARK    1  A    between atoms: C_2  and  C_8
REMARK    2  A    between atoms: N_3  and  C_4
REMARK    3  A    between atoms: C_4  and  C_5
REMARK    4  A    between atoms: C_15  and  C_17
REMARK                            x       y       z     vdW  Elec       q    Type
REMARK                         _______ _______ _______ _____ _____    ______ ____
ROOT
ATOM      1  C   UNL     1       3.931   4.909  18.625  0.00  0.00    +0.000 C 
ATOM      2  C   UNL     1       2.762   4.845  17.664  0.00  0.00    +0.000 C 
ATOM      3  C   UNL     1       1.791   5.815  18.283  0.00  0.00    +0.000 C 
ATOM      4  C   UNL     1       2.703   6.887  18.895  0.00  0.00    +0.000 C 
ATOM      5  C   UNL     1       2.231   7.310  20.283  0.00  0.00    +0.000 C 
ATOM      6  C   UNL     1       0.936   8.097  20.213  0.00  0.00    +0.000 C 
ATOM      7  N   UNL     1       1.039   9.250  19.321  0.00  0.00    +0.000 N 
ATOM      8  C   UNL     1       0.550  10.541  19.585  0.00  0.00    +0.000 C 
ATOM      9  O   UNL     1       0.743  11.488  18.828  0.00  0.00    +0.000 OA
ATOM     10  C   UNL     1       1.569   8.977  17.982  0.00  0.00    +0.000 C 
ATOM     11  C   UNL     1       2.848   8.139  18.019  0.00  0.00    +0.000 C 
ATOM     12  O   UNL     1       4.007   6.282  19.042  0.00  0.00    +0.000 OA
ENDROOT
BRANCH   8  13
ATOM     13  C   UNL     1      -0.219  10.821  20.830  0.00  0.00    +0.000 A 
ATOM     14  C   UNL     1       0.101  10.101  21.984  0.00  0.00    +0.000 A 
ATOM     15  C   UNL     1      -0.641  10.343  23.128  0.00  0.00    +0.000 A 
ATOM     16  N   UNL     1      -1.663  11.224  23.188  0.00  0.00    +0.000 NA
ATOM     17  C   UNL     1      -1.915  11.942  22.075  0.00  0.00    +0.000 A 
ATOM     18  C   UNL     1      -1.199  11.813  20.902  0.00  0.00    +0.000 A 
ENDBRANCH   8  13
BRANCH   1  20
ATOM     19  O   UNL     1       6.148   3.934  18.587  0.00  0.00    +0.000 OA
ATOM     20  C   UNL     1       5.202   4.397  17.947  0.00  0.00    +0.000 C 
ATOM     21  N   UNL     1       5.175   4.477  16.579  0.00  0.00    +0.000 N 
ATOM     22  H   UNL     1       4.419   5.016  16.165  0.00  0.00    +0.000 HD
BRANCH  21  23
ATOM     23  C   UNL     1       6.303   4.065  15.787  0.00  0.00    +0.000 C 
BRANCH  23  24
ATOM     24  C   UNL     1       6.176   4.606  14.403  0.00  0.00    +0.000 C 
ATOM     25  C   UNL     1       6.720   3.841  13.221  0.00  0.00    +0.000 C 
ATOM     26  C   UNL     1       5.235   3.958  13.419  0.00  0.00    +0.000 C 
ENDBRANCH  23  24
ENDBRANCH  21  23
ENDBRANCH   1  20
TORSDOF 4
ENDMDL
MODEL 3
REMARK VINA RESULT:      -7.2      1.465      1.848
REMARK  Name = 
REMARK  4 active torsions:
REMARK  status: ('A' for Active; 'I' for Inactive)
REMARK    1  A    between atoms: C_2  and  C_8
REMARK    2  A    between atoms: N_3  and  C_4
REMARK    3  A    between atoms: C_4  and  C_5
REMARK    4  A    between atoms: C_15  and  C_17
REMARK                            x       y       z     vdW  Elec       q    Type
REMARK                         _______ _______ _______ _____ _____    ______ ____
ROOT
ATOM      1  C   UNL     1       3.582   4.990  19.066  0.00  0.00    +0.000 C 
ATOM      2  C   UNL     1       2.584   4.973  17.926  0.00  0.00    +0.000 C 
ATOM      3  C   UNL     1       1.633   6.070  18.324  0.00  0.00    +0.000 C 
ATOM      4  C   UNL     1       2.541   7.089  19.026  0.00  0.00    +0.000 C 
ATOM      5  C   UNL     1       1.898   7.647  20.292  0.00  0.00    +0.000 C 
ATOM      6  C   UNL     1       0.721   8.547  19.966  0.00  0.00    +0.000 C 
ATOM      7  N   UNL     1       1.086   9.622  19.047  0.00  0.00    +0.000 N 
ATOM      8  C   UNL     1       0.699  10.968  19.160  0.00  0.00    +0.000 C 
ATOM      9  O   UNL     1       1.110  11.840  18.399  0.00  0.00    +0.000 OA
ATOM     10  C   UNL     1       1.794   9.211  17.831  0.00  0.00    +0.000 C 
ATOM     11  C   UNL     1       2.955   8.260  18.124  0.00  0.00    +0.000 C 
ATOM     12  O   UNL     1       3.733   6.374  19.419  0.00  0.00    +0.000 OA
ENDROOT
BRANCH   8  13
ATOM     13  C   UNL     1      -0.228  11.403  20.243  0.00  0.00    +0.000 A 
ATOM     14  C   UNL     1      -1.499  11.860  19.884  0.00  0.00    +0.000 A 
ATOM     15  C   UNL     1      -2.343  12.294  20.892  0.00  0.00    +0.000 A 
ATOM     16  N   UNL     1      -2.003  12.315  22.200  0.00  0.00    +0.000 NA
ATOM     17  C   UNL     1      -0.791  11.820  22.521  0.00  0.00    +0.000 A 
ATOM     18  C   UNL     1       0.101  11.315  21.596  0.00  0.00    +0.000 A 
ENDBRANCH   8  13
BRANCH   1  20
ATOM     19  O   UNL     1       5.486   3.522  19.364  0.00  0.00    +0.000 OA
ATOM     20  C   UNL     1       4.886   4.316  18.636  0.00  0.00    +0.000 C 
ATOM     21  N   UNL     1       5.299   4.653  17.375  0.00  0.00    +0.000 N 
ATOM     22  H   UNL     1       4.821   5.430  16.926  0.00  0.00    +0.000 HD
BRANCH  21  23
ATOM     23  C   UNL     1       6.523   4.130  16.827  0.00  0.00    +0.000 C 
BRANCH  23  24
ATOM     24  C   UNL     1       6.746   4.685  15.461  0.00  0.00    +0.000 C 
ATOM     25  C   UNL     1       6.336   3.908  14.234  0.00  0.00    +0.000 C 
ATOM     26  C   UNL     1       5.575   5.142  14.628  0.00  0.00    +0.000 C 
ENDBRANCH  23  24
ENDBRANCH  21  23
ENDBRANCH   1  20
TORSDOF 4
ENDMDL
MODEL 4
REMARK VINA RESULT:      -7.0      2.294      9.528
REMARK  Name = 
REMARK  4 active torsions:
REMARK  status: ('A' for Active; 'I' for Inactive)
REMARK    1  A    between atoms: C_2  and  C_8
REMARK    2  A    between atoms: N_3  and  C_4
REMARK    3  A    between atoms: C_4  and  C_5
REMARK    4  A    between atoms: C_15  and  C_17
REMARK                            x       y       z     vdW  Elec       q    Type
REMARK                         _______ _______ _______ _____ _____    ______ ____
ROOT
ATOM      1  C   UNL     1      -0.092  11.996  18.823  0.00  0.00    +0.000 C 
ATOM      2  C   UNL     1      -1.132  10.898  18.732  0.00  0.00    +0.000 C 
ATOM      3  C   UNL     1      -0.317   9.731  18.243  0.00  0.00    +0.000 C 
ATOM      4  C   UNL     1       1.050   9.950  18.906  0.00  0.00    +0.000 C 
ATOM      5  C   UNL     1       2.201   9.678  17.942  0.00  0.00    +0.000 C 
ATOM      6  C   UNL     1       2.316   8.200  17.620  0.00  0.00    +0.000 C 
ATOM      7  N   UNL     1       2.436   7.381  18.823  0.00  0.00    +0.000 N 
ATOM      8  C   UNL     1       3.326   6.308  19.003  0.00  0.00    +0.000 C 
ATOM      9  O   UNL     1       3.435   5.712  20.071  0.00  0.00    +0.000 OA
ATOM     10  C   UNL     1       1.432   7.621  19.864  0.00  0.00    +0.000 C 
ATOM     11  C   UNL     1       1.256   9.108  20.173  0.00  0.00    +0.000 C 
ATOM     12  O   UNL     1       1.108  11.347  19.274  0.00  0.00    +0.000 OA
ENDROOT
BRANCH   8  13
ATOM     13  C   UNL     1       4.205   5.855  17.888  0.00  0.00    +0.000 A 
ATOM     14  C   UNL     1       3.914   4.638  17.266  0.00  0.00    +0.000 A 
ATOM     15  C   UNL     1       4.754   4.208  16.254  0.00  0.00    +0.000 A 
ATOM     16  N   UNL     1       5.845   4.890  15.842  0.00  0.00    +0.000 NA
ATOM     17  C   UNL     1       6.071   6.085  16.423  0.00  0.00    +0.000 A 
ATOM     18  C   UNL     1       5.263   6.625  17.403  0.00  0.00    +0.000 A 
ENDBRANCH   8  13
BRANCH   1  20
ATOM     19  O   UNL     1      -0.082  14.238  19.740  0.00  0.00    +0.000 OA
ATOM     20  C   UNL     1      -0.578  13.109  19.752  0.00  0.00    +0.000 C 
ATOM     21  N   UNL     1      -1.619  12.744  20.563  0.00  0.00    +0.000 N 
ATOM     22  H   UNL     1      -1.844  11.753  20.605  0.00  0.00    +0.000 HD
BRANCH  21  23
ATOM     23  C   UNL     1      -2.177  13.664  21.518  0.00  0.00    +0.000 C 
BRANCH  23  24
ATOM     24  C   UNL     1      -2.036  13.112  22.897  0.00  0.00    +0.000 C 
ATOM     25  C   UNL     1      -3.138  12.288  23.517  0.00  0.00    +0.000 C 
ATOM     26  C   UNL     1      -1.850  11.631  23.106  0.00  0.00    +0.000 C 
ENDBRANCH  23  24
ENDBRANCH  21  23
ENDBRANCH   1  20
TORSDOF 4
ENDMDL
MODEL 5
REMARK VINA RESULT:      -6.8      2.193      9.630
REMARK  Name = 
REMARK  4 active torsions:
REMARK  status: ('A' for Active; 'I' for Inactive)
REMARK    1  A    between atoms: C_2  and  C_8
REMARK    2  A    between atoms: N_3  and  C_4
REMARK    3  A    between atoms: C_4  and  C_5
REMARK    4  A    between atoms: C_15  and  C_17
REMARK                            x       y       z     vdW  Elec       q    Type
REMARK                         _______ _______ _______ _____ _____    ______ ____
ROOT
ATOM      1  C   UNL     1      -0.073  11.699  19.038  0.00  0.00    +0.000 C 
ATOM      2  C   UNL     1      -1.086  10.576  18.942  0.00  0.00    +0.000 C 
ATOM      3  C   UNL     1      -0.252   9.445  18.403  0.00  0.00    +0.000 C 
ATOM      4  C   UNL     1       1.124   9.683  19.039  0.00  0.00    +0.000 C 
ATOM      5  C   UNL     1       2.258   9.467  18.040  0.00  0.00    +0.000 C 
ATOM      6  C   UNL     1       2.404   8.002  17.676  0.00  0.00    +0.000 C 
ATOM      7  N   UNL     1       2.576   7.155  18.853  0.00  0.00    +0.000 N 
ATOM      8  C   UNL     1       3.497   6.103  18.983  0.00  0.00    +0.000 C 
ATOM      9  O   UNL     1       3.649   5.482  20.032  0.00  0.00    +0.000 OA
ATOM     10  C   UNL     1       1.591   7.341  19.924  0.00  0.00    +0.000 C 
ATOM     11  C   UNL     1       1.383   8.814  20.277  0.00  0.00    +0.000 C 
ATOM     12  O   UNL     1       1.154  11.071  19.442  0.00  0.00    +0.000 OA
ENDROOT
BRANCH   8  13
ATOM     13  C   UNL     1       4.360   5.703  17.835  0.00  0.00    +0.000 A 
ATOM     14  C   UNL     1       5.505   6.459  17.571  0.00  0.00    +0.000 A 
ATOM     15  C   UNL     1       6.283   6.103  16.484  0.00  0.00    +0.000 A 
ATOM     16  N   UNL     1       5.992   5.076  15.655  0.00  0.00    +0.000 NA
ATOM     17  C   UNL     1       4.910   4.333  15.963  0.00  0.00    +0.000 A 
ATOM     18  C   UNL     1       4.101   4.574  17.056  0.00  0.00    +0.000 A 
ENDBRANCH   8  13
BRANCH   1  20
ATOM     19  O   UNL     1      -0.577  13.971  19.710  0.00  0.00    +0.000 OA
ATOM     20  C   UNL     1      -0.565  12.774  20.007  0.00  0.00    +0.000 C 
ATOM     21  N   UNL     1      -1.011  12.283  21.206  0.00  0.00    +0.000 N 
ATOM     22  H   UNL     1      -0.810  11.306  21.406  0.00  0.00    +0.000 HD
BRANCH  21  23
ATOM     23  C   UNL     1      -1.480  13.163  22.242  0.00  0.00    +0.000 C 
BRANCH  23  24
ATOM     24  C   UNL     1      -2.713  12.600  22.867  0.00  0.00    +0.000 C 
ATOM     25  C   UNL     1      -3.811  13.507  23.364  0.00  0.00    +0.000 C 
ATOM     26  C   UNL     1      -4.031  12.667  22.138  0.00  0.00    +0.000 C 
ENDBRANCH  23  24
ENDBRANCH  21  23
ENDBRANCH   1  20
TORSDOF 4
ENDMDL
MODEL 6
REMARK VINA RESULT:      -6.7      3.590      9.630
REMARK  Name = 
REMARK  4 active torsions:
REMARK  status: ('A' for Active; 'I' for Inactive)
REMARK    1  A    between atoms: C_2  and  C_8
REMARK    2  A    between atoms: N_3  and  C_4
REMARK    3  A    between atoms: C_4  and  C_5
REMARK    4  A    between atoms: C_15  and  C_17
REMARK                            x       y       z     vdW  Elec       q    Type
REMARK                         _______ _______ _______ _____ _____    ______ ____
ROOT
ATOM      1  C   UNL     1       0.130  12.633  18.550  0.00  0.00    +0.000 C 
ATOM      2  C   UNL     1      -1.069  11.724  18.716  0.00  0.00    +0.000 C 
ATOM      3  C   UNL     1      -0.491  10.375  18.381  0.00  0.00    +0.000 C 
ATOM      4  C   UNL     1       0.948  10.466  18.906  0.00  0.00    +0.000 C 
ATOM      5  C   UNL     1       1.950   9.857  17.928  0.00  0.00    +0.000 C 
ATOM      6  C   UNL     1       1.807   8.348  17.856  0.00  0.00    +0.000 C 
ATOM      7  N   UNL     1       1.911   7.721  19.171  0.00  0.00    +0.000 N 
ATOM      8  C   UNL     1       2.639   6.557  19.472  0.00  0.00    +0.000 C 
ATOM      9  O   UNL     1       2.754   6.127  20.616  0.00  0.00    +0.000 OA
ATOM     10  C   UNL     1       1.056   8.286  20.219  0.00  0.00    +0.000 C 
ATOM     11  C   UNL     1       1.139   9.812  20.281  0.00  0.00    +0.000 C 
ATOM     12  O   UNL     1       1.253  11.873  19.025  0.00  0.00    +0.000 OA
ENDROOT
BRANCH   8  13
ATOM     13  C   UNL     1       3.331   5.794  18.394  0.00  0.00    +0.000 A 
ATOM     14  C   UNL     1       2.813   4.550  18.024  0.00  0.00    +0.000 A 
ATOM     15  C   UNL     1       3.480   3.833  17.047  0.00  0.00    +0.000 A 
ATOM     16  N   UNL     1       4.610   4.259  16.440  0.00  0.00    +0.000 NA
ATOM     17  C   UNL     1       5.057   5.485  16.780  0.00  0.00    +0.000 A 
ATOM     18  C   UNL     1       4.434   6.299  17.704  0.00  0.00    +0.000 A 
ENDBRANCH   8  13
BRANCH   1  20
ATOM     19  O   UNL     1      -0.433  13.971  20.489  0.00  0.00    +0.000 OA
ATOM     20  C   UNL     1      -0.091  13.945  19.305  0.00  0.00    +0.000 C 
ATOM     21  N   UNL     1       0.151  15.066  18.557  0.00  0.00    +0.000 N 
ATOM     22  H   UNL     1       0.272  14.935  17.557  0.00  0.00    +0.000 HD
BRANCH  21  23
ATOM     23  C   UNL     1      -0.039  16.383  19.107  0.00  0.00    +0.000 C 
BRANCH  23  24
ATOM     24  C   UNL     1      -0.835  17.218  18.161  0.00  0.00    +0.000 C 
ATOM     25  C   UNL     1      -1.228  18.630  18.519  0.00  0.00    +0.000 C 
ATOM     26  C   UNL     1      -0.193  18.386  17.457  0.00  0.00    +0.000 C 
ENDBRANCH  23  24
ENDBRANCH  21  23
ENDBRANCH   1  20
TORSDOF 4
ENDMDL
MODEL 7
REMARK VINA RESULT:      -6.6      4.349      7.375
REMARK  Name = 
REMARK  4 active torsions:
REMARK  status: ('A' for Active; 'I' for Inactive)
REMARK    1  A    between atoms: C_2  and  C_8
REMARK    2  A    between atoms: N_3  and  C_4
REMARK    3  A    between atoms: C_4  and  C_5
REMARK    4  A    between atoms: C_15  and  C_17
REMARK                            x       y       z     vdW  Elec       q    Type
REMARK                         _______ _______ _______ _____ _____    ______ ____
ROOT
ATOM      1  C   UNL     1       0.708  10.568  18.848  0.00  0.00    +0.000 C 
ATOM      2  C   UNL     1       1.457  11.483  19.795  0.00  0.00    +0.000 C 
ATOM      3  C   UNL     1       0.342  12.297  20.394  0.00  0.00    +0.000 C 
ATOM      4  C   UNL     1      -0.828  11.306  20.458  0.00  0.00    +0.000 C 
ATOM      5  C   UNL     1      -2.142  11.947  20.023  0.00  0.00    +0.000 C 
ATOM      6  C   UNL     1      -2.625  12.965  21.039  0.00  0.00    +0.000 C 
ATOM      7  N   UNL     1      -2.739  12.396  22.379  0.00  0.00    +0.000 N 
ATOM      8  C   UNL     1      -3.804  12.601  23.272  0.00  0.00    +0.000 C 
ATOM      9  O   UNL     1      -3.879  12.025  24.355  0.00  0.00    +0.000 OA
ATOM     10  C   UNL     1      -1.561  11.673  22.869  0.00  0.00    +0.000 C 
ATOM     11  C   UNL     1      -1.019  10.676  21.845  0.00  0.00    +0.000 C 
ATOM     12  O   UNL     1      -0.523  10.251  19.518  0.00  0.00    +0.000 OA
ENDROOT
BRANCH   8  13
ATOM     13  C   UNL     1      -4.918  13.528  22.926  0.00  0.00    +0.000 A 
ATOM     14  C   UNL     1      -4.829  14.858  23.345  0.00  0.00    +0.000 A 
ATOM     15  C   UNL     1      -5.883  15.705  23.048  0.00  0.00    +0.000 A 
ATOM     16  N   UNL     1      -6.997  15.316  22.390  0.00  0.00    +0.000 NA
ATOM     17  C   UNL     1      -7.033  14.041  21.953  0.00  0.00    +0.000 A 
ATOM     18  C   UNL     1      -6.011  13.135  22.151  0.00  0.00    +0.000 A 
ENDBRANCH   8  13
BRANCH   1  20
ATOM     19  O   UNL     1       2.154   9.234  17.435  0.00  0.00    +0.000 OA
ATOM     20  C   UNL     1       1.560   9.344  18.509  0.00  0.00    +0.000 C 
ATOM     21  N   UNL     1       1.620   8.413  19.512  0.00  0.00    +0.000 N 
ATOM     22  H   UNL     1       0.972   8.527  20.286  0.00  0.00    +0.000 HD
BRANCH  21  23
ATOM     23  C   UNL     1       2.356   7.187  19.346  0.00  0.00    +0.000 C 
BRANCH  23  24
ATOM     24  C   UNL     1       1.954   6.207  20.396  0.00  0.00    +0.000 C 
ATOM     25  C   UNL     1       1.307   4.896  20.022  0.00  0.00    +0.000 C 
ATOM     26  C   UNL     1       2.711   4.914  20.556  0.00  0.00    +0.000 C 
ENDBRANCH  23  24
ENDBRANCH  21  23
ENDBRANCH   1  20
TORSDOF 4
ENDMDL
MODEL 8
REMARK VINA RESULT:      -6.6      2.253      2.849
REMARK  Name = 
REMARK  4 active torsions:
REMARK  status: ('A' for Active; 'I' for Inactive)
REMARK    1  A    between atoms: C_2  and  C_8
REMARK    2  A    between atoms: N_3  and  C_4
REMARK    3  A    between atoms: C_4  and  C_5
REMARK    4  A    between atoms: C_15  and  C_17
REMARK                            x       y       z     vdW  Elec       q    Type
REMARK                         _______ _______ _______ _____ _____    ______ ____
ROOT
ATOM      1  C   UNL     1       3.449   4.890  19.263  0.00  0.00    +0.000 C 
ATOM      2  C   UNL     1       2.453   4.868  18.122  0.00  0.00    +0.000 C 
ATOM      3  C   UNL     1       1.515   5.983  18.501  0.00  0.00    +0.000 C 
ATOM      4  C   UNL     1       2.434   7.002  19.189  0.00  0.00    +0.000 C 
ATOM      5  C   UNL     1       1.795   7.587  20.445  0.00  0.00    +0.000 C 
ATOM      6  C   UNL     1       0.630   8.496  20.103  0.00  0.00    +0.000 C 
ATOM      7  N   UNL     1       1.011   9.552  19.169  0.00  0.00    +0.000 N 
ATOM      8  C   UNL     1       0.640  10.905  19.260  0.00  0.00    +0.000 C 
ATOM      9  O   UNL     1       1.063  11.760  18.487  0.00  0.00    +0.000 OA
ATOM     10  C   UNL     1       1.716   9.114  17.960  0.00  0.00    +0.000 C 
ATOM     11  C   UNL     1       2.865   8.154  18.270  0.00  0.00    +0.000 C 
ATOM     12  O   UNL     1       3.617   6.278  19.596  0.00  0.00    +0.000 OA
ENDROOT
BRANCH   8  13
ATOM     13  C   UNL     1      -0.283  11.368  20.334  0.00  0.00    +0.000 A 
ATOM     14  C   UNL     1      -1.486  11.974  19.960  0.00  0.00    +0.000 A 
ATOM     15  C   UNL     1      -2.323  12.431  20.962  0.00  0.00    +0.000 A 
ATOM     16  N   UNL     1      -2.039  12.339  22.280  0.00  0.00    +0.000 NA
ATOM     17  C   UNL     1      -0.897  11.704  22.613  0.00  0.00    +0.000 A 
ATOM     18  C   UNL     1      -0.023  11.166  21.691  0.00  0.00    +0.000 A 
ENDBRANCH   8  13
BRANCH   1  20
ATOM     19  O   UNL     1       5.109   3.128  19.348  0.00  0.00    +0.000 OA
ATOM     20  C   UNL     1       4.745   4.194  18.846  0.00  0.00    +0.000 C 
ATOM     21  N   UNL     1       5.436   4.845  17.858  0.00  0.00    +0.000 N 
ATOM     22  H   UNL     1       5.132   5.787  17.629  0.00  0.00    +0.000 HD
BRANCH  21  23
ATOM     23  C   UNL     1       6.692   4.339  17.371  0.00  0.00    +0.000 C 
BRANCH  23  24
ATOM     24  C   UNL     1       7.813   5.162  17.911  0.00  0.00    +0.000 C 
ATOM     25  C   UNL     1       7.671   6.656  18.066  0.00  0.00    +0.000 C 
ATOM     26  C   UNL     1       7.711   5.775  19.284  0.00  0.00    +0.000 C 
ENDBRANCH  23  24
ENDBRANCH  21  23
ENDBRANCH   1  20
TORSDOF 4
ENDMDL
MODEL 9
REMARK VINA RESULT:      -6.6      3.103      9.482
REMARK  Name = 
REMARK  4 active torsions:
REMARK  status: ('A' for Active; 'I' for Inactive)
REMARK    1  A    between atoms: C_2  and  C_8
REMARK    2  A    between atoms: N_3  and  C_4
REMARK    3  A    between atoms: C_4  and  C_5
REMARK    4  A    between atoms: C_15  and  C_17
REMARK                            x       y       z     vdW  Elec       q    Type
REMARK                         _______ _______ _______ _____ _____    ______ ____
ROOT
ATOM      1  C   UNL     1      -0.025  11.939  18.726  0.00  0.00    +0.000 C 
ATOM      2  C   UNL     1      -1.071  10.844  18.675  0.00  0.00    +0.000 C 
ATOM      3  C   UNL     1      -0.266   9.659  18.214  0.00  0.00    +0.000 C 
ATOM      4  C   UNL     1       1.107   9.891  18.860  0.00  0.00    +0.000 C 
ATOM      5  C   UNL     1       2.249   9.584  17.895  0.00  0.00    +0.000 C 
ATOM      6  C   UNL     1       2.354   8.098  17.615  0.00  0.00    +0.000 C 
ATOM      7  N   UNL     1       2.481   7.313  18.840  0.00  0.00    +0.000 N 
ATOM      8  C   UNL     1       3.366   6.241  19.044  0.00  0.00    +0.000 C 
ATOM      9  O   UNL     1       3.481   5.676  20.128  0.00  0.00    +0.000 OA
ATOM     10  C   UNL     1       1.486   7.588  19.881  0.00  0.00    +0.000 C 
ATOM     11  C   UNL     1       1.319   9.085  20.149  0.00  0.00    +0.000 C 
ATOM     12  O   UNL     1       1.175  11.297  19.186  0.00  0.00    +0.000 OA
ENDROOT
BRANCH   8  13
ATOM     13  C   UNL     1       4.234   5.752  17.935  0.00  0.00    +0.000 A 
ATOM     14  C   UNL     1       5.414   6.448  17.660  0.00  0.00    +0.000 A 
ATOM     15  C   UNL     1       6.197   6.008  16.607  0.00  0.00    +0.000 A 
ATOM     16  N   UNL     1       5.881   4.954  15.823  0.00  0.00    +0.000 NA
ATOM     17  C   UNL     1       4.764   4.271  16.145  0.00  0.00    +0.000 A 
ATOM     18  C   UNL     1       3.945   4.597  17.207  0.00  0.00    +0.000 A 
ENDBRANCH   8  13
BRANCH   1  20
ATOM     19  O   UNL     1      -0.814  12.902  20.804  0.00  0.00    +0.000 OA
ATOM     20  C   UNL     1      -0.499  13.081  19.626  0.00  0.00    +0.000 C 
ATOM     21  N   UNL     1      -0.510  14.306  19.012  0.00  0.00    +0.000 N 
ATOM     22  H   UNL     1      -0.384  14.317  18.004  0.00  0.00    +0.000 HD
BRANCH  21  23
ATOM     23  C   UNL     1      -0.957  15.483  19.709  0.00  0.00    +0.000 C 
BRANCH  23  24
ATOM     24  C   UNL     1      -0.658  16.698  18.896  0.00  0.00    +0.000 C 
ATOM     25  C   UNL     1       0.146  17.836  19.473  0.00  0.00    +0.000 C 
ATOM     26  C   UNL     1       0.744  16.959  18.410  0.00  0.00    +0.000 C 
ENDBRANCH  23  24
ENDBRANCH  21  23
ENDBRANCH   1  20
TORSDOF 4
ENDMDL
