MODEL 1
REMARK VINA RESULT:      -6.2      0.000      0.000
REMARK  Name = 
REMARK  10 active torsions:
REMARK  status: ('A' for Active; 'I' for Inactive)
REMARK    1  A    between atoms: C_1  and  C_2
REMARK    2  A    between atoms: C_2  and  C_4
REMARK    3  A    between atoms: C_6  and  C_7
REMARK    4  A    between atoms: C_9  and  C_10
REMARK    5  A    between atoms: C_11  and  N_12
REMARK    6  A    between atoms: C_13  and  C_15
REMARK    7  A    between atoms: C_19  and  S_20
REMARK    8  A    between atoms: S_20  and  N_23
REMARK    9  A    between atoms: N_23  and  C_24
REMARK   10  A    between atoms: C_27  and  C_28
REMARK                            x       y       z     vdW  Elec       q    Type
REMARK                         _______ _______ _______ _____ _____    ______ ____
ROOT
ATOM      1  C   UNL     1      -0.424  11.758  21.450  0.00  0.00    +0.000 A 
ATOM      2  S   UNL     1       0.730  10.520  21.180  0.00  0.00    +0.000 S 
ATOM      3  C   UNL     1       0.184   9.612  22.525  0.00  0.00    +0.000 A 
ATOM      4  C   UNL     1      -0.856  10.230  23.181  0.00  0.00    +0.000 A 
ATOM      5  C   UNL     1      -1.205  11.468  22.564  0.00  0.00    +0.000 A 
ENDROOT
BRANCH   1   7
ATOM      6  N   UNL     1       0.070  14.114  21.009  0.00  0.00    +0.000 N 
ATOM      7  C   UNL     1      -0.526  12.927  20.579  0.00  0.00    +0.000 C 
ATOM      8  O   UNL     1      -1.120  12.875  19.502  0.00  0.00    +0.000 OA
ATOM      9  H   UNL     1      -0.134  14.328  21.987  0.00  0.00    +0.000 HD
BRANCH   6  17
ATOM     10  C   UNL     1      -0.949  16.183  20.122  0.00  0.00    +0.000 A 
ATOM     11  C   UNL     1      -0.985  17.163  19.114  0.00  0.00    +0.000 A 
ATOM     12  C   UNL     1       0.017  17.245  18.145  0.00  0.00    +0.000 A 
ATOM     13  C   UNL     1      -0.063  18.249  17.035  0.00  0.00    +0.000 C 
ATOM     14  C   UNL     1       1.100  16.369  18.216  0.00  0.00    +0.000 A 
ATOM     15  C   UNL     1       1.166  15.369  19.198  0.00  0.00    +0.000 A 
ATOM     16  C   UNL     1       2.419  14.528  19.253  0.00  0.00    +0.000 C 
ATOM     17  C   UNL     1       0.099  15.232  20.122  0.00  0.00    +0.000 A 
BRANCH  10  19
ATOM     18  C   UNL     1      -1.905  16.934  22.420  0.00  0.00    +0.000 C 
ATOM     19  C   UNL     1      -2.053  16.144  21.137  0.00  0.00    +0.000 C 
ATOM     20  O   UNL     1      -3.061  15.471  20.920  0.00  0.00    +0.000 OA
ENDBRANCH  10  19
ENDBRANCH   6  17
ENDBRANCH   1   7
BRANCH   5  21
ATOM     21  S   UNL     1      -2.494  12.485  23.127  0.00  0.00    +0.000 S 
ATOM     22  O   UNL     1      -3.280  11.635  23.993  0.00  0.00    +0.000 OA
ATOM     23  O   UNL     1      -1.837  13.693  23.578  0.00  0.00    +0.000 OA
BRANCH  21  24
ATOM     24  N   UNL     1      -3.567  12.888  21.868  0.00  0.00    +0.000 N 
ATOM     25  H   UNL     1      -3.409  12.143  21.184  0.00  0.00    +0.000 HD
BRANCH  24  26
ATOM     26  C   UNL     1      -4.929  12.920  22.299  0.00  0.00    +0.000 A 
ATOM     27  O   UNL     1      -5.848  11.968  21.983  0.00  0.00    +0.000 OA
ATOM     28  N   UNL     1      -7.037  12.228  22.646  0.00  0.00    +0.000 NA
ATOM     29  C   UNL     1      -6.829  13.358  23.337  0.00  0.00    +0.000 A 
ATOM     30  C   UNL     1      -7.916  13.943  24.157  0.00  0.00    +0.000 C 
ATOM     31  C   UNL     1      -5.508  13.832  23.151  0.00  0.00    +0.000 A 
ATOM     32 CL   UNL     1      -4.828  15.231  23.827  0.00  0.00    +0.000 Cl
ENDBRANCH  24  26
ENDBRANCH  21  24
ENDBRANCH   5  21
TORSDOF 6
ENDMDL
MODEL 2
REMARK VINA RESULT:      -5.8      3.685      6.751
REMARK  Name = 
REMARK  10 active torsions:
REMARK  status: ('A' for Active; 'I' for Inactive)
REMARK    1  A    between atoms: C_1  and  C_2
REMARK    2  A    between atoms: C_2  and  C_4
REMARK    3  A    between atoms: C_6  and  C_7
REMARK    4  A    between atoms: C_9  and  C_10
REMARK    5  A    between atoms: C_11  and  N_12
REMARK    6  A    between atoms: C_13  and  C_15
REMARK    7  A    between atoms: C_19  and  S_20
REMARK    8  A    between atoms: S_20  and  N_23
REMARK    9  A    between atoms: N_23  and  C_24
REMARK   10  A    between atoms: C_27  and  C_28
REMARK                            x       y       z     vdW  Elec       q    Type
REMARK                         _______ _______ _______ _____ _____    ______ ____
ROOT
ATOM      1  C   UNL     1       0.946  11.696  18.723  0.00  0.00    +0.000 A 
ATOM      2  S   UNL     1       2.326  12.630  18.319  0.00  0.00    +0.000 S 
ATOM      3  C   UNL     1       1.497  14.105  18.574  0.00  0.00    +0.000 A 
ATOM      4  C   UNL     1       0.190  13.908  18.955  0.00  0.00    +0.000 A 
ATOM      5  C   UNL     1      -0.130  12.521  19.039  0.00  0.00    +0.000 A 
ENDROOT
BRANCH   1   7
ATOM      6  N   UNL     1       1.924   9.601  19.526  0.00  0.00    +0.000 N 
ATOM      7  C   UNL     1       0.971  10.235  18.726  0.00  0.00    +0.000 C 
ATOM      8  O   UNL     1       0.185   9.579  18.044  0.00  0.00    +0.000 OA
ATOM      9  H   UNL     1       2.854  10.014  19.437  0.00  0.00    +0.000 HD
BRANCH   6  17
ATOM     10  C   UNL     1       1.206   7.564  20.726  0.00  0.00    +0.000 A 
ATOM     11  C   UNL     1       1.345   6.178  20.921  0.00  0.00    +0.000 A 
ATOM     12  C   UNL     1       2.098   5.394  20.046  0.00  0.00    +0.000 A 
ATOM     13  C   UNL     1       2.297   3.930  20.298  0.00  0.00    +0.000 C 
ATOM     14  C   UNL     1       2.678   5.994  18.928  0.00  0.00    +0.000 A 
ATOM     15  C   UNL     1       2.574   7.375  18.705  0.00  0.00    +0.000 A 
ATOM     16  C   UNL     1       3.155   7.920  17.422  0.00  0.00    +0.000 C 
ATOM     17  C   UNL     1       1.886   8.180  19.648  0.00  0.00    +0.000 A 
BRANCH  10  19
ATOM     18  C   UNL     1       1.072   9.323  22.636  0.00  0.00    +0.000 C 
ATOM     19  C   UNL     1       0.382   8.355  21.698  0.00  0.00    +0.000 C 
ATOM     20  O   UNL     1      -0.841   8.208  21.727  0.00  0.00    +0.000 OA
ENDBRANCH  10  19
ENDBRANCH   6  17
ENDBRANCH   1   7
BRANCH   5  21
ATOM     21  S   UNL     1      -1.688  11.926  19.519  0.00  0.00    +0.000 S 
ATOM     22  O   UNL     1      -2.216  11.287  18.334  0.00  0.00    +0.000 OA
ATOM     23  O   UNL     1      -1.446  11.226  20.761  0.00  0.00    +0.000 OA
BRANCH  21  24
ATOM     24  N   UNL     1      -2.779  13.200  19.816  0.00  0.00    +0.000 N 
ATOM     25  H   UNL     1      -2.947  13.580  18.880  0.00  0.00    +0.000 HD
BRANCH  24  26
ATOM     26  C   UNL     1      -3.992  12.752  20.422  0.00  0.00    +0.000 A 
ATOM     27  O   UNL     1      -4.183  12.668  21.767  0.00  0.00    +0.000 OA
ATOM     28  N   UNL     1      -5.495  12.311  22.031  0.00  0.00    +0.000 NA
ATOM     29  C   UNL     1      -6.078  12.154  20.834  0.00  0.00    +0.000 A 
ATOM     30  C   UNL     1      -7.501  11.748  20.743  0.00  0.00    +0.000 C 
ATOM     31  C   UNL     1      -5.166  12.425  19.785  0.00  0.00    +0.000 A 
ATOM     32 CL   UNL     1      -5.480  12.336  18.121  0.00  0.00    +0.000 Cl
ENDBRANCH  24  26
ENDBRANCH  21  24
ENDBRANCH   5  21
TORSDOF 6
ENDMDL
MODEL 3
REMARK VINA RESULT:      -5.8      0.892      2.405
REMARK  Name = 
REMARK  10 active torsions:
REMARK  status: ('A' for Active; 'I' for Inactive)
REMARK    1  A    between atoms: C_1  and  C_2
REMARK    2  A    between atoms: C_2  and  C_4
REMARK    3  A    between atoms: C_6  and  C_7
REMARK    4  A    between atoms: C_9  and  C_10
REMARK    5  A    between atoms: C_11  and  N_12
REMARK    6  A    between atoms: C_13  and  C_15
REMARK    7  A    between atoms: C_19  and  S_20
REMARK    8  A    between atoms: S_20  and  N_23
REMARK    9  A    between atoms: N_23  and  C_24
REMARK   10  A    between atoms: C_27  and  C_28
REMARK                            x       y       z     vdW  Elec       q    Type
REMARK                         _______ _______ _______ _____ _____    ______ ____
ROOT
ATOM      1  C   UNL     1      -0.398  11.591  21.482  0.00  0.00    +0.000 A 
ATOM      2  S   UNL     1       0.717  10.304  21.285  0.00  0.00    +0.000 S 
ATOM      3  C   UNL     1       0.103   9.463  22.643  0.00  0.00    +0.000 A 
ATOM      4  C   UNL     1      -0.930  10.139  23.250  0.00  0.00    +0.000 A 
ATOM      5  C   UNL     1      -1.218  11.366  22.584  0.00  0.00    +0.000 A 
ENDROOT
BRANCH   1   7
ATOM      6  N   UNL     1       0.155  13.925  20.995  0.00  0.00    +0.000 N 
ATOM      7  C   UNL     1      -0.435  12.732  20.571  0.00  0.00    +0.000 C 
ATOM      8  O   UNL     1      -0.970  12.653  19.465  0.00  0.00    +0.000 OA
ATOM      9  H   UNL     1      -0.100  14.173  21.953  0.00  0.00    +0.000 HD
BRANCH   6  17
ATOM     10  C   UNL     1       1.407  15.194  19.284  0.00  0.00    +0.000 A 
ATOM     11  C   UNL     1       1.545  16.373  18.531  0.00  0.00    +0.000 A 
ATOM     12  C   UNL     1       0.542  17.345  18.514  0.00  0.00    +0.000 A 
ATOM     13  C   UNL     1       0.724  18.629  17.763  0.00  0.00    +0.000 C 
ATOM     14  C   UNL     1      -0.640  17.110  19.215  0.00  0.00    +0.000 A 
ATOM     15  C   UNL     1      -0.812  15.951  19.989  0.00  0.00    +0.000 A 
ATOM     16  C   UNL     1      -2.158  15.739  20.638  0.00  0.00    +0.000 C 
ATOM     17  C   UNL     1       0.248  15.013  20.077  0.00  0.00    +0.000 A 
BRANCH  10  19
ATOM     18  C   UNL     1       3.130  13.787  17.938  0.00  0.00    +0.000 C 
ATOM     19  C   UNL     1       2.517  14.185  19.263  0.00  0.00    +0.000 C 
ATOM     20  O   UNL     1       2.914  13.689  20.319  0.00  0.00    +0.000 OA
ENDBRANCH  10  19
ENDBRANCH   6  17
ENDBRANCH   1   7
BRANCH   5  21
ATOM     21  S   UNL     1      -2.483  12.448  23.077  0.00  0.00    +0.000 S 
ATOM     22  O   UNL     1      -3.303  11.665  23.976  0.00  0.00    +0.000 OA
ATOM     23  O   UNL     1      -1.797  13.658  23.474  0.00  0.00    +0.000 OA
BRANCH  21  24
ATOM     24  N   UNL     1      -3.531  12.815  21.786  0.00  0.00    +0.000 N 
ATOM     25  H   UNL     1      -3.364  12.047  21.130  0.00  0.00    +0.000 HD
BRANCH  24  26
ATOM     26  C   UNL     1      -4.900  12.869  22.190  0.00  0.00    +0.000 A 
ATOM     27  O   UNL     1      -5.817  11.908  21.895  0.00  0.00    +0.000 OA
ATOM     28  N   UNL     1      -7.017  12.199  22.525  0.00  0.00    +0.000 NA
ATOM     29  C   UNL     1      -6.816  13.355  23.174  0.00  0.00    +0.000 A 
ATOM     30  C   UNL     1      -7.916  13.975  23.950  0.00  0.00    +0.000 C 
ATOM     31  C   UNL     1      -5.490  13.816  22.994  0.00  0.00    +0.000 A 
ATOM     32 CL   UNL     1      -4.818  15.238  23.627  0.00  0.00    +0.000 Cl
ENDBRANCH  24  26
ENDBRANCH  21  24
ENDBRANCH   5  21
TORSDOF 6
ENDMDL
MODEL 4
REMARK VINA RESULT:      -5.8      7.791     10.752
REMARK  Name = 
REMARK  10 active torsions:
REMARK  status: ('A' for Active; 'I' for Inactive)
REMARK    1  A    between atoms: C_1  and  C_2
REMARK    2  A    between atoms: C_2  and  C_4
REMARK    3  A    between atoms: C_6  and  C_7
REMARK    4  A    between atoms: C_9  and  C_10
REMARK    5  A    between atoms: C_11  and  N_12
REMARK    6  A    between atoms: C_13  and  C_15
REMARK    7  A    between atoms: C_19  and  S_20
REMARK    8  A    between atoms: S_20  and  N_23
REMARK    9  A    between atoms: N_23  and  C_24
REMARK   10  A    between atoms: C_27  and  C_28
REMARK                            x       y       z     vdW  Elec       q    Type
REMARK                         _______ _______ _______ _____ _____    ______ ____
ROOT
ATOM      1  C   UNL     1       2.366   4.591  20.176  0.00  0.00    +0.000 A 
ATOM      2  S   UNL     1       1.925   4.048  21.741  0.00  0.00    +0.000 S 
ATOM      3  C   UNL     1       1.933   2.406  21.257  0.00  0.00    +0.000 A 
ATOM      4  C   UNL     1       2.260   2.258  19.928  0.00  0.00    +0.000 A 
ATOM      5  C   UNL     1       2.507   3.515  19.303  0.00  0.00    +0.000 A 
ENDROOT
BRANCH   1   7
ATOM      6  N   UNL     1       1.454   6.745  19.457  0.00  0.00    +0.000 N 
ATOM      7  C   UNL     1       2.564   6.007  19.873  0.00  0.00    +0.000 C 
ATOM      8  O   UNL     1       3.670   6.536  19.974  0.00  0.00    +0.000 OA
ATOM      9  H   UNL     1       0.898   6.261  18.749  0.00  0.00    +0.000 HD
BRANCH   6  17
ATOM     10  C   UNL     1       1.023   9.059  20.210  0.00  0.00    +0.000 A 
ATOM     11  C   UNL     1       1.014  10.433  19.911  0.00  0.00    +0.000 A 
ATOM     12  C   UNL     1       1.595  10.925  18.740  0.00  0.00    +0.000 A 
ATOM     13  C   UNL     1       1.522  12.382  18.396  0.00  0.00    +0.000 C 
ATOM     14  C   UNL     1       2.244  10.037  17.882  0.00  0.00    +0.000 A 
ATOM     15  C   UNL     1       2.264   8.658  18.138  0.00  0.00    +0.000 A 
ATOM     16  C   UNL     1       3.068   7.787  17.203  0.00  0.00    +0.000 C 
ATOM     17  C   UNL     1       1.591   8.155  19.281  0.00  0.00    +0.000 A 
BRANCH  10  19
ATOM     18  C   UNL     1       0.813   9.206  22.797  0.00  0.00    +0.000 C 
ATOM     19  C   UNL     1       0.384   8.589  21.483  0.00  0.00    +0.000 C 
ATOM     20  O   UNL     1      -0.475   7.707  21.448  0.00  0.00    +0.000 OA
ENDBRANCH  10  19
ENDBRANCH   6  17
ENDBRANCH   1   7
BRANCH   5  21
ATOM     21  S   UNL     1       2.968   3.681  17.639  0.00  0.00    +0.000 S 
ATOM     22  O   UNL     1       2.268   2.615  16.957  0.00  0.00    +0.000 OA
ATOM     23  O   UNL     1       2.770   5.083  17.341  0.00  0.00    +0.000 OA
BRANCH  21  24
ATOM     24  N   UNL     1       4.612   3.303  17.405  0.00  0.00    +0.000 N 
ATOM     25  H   UNL     1       4.704   3.298  16.385  0.00  0.00    +0.000 HD
BRANCH  24  26
ATOM     26  C   UNL     1       5.485   4.263  18.002  0.00  0.00    +0.000 A 
ATOM     27  O   UNL     1       5.902   4.210  19.297  0.00  0.00    +0.000 OA
ATOM     28  N   UNL     1       6.826   5.214  19.532  0.00  0.00    +0.000 NA
ATOM     29  C   UNL     1       6.936   5.886  18.377  0.00  0.00    +0.000 A 
ATOM     30  C   UNL     1       7.841   7.055  18.276  0.00  0.00    +0.000 C 
ATOM     31  C   UNL     1       6.108   5.319  17.378  0.00  0.00    +0.000 A 
ATOM     32 CL   UNL     1       5.931   5.860  15.781  0.00  0.00    +0.000 Cl
ENDBRANCH  24  26
ENDBRANCH  21  24
ENDBRANCH   5  21
TORSDOF 6
ENDMDL
MODEL 5
REMARK VINA RESULT:      -5.7      3.364      6.510
REMARK  Name = 
REMARK  10 active torsions:
REMARK  status: ('A' for Active; 'I' for Inactive)
REMARK    1  A    between atoms: C_1  and  C_2
REMARK    2  A    between atoms: C_2  and  C_4
REMARK    3  A    between atoms: C_6  and  C_7
REMARK    4  A    between atoms: C_9  and  C_10
REMARK    5  A    between atoms: C_11  and  N_12
REMARK    6  A    between atoms: C_13  and  C_15
REMARK    7  A    between atoms: C_19  and  S_20
REMARK    8  A    between atoms: S_20  and  N_23
REMARK    9  A    between atoms: N_23  and  C_24
REMARK   10  A    between atoms: C_27  and  C_28
REMARK                            x       y       z     vdW  Elec       q    Type
REMARK                         _______ _______ _______ _____ _____    ______ ____
ROOT
ATOM      1  C   UNL     1       0.925  12.026  18.756  0.00  0.00    +0.000 A 
ATOM      2  S   UNL     1       2.318  12.892  18.258  0.00  0.00    +0.000 S 
ATOM      3  C   UNL     1       1.551  14.406  18.482  0.00  0.00    +0.000 A 
ATOM      4  C   UNL     1       0.255  14.271  18.923  0.00  0.00    +0.000 A 
ATOM      5  C   UNL     1      -0.109  12.901  19.079  0.00  0.00    +0.000 A 
ENDROOT
BRANCH   1   7
ATOM      6  N   UNL     1       1.948   9.925  19.483  0.00  0.00    +0.000 N 
ATOM      7  C   UNL     1       0.900  10.567  18.820  0.00  0.00    +0.000 C 
ATOM      8  O   UNL     1      -0.010   9.918  18.305  0.00  0.00    +0.000 OA
ATOM      9  H   UNL     1       2.865  10.296  19.226  0.00  0.00    +0.000 HD
BRANCH   6  17
ATOM     10  C   UNL     1       1.366   7.967  20.874  0.00  0.00    +0.000 A 
ATOM     11  C   UNL     1       1.487   6.586  21.106  0.00  0.00    +0.000 A 
ATOM     12  C   UNL     1       2.060   5.737  20.156  0.00  0.00    +0.000 A 
ATOM     13  C   UNL     1       2.247   4.277  20.439  0.00  0.00    +0.000 C 
ATOM     14  C   UNL     1       2.471   6.269  18.934  0.00  0.00    +0.000 A 
ATOM     15  C   UNL     1       2.379   7.644  18.669  0.00  0.00    +0.000 A 
ATOM     16  C   UNL     1       2.761   8.114  17.286  0.00  0.00    +0.000 C 
ATOM     17  C   UNL     1       1.882   8.512  19.674  0.00  0.00    +0.000 A 
BRANCH  10  19
ATOM     18  C   UNL     1      -0.720   8.628  22.278  0.00  0.00    +0.000 C 
ATOM     19  C   UNL     1       0.739   8.829  21.929  0.00  0.00    +0.000 C 
ATOM     20  O   UNL     1       1.413   9.691  22.496  0.00  0.00    +0.000 OA
ENDBRANCH  10  19
ENDBRANCH   6  17
ENDBRANCH   1   7
BRANCH   5  21
ATOM     21  S   UNL     1      -1.665  12.384  19.645  0.00  0.00    +0.000 S 
ATOM     22  O   UNL     1      -2.381  12.002  18.448  0.00  0.00    +0.000 OA
ATOM     23  O   UNL     1      -1.376  11.468  20.727  0.00  0.00    +0.000 OA
BRANCH  21  24
ATOM     24  N   UNL     1      -2.571  13.687  20.263  0.00  0.00    +0.000 N 
ATOM     25  H   UNL     1      -3.124  13.985  19.455  0.00  0.00    +0.000 HD
BRANCH  24  26
ATOM     26  C   UNL     1      -3.407  13.303  21.356  0.00  0.00    +0.000 A 
ATOM     27  O   UNL     1      -4.653  12.776  21.210  0.00  0.00    +0.000 OA
ATOM     28  N   UNL     1      -5.151  12.406  22.449  0.00  0.00    +0.000 NA
ATOM     29  C   UNL     1      -4.205  12.742  23.338  0.00  0.00    +0.000 A 
ATOM     30  C   UNL     1      -4.420  12.500  24.784  0.00  0.00    +0.000 C 
ATOM     31  C   UNL     1      -3.081  13.311  22.692  0.00  0.00    +0.000 A 
ATOM     32 CL   UNL     1      -1.669  13.885  23.436  0.00  0.00    +0.000 Cl
ENDBRANCH  24  26
ENDBRANCH  21  24
ENDBRANCH   5  21
TORSDOF 6
ENDMDL
MODEL 6
REMARK VINA RESULT:      -5.5      3.325      6.977
REMARK  Name = 
REMARK  10 active torsions:
REMARK  status: ('A' for Active; 'I' for Inactive)
REMARK    1  A    between atoms: C_1  and  C_2
REMARK    2  A    between atoms: C_2  and  C_4
REMARK    3  A    between atoms: C_6  and  C_7
REMARK    4  A    between atoms: C_9  and  C_10
REMARK    5  A    between atoms: C_11  and  N_12
REMARK    6  A    between atoms: C_13  and  C_15
REMARK    7  A    between atoms: C_19  and  S_20
REMARK    8  A    between atoms: S_20  and  N_23
REMARK    9  A    between atoms: N_23  and  C_24
REMARK   10  A    between atoms: C_27  and  C_28
REMARK                            x       y       z     vdW  Elec       q    Type
REMARK                         _______ _______ _______ _____ _____    ______ ____
ROOT
ATOM      1  C   UNL     1      -1.579  13.076  22.586  0.00  0.00    +0.000 A 
ATOM      2  S   UNL     1      -2.908  12.338  23.379  0.00  0.00    +0.000 S 
ATOM      3  C   UNL     1      -3.529  13.845  23.904  0.00  0.00    +0.000 A 
ATOM      4  C   UNL     1      -2.747  14.900  23.495  0.00  0.00    +0.000 A 
ATOM      5  C   UNL     1      -1.622  14.459  22.738  0.00  0.00    +0.000 A 
ENDROOT
BRANCH   1   7
ATOM      6  N   UNL     1      -1.012  11.152  21.184  0.00  0.00    +0.000 N 
ATOM      7  C   UNL     1      -0.581  12.296  21.858  0.00  0.00    +0.000 C 
ATOM      8  O   UNL     1       0.603  12.630  21.838  0.00  0.00    +0.000 OA
ATOM      9  H   UNL     1      -1.635  10.571  21.748  0.00  0.00    +0.000 HD
BRANCH   6  17
ATOM     10  C   UNL     1      -0.014  10.700  18.968  0.00  0.00    +0.000 A 
ATOM     11  C   UNL     1       0.772   9.863  18.158  0.00  0.00    +0.000 A 
ATOM     12  C   UNL     1       1.521   8.818  18.705  0.00  0.00    +0.000 A 
ATOM     13  C   UNL     1       2.303   7.888  17.828  0.00  0.00    +0.000 C 
ATOM     14  C   UNL     1       1.526   8.642  20.089  0.00  0.00    +0.000 A 
ATOM     15  C   UNL     1       0.745   9.448  20.930  0.00  0.00    +0.000 A 
ATOM     16  C   UNL     1       0.887   9.245  22.420  0.00  0.00    +0.000 C 
ATOM     17  C   UNL     1      -0.084  10.447  20.359  0.00  0.00    +0.000 A 
BRANCH  10  19
ATOM     18  C   UNL     1      -2.029  11.468  17.516  0.00  0.00    +0.000 C 
ATOM     19  C   UNL     1      -0.796  11.807  18.326  0.00  0.00    +0.000 C 
ATOM     20  O   UNL     1      -0.426  12.975  18.458  0.00  0.00    +0.000 OA
ENDBRANCH  10  19
ENDBRANCH   6  17
ENDBRANCH   1   7
BRANCH   5  21
ATOM     21  S   UNL     1      -0.450  15.538  22.050  0.00  0.00    +0.000 S 
ATOM     22  O   UNL     1      -1.143  16.801  21.928  0.00  0.00    +0.000 OA
ATOM     23  O   UNL     1       0.736  15.354  22.858  0.00  0.00    +0.000 OA
BRANCH  21  24
ATOM     24  N   UNL     1      -0.082  15.118  20.441  0.00  0.00    +0.000 N 
ATOM     25  H   UNL     1      -0.941  15.361  19.939  0.00  0.00    +0.000 HD
BRANCH  24  26
ATOM     26  C   UNL     1       1.042  15.837  19.931  0.00  0.00    +0.000 A 
ATOM     27  O   UNL     1       1.083  17.191  19.802  0.00  0.00    +0.000 OA
ATOM     28  N   UNL     1       2.347  17.582  19.389  0.00  0.00    +0.000 NA
ATOM     29  C   UNL     1       3.050  16.450  19.245  0.00  0.00    +0.000 A 
ATOM     30  C   UNL     1       4.459  16.500  18.789  0.00  0.00    +0.000 C 
ATOM     31  C   UNL     1       2.267  15.319  19.578  0.00  0.00    +0.000 A 
ATOM     32 CL   UNL     1       2.756  13.696  19.525  0.00  0.00    +0.000 Cl
ENDBRANCH  24  26
ENDBRANCH  21  24
ENDBRANCH   5  21
TORSDOF 6
ENDMDL
MODEL 7
REMARK VINA RESULT:      -5.5      2.819      5.794
REMARK  Name = 
REMARK  10 active torsions:
REMARK  status: ('A' for Active; 'I' for Inactive)
REMARK    1  A    between atoms: C_1  and  C_2
REMARK    2  A    between atoms: C_2  and  C_4
REMARK    3  A    between atoms: C_6  and  C_7
REMARK    4  A    between atoms: C_9  and  C_10
REMARK    5  A    between atoms: C_11  and  N_12
REMARK    6  A    between atoms: C_13  and  C_15
REMARK    7  A    between atoms: C_19  and  S_20
REMARK    8  A    between atoms: S_20  and  N_23
REMARK    9  A    between atoms: N_23  and  C_24
REMARK   10  A    between atoms: C_27  and  C_28
REMARK                            x       y       z     vdW  Elec       q    Type
REMARK                         _______ _______ _______ _____ _____    ______ ____
ROOT
ATOM      1  C   UNL     1       0.077  12.851  20.088  0.00  0.00    +0.000 A 
ATOM      2  S   UNL     1       0.917  13.979  19.108  0.00  0.00    +0.000 S 
ATOM      3  C   UNL     1       0.325  15.313  20.004  0.00  0.00    +0.000 A 
ATOM      4  C   UNL     1      -0.503  14.922  21.032  0.00  0.00    +0.000 A 
ATOM      5  C   UNL     1      -0.648  13.504  21.079  0.00  0.00    +0.000 A 
ENDROOT
BRANCH   1   7
ATOM      6  N   UNL     1       1.385  10.782  20.134  0.00  0.00    +0.000 N 
ATOM      7  C   UNL     1       0.167  11.410  19.862  0.00  0.00    +0.000 C 
ATOM      8  O   UNL     1      -0.793  10.765  19.443  0.00  0.00    +0.000 OA
ATOM      9  H   UNL     1       2.187  11.294  19.759  0.00  0.00    +0.000 HD
BRANCH   6  17
ATOM     10  C   UNL     1       1.196   8.550  21.177  0.00  0.00    +0.000 A 
ATOM     11  C   UNL     1       1.461   7.171  21.110  0.00  0.00    +0.000 A 
ATOM     12  C   UNL     1       1.935   6.580  19.937  0.00  0.00    +0.000 A 
ATOM     13  C   UNL     1       2.280   5.122  19.892  0.00  0.00    +0.000 C 
ATOM     14  C   UNL     1       2.095   7.369  18.798  0.00  0.00    +0.000 A 
ATOM     15  C   UNL     1       1.853   8.750  18.828  0.00  0.00    +0.000 A 
ATOM     16  C   UNL     1       1.963   9.506  17.525  0.00  0.00    +0.000 C 
ATOM     17  C   UNL     1       1.462   9.360  20.047  0.00  0.00    +0.000 A 
BRANCH  10  19
ATOM     18  C   UNL     1      -0.789   9.027  22.788  0.00  0.00    +0.000 C 
ATOM     19  C   UNL     1       0.687   9.130  22.463  0.00  0.00    +0.000 C 
ATOM     20  O   UNL     1       1.468   9.685  23.237  0.00  0.00    +0.000 OA
ENDBRANCH  10  19
ENDBRANCH   6  17
ENDBRANCH   1   7
BRANCH   5  21
ATOM     21  S   UNL     1      -1.603  12.681  22.272  0.00  0.00    +0.000 S 
ATOM     22  O   UNL     1      -2.593  11.953  21.509  0.00  0.00    +0.000 OA
ATOM     23  O   UNL     1      -0.637  12.043  23.139  0.00  0.00    +0.000 OA
BRANCH  21  24
ATOM     24  N   UNL     1      -2.526  13.774  23.197  0.00  0.00    +0.000 N 
ATOM     25  H   UNL     1      -2.618  14.581  22.574  0.00  0.00    +0.000 HD
BRANCH  24  26
ATOM     26  C   UNL     1      -3.803  13.244  23.557  0.00  0.00    +0.000 A 
ATOM     27  O   UNL     1      -3.976  12.133  24.323  0.00  0.00    +0.000 OA
ATOM     28  N   UNL     1      -5.324  11.951  24.584  0.00  0.00    +0.000 NA
ATOM     29  C   UNL     1      -5.957  12.946  23.945  0.00  0.00    +0.000 A 
ATOM     30  C   UNL     1      -7.434  13.046  23.997  0.00  0.00    +0.000 C 
ATOM     31  C   UNL     1      -5.035  13.791  23.283  0.00  0.00    +0.000 A 
ATOM     32 CL   UNL     1      -5.403  15.158  22.348  0.00  0.00    +0.000 Cl
ENDBRANCH  24  26
ENDBRANCH  21  24
ENDBRANCH   5  21
TORSDOF 6
ENDMDL
MODEL 8
REMARK VINA RESULT:      -5.5      5.160      8.385
REMARK  Name = 
REMARK  10 active torsions:
REMARK  status: ('A' for Active; 'I' for Inactive)
REMARK    1  A    between atoms: C_1  and  C_2
REMARK    2  A    between atoms: C_2  and  C_4
REMARK    3  A    between atoms: C_6  and  C_7
REMARK    4  A    between atoms: C_9  and  C_10
REMARK    5  A    between atoms: C_11  and  N_12
REMARK    6  A    between atoms: C_13  and  C_15
REMARK    7  A    between atoms: C_19  and  S_20
REMARK    8  A    between atoms: S_20  and  N_23
REMARK    9  A    between atoms: N_23  and  C_24
REMARK   10  A    between atoms: C_27  and  C_28
REMARK                            x       y       z     vdW  Elec       q    Type
REMARK                         _______ _______ _______ _____ _____    ______ ____
ROOT
ATOM      1  C   UNL     1       0.335  12.382  18.973  0.00  0.00    +0.000 A 
ATOM      2  S   UNL     1       0.861  14.006  18.814  0.00  0.00    +0.000 S 
ATOM      3  C   UNL     1       2.396  13.532  18.224  0.00  0.00    +0.000 A 
ATOM      4  C   UNL     1       2.524  12.164  18.147  0.00  0.00    +0.000 A 
ATOM      5  C   UNL     1       1.339  11.500  18.581  0.00  0.00    +0.000 A 
ENDROOT
BRANCH   1   7
ATOM      6  N   UNL     1      -2.093  12.649  18.821  0.00  0.00    +0.000 N 
ATOM      7  C   UNL     1      -1.003  12.042  19.449  0.00  0.00    +0.000 C 
ATOM      8  O   UNL     1      -1.172  11.251  20.377  0.00  0.00    +0.000 OA
ATOM      9  H   UNL     1      -1.962  13.654  18.685  0.00  0.00    +0.000 HD
BRANCH   6  17
ATOM     10  C   UNL     1      -4.102  11.271  18.409  0.00  0.00    +0.000 A 
ATOM     11  C   UNL     1      -5.461  11.027  18.675  0.00  0.00    +0.000 A 
ATOM     12  C   UNL     1      -6.127  11.683  19.712  0.00  0.00    +0.000 A 
ATOM     13  C   UNL     1      -7.592  11.468  19.947  0.00  0.00    +0.000 C 
ATOM     14  C   UNL     1      -5.411  12.556  20.530  0.00  0.00    +0.000 A 
ATOM     15  C   UNL     1      -4.058  12.837  20.290  0.00  0.00    +0.000 A 
ATOM     16  C   UNL     1      -3.342  13.722  21.282  0.00  0.00    +0.000 C 
ATOM     17  C   UNL     1      -3.412  12.238  19.179  0.00  0.00    +0.000 A 
BRANCH  10  19
ATOM     18  C   UNL     1      -3.378  11.178  15.914  0.00  0.00    +0.000 C 
ATOM     19  C   UNL     1      -3.439  10.535  17.283  0.00  0.00    +0.000 C 
ATOM     20  O   UNL     1      -2.956   9.418  17.481  0.00  0.00    +0.000 OA
ENDBRANCH  10  19
ENDBRANCH   6  17
ENDBRANCH   1   7
BRANCH   5  21
ATOM     21  S   UNL     1       1.157   9.774  18.585  0.00  0.00    +0.000 S 
ATOM     22  O   UNL     1       1.217   9.404  19.982  0.00  0.00    +0.000 OA
ATOM     23  O   UNL     1       0.008   9.524  17.743  0.00  0.00    +0.000 OA
BRANCH  21  24
ATOM     24  N   UNL     1       2.512   9.001  17.900  0.00  0.00    +0.000 N 
ATOM     25  H   UNL     1       3.287   9.611  18.176  0.00  0.00    +0.000 HD
BRANCH  24  26
ATOM     26  C   UNL     1       2.691   7.673  18.393  0.00  0.00    +0.000 A 
ATOM     27  O   UNL     1       1.982   7.143  19.427  0.00  0.00    +0.000 OA
ATOM     28  N   UNL     1       2.311   5.806  19.583  0.00  0.00    +0.000 NA
ATOM     29  C   UNL     1       3.243   5.550  18.653  0.00  0.00    +0.000 A 
ATOM     30  C   UNL     1       3.840   4.197  18.549  0.00  0.00    +0.000 C 
ATOM     31  C   UNL     1       3.515   6.700  17.875  0.00  0.00    +0.000 A 
ATOM     32 CL   UNL     1       4.630   6.823  16.604  0.00  0.00    +0.000 Cl
ENDBRANCH  24  26
ENDBRANCH  21  24
ENDBRANCH   5  21
TORSDOF 6
ENDMDL
MODEL 9
REMARK VINA RESULT:      -5.4      6.424      9.105
REMARK  Name = 
REMARK  10 active torsions:
REMARK  status: ('A' for Active; 'I' for Inactive)
REMARK    1  A    between atoms: C_1  and  C_2
REMARK    2  A    between atoms: C_2  and  C_4
REMARK    3  A    between atoms: C_6  and  C_7
REMARK    4  A    between atoms: C_9  and  C_10
REMARK    5  A    between atoms: C_11  and  N_12
REMARK    6  A    between atoms: C_13  and  C_15
REMARK    7  A    between atoms: C_19  and  S_20
REMARK    8  A    between atoms: S_20  and  N_23
REMARK    9  A    between atoms: N_23  and  C_24
REMARK   10  A    between atoms: C_27  and  C_28
REMARK                            x       y       z     vdW  Elec       q    Type
REMARK                         _______ _______ _______ _____ _____    ______ ____
ROOT
ATOM      1  C   UNL     1       1.625   8.238  19.842  0.00  0.00    +0.000 A 
ATOM      2  S   UNL     1       1.520   7.470  21.371  0.00  0.00    +0.000 S 
ATOM      3  C   UNL     1       0.686   8.795  22.063  0.00  0.00    +0.000 A 
ATOM      4  C   UNL     1       0.487   9.814  21.160  0.00  0.00    +0.000 A 
ATOM      5  C   UNL     1       1.030   9.495  19.880  0.00  0.00    +0.000 A 
ENDROOT
BRANCH   1   7
ATOM      6  N   UNL     1       3.358   6.768  18.932  0.00  0.00    +0.000 N 
ATOM      7  C   UNL     1       2.257   7.594  18.692  0.00  0.00    +0.000 C 
ATOM      8  O   UNL     1       1.842   7.773  17.548  0.00  0.00    +0.000 OA
ATOM      9  H   UNL     1       4.033   7.184  19.575  0.00  0.00    +0.000 HD
BRANCH   6  17
ATOM     10  C   UNL     1       3.373   4.769  17.477  0.00  0.00    +0.000 A 
ATOM     11  C   UNL     1       4.054   3.983  16.532  0.00  0.00    +0.000 A 
ATOM     12  C   UNL     1       5.221   4.437  15.916  0.00  0.00    +0.000 A 
ATOM     13  C   UNL     1       5.978   3.565  14.959  0.00  0.00    +0.000 C 
ATOM     14  C   UNL     1       5.687   5.718  16.208  0.00  0.00    +0.000 A 
ATOM     15  C   UNL     1       5.044   6.529  17.155  0.00  0.00    +0.000 A 
ATOM     16  C   UNL     1       5.564   7.935  17.338  0.00  0.00    +0.000 C 
ATOM     17  C   UNL     1       3.912   6.025  17.846  0.00  0.00    +0.000 A 
BRANCH  10  19
ATOM     18  C   UNL     1       2.197   3.600  19.480  0.00  0.00    +0.000 C 
ATOM     19  C   UNL     1       2.122   4.230  18.106  0.00  0.00    +0.000 C 
ATOM     20  O   UNL     1       1.052   4.301  17.499  0.00  0.00    +0.000 OA
ENDBRANCH  10  19
ENDBRANCH   6  17
ENDBRANCH   1   7
BRANCH   5  21
ATOM     21  S   UNL     1       0.927  10.553  18.508  0.00  0.00    +0.000 S 
ATOM     22  O   UNL     1       0.354  11.774  19.030  0.00  0.00    +0.000 OA
ATOM     23  O   UNL     1       2.235  10.485  17.894  0.00  0.00    +0.000 OA
BRANCH  21  24
ATOM     24  N   UNL     1      -0.231  10.008  17.384  0.00  0.00    +0.000 N 
ATOM     25  H   UNL     1      -0.213   8.992  17.512  0.00  0.00    +0.000 HD
BRANCH  24  26
ATOM     26  C   UNL     1      -1.531  10.543  17.635  0.00  0.00    +0.000 A 
ATOM     27  O   UNL     1      -1.907  11.106  18.816  0.00  0.00    +0.000 OA
ATOM     28  N   UNL     1      -3.184  11.629  18.699  0.00  0.00    +0.000 NA
ATOM     29  C   UNL     1      -3.580  11.348  17.449  0.00  0.00    +0.000 A 
ATOM     30  C   UNL     1      -4.927  11.753  16.984  0.00  0.00    +0.000 C 
ATOM     31  C   UNL     1      -2.566  10.664  16.737  0.00  0.00    +0.000 A 
ATOM     32 CL   UNL     1      -2.649  10.112  15.135  0.00  0.00    +0.000 Cl
ENDBRANCH  24  26
ENDBRANCH  21  24
ENDBRANCH   5  21
TORSDOF 6
ENDMDL
