MODEL 1
REMARK VINA RESULT:      -7.0      0.000      0.000
REMARK  Name = 
REMARK  4 active torsions:
REMARK  status: ('A' for Active; 'I' for Inactive)
REMARK    1  A    between atoms: C_1  and  O_2
REMARK    2  A    between atoms: O_2  and  C_3
REMARK    3  A    between atoms: C_3  and  C_4
REMARK    4  A    between atoms: C_9  and  C_10
REMARK                            x       y       z     vdW  Elec       q    Type
REMARK                         _______ _______ _______ _____ _____    ______ ____
ROOT
ATOM      1  C   UNL     1       5.856   5.715  16.773  0.00  0.00    +0.000 A 
ATOM      2  C   UNL     1       7.157   6.143  17.115  0.00  0.00    +0.000 A 
ATOM      3  C   UNL     1       7.635   6.061  18.422  0.00  0.00    +0.000 A 
ATOM      4  C   UNL     1       6.819   5.554  19.419  0.00  0.00    +0.000 A 
ATOM      5  C   UNL     1       5.523   5.141  19.110  0.00  0.00    +0.000 A 
ATOM      6  C   UNL     1       5.009   5.218  17.793  0.00  0.00    +0.000 A 
ENDROOT
BRANCH   6   7
ATOM      7  C   UNL     1       3.561   4.779  17.612  0.00  0.00    +0.000 C 
ATOM      8  C   UNL     1       2.514   5.536  18.492  0.00  0.00    +0.000 C 
ATOM      9  C   UNL     1       1.904   4.442  19.275  0.00  0.00    +0.000 A 
ATOM     10  N   UNL     1       1.123   4.358  20.321  0.00  0.00    +0.000 NA
ATOM     11  C   UNL     1       1.096   3.006  20.609  0.00  0.00    +0.000 A 
ATOM     12  C   UNL     1       1.879   2.281  19.727  0.00  0.00    +0.000 A 
ATOM     13  N   UNL     1       2.360   3.221  18.895  0.00  0.00    +0.000 N 
ATOM     14  C   UNL     1       3.335   3.258  17.828  0.00  0.00    +0.000 C 
ENDBRANCH   6   7
BRANCH   1  15
ATOM     15  C   UNL     1       5.473   5.861  15.317  0.00  0.00    +0.000 C 
BRANCH  15  17
ATOM     16  C   UNL     1       6.329   4.072  14.061  0.00  0.00    +0.000 C 
ATOM     17  O   UNL     1       6.549   5.406  14.503  0.00  0.00    +0.000 OA
ENDBRANCH  15  17
ENDBRANCH   1  15
TORSDOF 3
ENDMDL
MODEL 2
REMARK VINA RESULT:      -6.9      1.733      2.055
REMARK  Name = 
REMARK  4 active torsions:
REMARK  status: ('A' for Active; 'I' for Inactive)
REMARK    1  A    between atoms: C_1  and  O_2
REMARK    2  A    between atoms: O_2  and  C_3
REMARK    3  A    between atoms: C_3  and  C_4
REMARK    4  A    between atoms: C_9  and  C_10
REMARK                            x       y       z     vdW  Elec       q    Type
REMARK                         _______ _______ _______ _____ _____    ______ ____
ROOT
ATOM      1  C   UNL     1       5.138   4.686  16.151  0.00  0.00    +0.000 A 
ATOM      2  C   UNL     1       5.450   5.987  15.696  0.00  0.00    +0.000 A 
ATOM      3  C   UNL     1       4.930   7.123  16.315  0.00  0.00    +0.000 A 
ATOM      4  C   UNL     1       4.082   6.984  17.401  0.00  0.00    +0.000 A 
ATOM      5  C   UNL     1       3.746   5.710  17.858  0.00  0.00    +0.000 A 
ATOM      6  C   UNL     1       4.253   4.538  17.245  0.00  0.00    +0.000 A 
ENDROOT
BRANCH   6   7
ATOM      7  C   UNL     1       3.760   3.215  17.818  0.00  0.00    +0.000 C 
ATOM      8  C   UNL     1       2.209   3.023  17.828  0.00  0.00    +0.000 C 
ATOM      9  C   UNL     1       1.919   2.829  19.263  0.00  0.00    +0.000 A 
ATOM     10  N   UNL     1       0.846   2.813  20.011  0.00  0.00    +0.000 NA
ATOM     11  C   UNL     1       1.341   2.748  21.301  0.00  0.00    +0.000 A 
ATOM     12  C   UNL     1       2.725   2.736  21.317  0.00  0.00    +0.000 A 
ATOM     13  N   UNL     1       3.050   2.774  20.013  0.00  0.00    +0.000 N 
ATOM     14  C   UNL     1       4.272   2.924  19.255  0.00  0.00    +0.000 C 
ENDBRANCH   6   7
BRANCH   1  15
ATOM     15  C   UNL     1       5.775   3.548  15.384  0.00  0.00    +0.000 C 
BRANCH  15  17
ATOM     16  C   UNL     1       6.173   3.580  13.070  0.00  0.00    +0.000 C 
ATOM     17  O   UNL     1       6.580   4.082  14.338  0.00  0.00    +0.000 OA
ENDBRANCH  15  17
ENDBRANCH   1  15
TORSDOF 3
ENDMDL
MODEL 3
REMARK VINA RESULT:      -6.8      3.140      5.796
REMARK  Name = 
REMARK  4 active torsions:
REMARK  status: ('A' for Active; 'I' for Inactive)
REMARK    1  A    between atoms: C_1  and  O_2
REMARK    2  A    between atoms: O_2  and  C_3
REMARK    3  A    between atoms: C_3  and  C_4
REMARK    4  A    between atoms: C_9  and  C_10
REMARK                            x       y       z     vdW  Elec       q    Type
REMARK                         _______ _______ _______ _____ _____    ______ ____
ROOT
ATOM      1  C   UNL     1       3.320   5.476  19.183  0.00  0.00    +0.000 A 
ATOM      2  C   UNL     1       2.367   6.462  19.521  0.00  0.00    +0.000 A 
ATOM      3  C   UNL     1       2.271   7.660  18.816  0.00  0.00    +0.000 A 
ATOM      4  C   UNL     1       3.130   7.902  17.758  0.00  0.00    +0.000 A 
ATOM      5  C   UNL     1       4.092   6.952  17.414  0.00  0.00    +0.000 A 
ATOM      6  C   UNL     1       4.217   5.729  18.117  0.00  0.00    +0.000 A 
ENDROOT
BRANCH   6   7
ATOM      7  C   UNL     1       5.344   4.809  17.665  0.00  0.00    +0.000 C 
ATOM      8  C   UNL     1       6.675   5.523  17.263  0.00  0.00    +0.000 C 
ATOM      9  C   UNL     1       6.852   5.103  15.859  0.00  0.00    +0.000 A 
ATOM     10  N   UNL     1       7.615   5.464  14.859  0.00  0.00    +0.000 NA
ATOM     11  C   UNL     1       7.115   4.750  13.785  0.00  0.00    +0.000 A 
ATOM     12  C   UNL     1       6.038   3.963  14.152  0.00  0.00    +0.000 A 
ATOM     13  N   UNL     1       5.912   4.203  15.469  0.00  0.00    +0.000 N 
ATOM     14  C   UNL     1       4.953   3.866  16.496  0.00  0.00    +0.000 C 
ENDBRANCH   6   7
BRANCH   1  15
ATOM     15  C   UNL     1       3.309   4.226  20.035  0.00  0.00    +0.000 C 
BRANCH  15  17
ATOM     16  C   UNL     1       1.910   3.146  21.580  0.00  0.00    +0.000 C 
ATOM     17  O   UNL     1       2.388   4.399  21.107  0.00  0.00    +0.000 OA
ENDBRANCH  15  17
ENDBRANCH   1  15
TORSDOF 3
ENDMDL
MODEL 4
REMARK VINA RESULT:      -6.8      0.964      1.022
REMARK  Name = 
REMARK  4 active torsions:
REMARK  status: ('A' for Active; 'I' for Inactive)
REMARK    1  A    between atoms: C_1  and  O_2
REMARK    2  A    between atoms: O_2  and  C_3
REMARK    3  A    between atoms: C_3  and  C_4
REMARK    4  A    between atoms: C_9  and  C_10
REMARK                            x       y       z     vdW  Elec       q    Type
REMARK                         _______ _______ _______ _____ _____    ______ ____
ROOT
ATOM      1  C   UNL     1       5.859   4.834  16.548  0.00  0.00    +0.000 A 
ATOM      2  C   UNL     1       6.974   5.696  16.641  0.00  0.00    +0.000 A 
ATOM      3  C   UNL     1       7.482   6.107  17.873  0.00  0.00    +0.000 A 
ATOM      4  C   UNL     1       6.881   5.668  19.041  0.00  0.00    +0.000 A 
ATOM      5  C   UNL     1       5.768   4.831  18.976  0.00  0.00    +0.000 A 
ATOM      6  C   UNL     1       5.227   4.403  17.739  0.00  0.00    +0.000 A 
ENDROOT
BRANCH   6   7
ATOM      7  C   UNL     1       3.979   3.531  17.819  0.00  0.00    +0.000 C 
ATOM      8  C   UNL     1       2.624   4.304  17.903  0.00  0.00    +0.000 C 
ATOM      9  C   UNL     1       2.061   3.826  19.181  0.00  0.00    +0.000 A 
ATOM     10  N   UNL     1       1.077   4.183  19.967  0.00  0.00    +0.000 NA
ATOM     11  C   UNL     1       1.240   3.386  21.086  0.00  0.00    +0.000 A 
ATOM     12  C   UNL     1       2.340   2.554  20.965  0.00  0.00    +0.000 A 
ATOM     13  N   UNL     1       2.822   2.853  19.746  0.00  0.00    +0.000 N 
ATOM     14  C   UNL     1       4.002   2.509  18.987  0.00  0.00    +0.000 C 
ENDBRANCH   6   7
BRANCH   1  15
ATOM     15  C   UNL     1       5.419   4.472  15.147  0.00  0.00    +0.000 C 
BRANCH  15  17
ATOM     16  C   UNL     1       6.186   3.677  13.076  0.00  0.00    +0.000 C 
ATOM     17  O   UNL     1       6.530   3.943  14.430  0.00  0.00    +0.000 OA
ENDBRANCH  15  17
ENDBRANCH   1  15
TORSDOF 3
ENDMDL
MODEL 5
REMARK VINA RESULT:      -6.7      1.512      2.332
REMARK  Name = 
REMARK  4 active torsions:
REMARK  status: ('A' for Active; 'I' for Inactive)
REMARK    1  A    between atoms: C_1  and  O_2
REMARK    2  A    between atoms: O_2  and  C_3
REMARK    3  A    between atoms: C_3  and  C_4
REMARK    4  A    between atoms: C_9  and  C_10
REMARK                            x       y       z     vdW  Elec       q    Type
REMARK                         _______ _______ _______ _____ _____    ______ ____
ROOT
ATOM      1  C   UNL     1       5.131   5.150  16.574  0.00  0.00    +0.000 A 
ATOM      2  C   UNL     1       5.319   6.485  16.152  0.00  0.00    +0.000 A 
ATOM      3  C   UNL     1       4.522   7.524  16.631  0.00  0.00    +0.000 A 
ATOM      4  C   UNL     1       3.514   7.250  17.540  0.00  0.00    +0.000 A 
ATOM      5  C   UNL     1       3.297   5.937  17.959  0.00  0.00    +0.000 A 
ATOM      6  C   UNL     1       4.086   4.862  17.484  0.00  0.00    +0.000 A 
ENDROOT
BRANCH   6   7
ATOM      7  C   UNL     1       3.703   3.475  17.989  0.00  0.00    +0.000 C 
ATOM      8  C   UNL     1       2.172   3.165  18.003  0.00  0.00    +0.000 C 
ATOM      9  C   UNL     1       1.918   2.872  19.428  0.00  0.00    +0.000 A 
ATOM     10  N   UNL     1       0.860   2.734  20.186  0.00  0.00    +0.000 NA
ATOM     11  C   UNL     1       1.377   2.638  21.465  0.00  0.00    +0.000 A 
ATOM     12  C   UNL     1       2.758   2.730  21.465  0.00  0.00    +0.000 A 
ATOM     13  N   UNL     1       3.061   2.864  20.162  0.00  0.00    +0.000 N 
ATOM     14  C   UNL     1       4.256   3.147  19.401  0.00  0.00    +0.000 C 
ENDBRANCH   6   7
BRANCH   1  15
ATOM     15  C   UNL     1       6.070   4.129  15.971  0.00  0.00    +0.000 C 
BRANCH  15  17
ATOM     16  C   UNL     1       7.669   4.531  17.643  0.00  0.00    +0.000 C 
ATOM     17  O   UNL     1       7.414   4.512  16.243  0.00  0.00    +0.000 OA
ENDBRANCH  15  17
ENDBRANCH   1  15
TORSDOF 3
ENDMDL
MODEL 6
REMARK VINA RESULT:      -6.7      3.046      5.572
REMARK  Name = 
REMARK  4 active torsions:
REMARK  status: ('A' for Active; 'I' for Inactive)
REMARK    1  A    between atoms: C_1  and  O_2
REMARK    2  A    between atoms: O_2  and  C_3
REMARK    3  A    between atoms: C_3  and  C_4
REMARK    4  A    between atoms: C_9  and  C_10
REMARK                            x       y       z     vdW  Elec       q    Type
REMARK                         _______ _______ _______ _____ _____    ______ ____
ROOT
ATOM      1  C   UNL     1       2.595   5.813  19.796  0.00  0.00    +0.000 A 
ATOM      2  C   UNL     1       1.885   7.005  20.061  0.00  0.00    +0.000 A 
ATOM      3  C   UNL     1       1.961   8.107  19.211  0.00  0.00    +0.000 A 
ATOM      4  C   UNL     1       2.754   8.043  18.078  0.00  0.00    +0.000 A 
ATOM      5  C   UNL     1       3.479   6.884  17.803  0.00  0.00    +0.000 A 
ATOM      6  C   UNL     1       3.426   5.752  18.652  0.00  0.00    +0.000 A 
ENDROOT
BRANCH   6   7
ATOM      7  C   UNL     1       4.308   4.574  18.255  0.00  0.00    +0.000 C 
ATOM      8  C   UNL     1       5.847   4.817  18.378  0.00  0.00    +0.000 C 
ATOM      9  C   UNL     1       6.318   4.597  16.996  0.00  0.00    +0.000 A 
ATOM     10  N   UNL     1       7.424   4.818  16.333  0.00  0.00    +0.000 NA
ATOM     11  C   UNL     1       7.094   4.519  15.024  0.00  0.00    +0.000 A 
ATOM     12  C   UNL     1       5.772   4.124  14.909  0.00  0.00    +0.000 A 
ATOM     13  N   UNL     1       5.322   4.175  16.175  0.00  0.00    +0.000 N 
ATOM     14  C   UNL     1       4.037   4.041  16.822  0.00  0.00    +0.000 C 
ENDBRANCH   6   7
BRANCH   1  15
ATOM     15  C   UNL     1       2.417   4.700  20.805  0.00  0.00    +0.000 C 
BRANCH  15  17
ATOM     16  C   UNL     1       0.965   3.165  19.782  0.00  0.00    +0.000 C 
ATOM     17  O   UNL     1       1.080   4.215  20.735  0.00  0.00    +0.000 OA
ENDBRANCH  15  17
ENDBRANCH   1  15
TORSDOF 3
ENDMDL
MODEL 7
REMARK VINA RESULT:      -6.6      2.305      3.405
REMARK  Name = 
REMARK  4 active torsions:
REMARK  status: ('A' for Active; 'I' for Inactive)
REMARK    1  A    between atoms: C_1  and  O_2
REMARK    2  A    between atoms: O_2  and  C_3
REMARK    3  A    between atoms: C_3  and  C_4
REMARK    4  A    between atoms: C_9  and  C_10
REMARK                            x       y       z     vdW  Elec       q    Type
REMARK                         _______ _______ _______ _____ _____    ______ ____
ROOT
ATOM      1  C   UNL     1       3.789   5.506  17.411  0.00  0.00    +0.000 A 
ATOM      2  C   UNL     1       4.430   6.588  16.768  0.00  0.00    +0.000 A 
ATOM      3  C   UNL     1       5.524   6.395  15.926  0.00  0.00    +0.000 A 
ATOM      4  C   UNL     1       6.005   5.115  15.711  0.00  0.00    +0.000 A 
ATOM      5  C   UNL     1       5.400   4.032  16.348  0.00  0.00    +0.000 A 
ATOM      6  C   UNL     1       4.293   4.198  17.214  0.00  0.00    +0.000 A 
ENDROOT
BRANCH   6   7
ATOM      7  C   UNL     1       3.766   2.932  17.880  0.00  0.00    +0.000 C 
ATOM      8  C   UNL     1       2.212   2.770  17.881  0.00  0.00    +0.000 C 
ATOM      9  C   UNL     1       1.899   2.693  19.322  0.00  0.00    +0.000 A 
ATOM     10  N   UNL     1       0.816   2.755  20.053  0.00  0.00    +0.000 NA
ATOM     11  C   UNL     1       1.292   2.782  21.351  0.00  0.00    +0.000 A 
ATOM     12  C   UNL     1       2.675   2.745  21.389  0.00  0.00    +0.000 A 
ATOM     13  N   UNL     1       3.019   2.676  20.091  0.00  0.00    +0.000 N 
ATOM     14  C   UNL     1       4.253   2.744  19.342  0.00  0.00    +0.000 C 
ENDBRANCH   6   7
BRANCH   1  15
ATOM     15  C   UNL     1       2.615   5.865  18.296  0.00  0.00    +0.000 C 
BRANCH  15  17
ATOM     16  C   UNL     1       1.996   6.334  20.511  0.00  0.00    +0.000 C 
ATOM     17  O   UNL     1       3.079   6.080  19.624  0.00  0.00    +0.000 OA
ENDBRANCH  15  17
ENDBRANCH   1  15
TORSDOF 3
ENDMDL
MODEL 8
REMARK VINA RESULT:      -6.6      3.003      5.568
REMARK  Name = 
REMARK  4 active torsions:
REMARK  status: ('A' for Active; 'I' for Inactive)
REMARK    1  A    between atoms: C_1  and  O_2
REMARK    2  A    between atoms: O_2  and  C_3
REMARK    3  A    between atoms: C_3  and  C_4
REMARK    4  A    between atoms: C_9  and  C_10
REMARK                            x       y       z     vdW  Elec       q    Type
REMARK                         _______ _______ _______ _____ _____    ______ ____
ROOT
ATOM      1  C   UNL     1       2.809   4.498  20.024  0.00  0.00    +0.000 A 
ATOM      2  C   UNL     1       1.917   5.465  20.538  0.00  0.00    +0.000 A 
ATOM      3  C   UNL     1       1.873   6.763  20.031  0.00  0.00    +0.000 A 
ATOM      4  C   UNL     1       2.726   7.126  19.003  0.00  0.00    +0.000 A 
ATOM      5  C   UNL     1       3.629   6.194  18.490  0.00  0.00    +0.000 A 
ATOM      6  C   UNL     1       3.699   4.871  18.989  0.00  0.00    +0.000 A 
ENDROOT
BRANCH   6   7
ATOM      7  C   UNL     1       4.767   3.977  18.369  0.00  0.00    +0.000 C 
ATOM      8  C   UNL     1       6.208   4.582  18.326  0.00  0.00    +0.000 C 
ATOM      9  C   UNL     1       6.513   4.581  16.881  0.00  0.00    +0.000 A 
ATOM     10  N   UNL     1       7.429   5.113  16.114  0.00  0.00    +0.000 NA
ATOM     11  C   UNL     1       6.993   4.832  14.832  0.00  0.00    +0.000 A 
ATOM     12  C   UNL     1       5.799   4.133  14.840  0.00  0.00    +0.000 A 
ATOM     13  N   UNL     1       5.536   3.984  16.151  0.00  0.00    +0.000 N 
ATOM     14  C   UNL     1       4.425   3.494  16.934  0.00  0.00    +0.000 C 
ENDBRANCH   6   7
BRANCH   1  15
ATOM     15  C   UNL     1       2.745   3.131  20.669  0.00  0.00    +0.000 C 
BRANCH  15  17
ATOM     16  C   UNL     1       1.387   2.108  19.050  0.00  0.00    +0.000 C 
ATOM     17  O   UNL     1       1.474   2.547  20.401  0.00  0.00    +0.000 OA
ENDBRANCH  15  17
ENDBRANCH   1  15
TORSDOF 3
ENDMDL
MODEL 9
REMARK VINA RESULT:      -6.6      1.715      3.049
REMARK  Name = 
REMARK  4 active torsions:
REMARK  status: ('A' for Active; 'I' for Inactive)
REMARK    1  A    between atoms: C_1  and  O_2
REMARK    2  A    between atoms: O_2  and  C_3
REMARK    3  A    between atoms: C_3  and  C_4
REMARK    4  A    between atoms: C_9  and  C_10
REMARK                            x       y       z     vdW  Elec       q    Type
REMARK                         _______ _______ _______ _____ _____    ______ ____
ROOT
ATOM      1  C   UNL     1       6.530   5.531  17.097  0.00  0.00    +0.000 A 
ATOM      2  C   UNL     1       6.846   5.479  15.721  0.00  0.00    +0.000 A 
ATOM      3  C   UNL     1       6.175   4.624  14.848  0.00  0.00    +0.000 A 
ATOM      4  C   UNL     1       5.175   3.798  15.332  0.00  0.00    +0.000 A 
ATOM      5  C   UNL     1       4.856   3.818  16.689  0.00  0.00    +0.000 A 
ATOM      6  C   UNL     1       5.525   4.671  17.601  0.00  0.00    +0.000 A 
ENDROOT
BRANCH   6   7
ATOM      7  C   UNL     1       5.108   4.550  19.062  0.00  0.00    +0.000 C 
ATOM      8  C   UNL     1       4.599   3.139  19.500  0.00  0.00    +0.000 C 
ATOM      9  C   UNL     1       3.228   3.425  19.969  0.00  0.00    +0.000 A 
ATOM     10  N   UNL     1       2.173   2.715  20.279  0.00  0.00    +0.000 NA
ATOM     11  C   UNL     1       1.181   3.659  20.471  0.00  0.00    +0.000 A 
ATOM     12  C   UNL     1       1.652   4.944  20.263  0.00  0.00    +0.000 A 
ATOM     13  N   UNL     1       2.949   4.754  19.961  0.00  0.00    +0.000 N 
ATOM     14  C   UNL     1       4.035   5.585  19.495  0.00  0.00    +0.000 C 
ENDBRANCH   6   7
BRANCH   1  15
ATOM     15  C   UNL     1       7.339   6.506  17.924  0.00  0.00    +0.000 C 
BRANCH  15  17
ATOM     16  C   UNL     1       8.135   8.714  17.944  0.00  0.00    +0.000 C 
ATOM     17  O   UNL     1       7.633   7.655  17.137  0.00  0.00    +0.000 OA
ENDBRANCH  15  17
ENDBRANCH   1  15
TORSDOF 3
ENDMDL
