MODEL 1
REMARK VINA RESULT:      -6.7      0.000      0.000
REMARK  Name = 
REMARK  9 active torsions:
REMARK  status: ('A' for Active; 'I' for Inactive)
REMARK    1  A    between atoms: C_1  and  O_2
REMARK    2  A    between atoms: O_2  and  P_3
REMARK    3  A    between atoms: P_3  and  C_6
REMARK    4  A    between atoms: C_6  and  C_7
REMARK    5  A    between atoms: C_6  and  O_8
REMARK    6  A    between atoms: O_8  and  C_9
REMARK    7  A    between atoms: C_9  and  C_11
REMARK    8  A    between atoms: C_11  and  O_12
REMARK    9  A    between atoms: O_12  and  C_13
REMARK                            x       y       z     vdW  Elec       q    Type
REMARK                         _______ _______ _______ _____ _____    ______ ____
ROOT
ATOM      1  C   UNL     1       7.315   4.738  17.877  0.00  0.00    +0.000 C 
ATOM      2  O   UNL     1       8.353   4.094  17.759  0.00  0.00    +0.000 OA
ENDROOT
BRANCH   1   3
ATOM      3  O   UNL     1       6.425   4.609  18.894  0.00  0.00    +0.000 OA
BRANCH   3   4
ATOM      4  C   UNL     1       5.013   4.651  18.589  0.00  0.00    +0.000 C 
ATOM      5  C   UNL     1       4.310   5.924  19.031  0.00  0.00    +0.000 C 
BRANCH   4   6
ATOM      6  P   UNL     1       4.193   3.066  19.043  0.00  0.00    +0.000 P 
ATOM      7  O   UNL     1       4.981   2.305  20.077  0.00  0.00    +0.000 OA
ATOM      8  O   UNL     1       3.864   2.345  17.740  0.00  0.00    +0.000 OA
BRANCH   6  10
ATOM      9  C   UNL     1       1.649   2.727  19.486  0.00  0.00    +0.000 C 
ATOM     10  O   UNL     1       2.773   3.568  19.639  0.00  0.00    +0.000 OA
ENDBRANCH   6  10
ENDBRANCH   4   6
ENDBRANCH   3   4
ENDBRANCH   1   3
BRANCH   1  11
ATOM     11  C   UNL     1       6.895   5.833  16.919  0.00  0.00    +0.000 C 
BRANCH  11  12
ATOM     12  O   UNL     1       7.549   5.702  15.650  0.00  0.00    +0.000 OA
BRANCH  12  13
ATOM     13  C   UNL     1       6.922   4.949  14.686  0.00  0.00    +0.000 A 
ATOM     14  C   UNL     1       5.771   4.184  14.909  0.00  0.00    +0.000 A 
ATOM     15  C   UNL     1       5.193   3.446  13.866  0.00  0.00    +0.000 A 
ATOM     16  C   UNL     1       5.754   3.472  12.595  0.00  0.00    +0.000 A 
ATOM     17 CL   UNL     1       5.027   2.576  11.324  0.00  0.00    +0.000 Cl
ATOM     18  C   UNL     1       6.902   4.222  12.352  0.00  0.00    +0.000 A 
ATOM     19  C   UNL     1       7.482   4.953  13.395  0.00  0.00    +0.000 A 
ATOM     20 CL   UNL     1       8.908   5.861  13.037  0.00  0.00    +0.000 Cl
ENDBRANCH  12  13
ENDBRANCH  11  12
ENDBRANCH   1  11
TORSDOF 7
ENDMDL
MODEL 2
REMARK VINA RESULT:      -6.5      2.181      3.775
REMARK  Name = 
REMARK  9 active torsions:
REMARK  status: ('A' for Active; 'I' for Inactive)
REMARK    1  A    between atoms: C_1  and  O_2
REMARK    2  A    between atoms: O_2  and  P_3
REMARK    3  A    between atoms: P_3  and  C_6
REMARK    4  A    between atoms: C_6  and  C_7
REMARK    5  A    between atoms: C_6  and  O_8
REMARK    6  A    between atoms: O_8  and  C_9
REMARK    7  A    between atoms: C_9  and  C_11
REMARK    8  A    between atoms: C_11  and  O_12
REMARK    9  A    between atoms: O_12  and  C_13
REMARK                            x       y       z     vdW  Elec       q    Type
REMARK                         _______ _______ _______ _____ _____    ______ ____
ROOT
ATOM      1  C   UNL     1       2.966   6.102  19.524  0.00  0.00    +0.000 C 
ATOM      2  O   UNL     1       2.310   6.999  20.046  0.00  0.00    +0.000 OA
ENDROOT
BRANCH   1   3
ATOM      3  O   UNL     1       2.959   4.801  19.910  0.00  0.00    +0.000 OA
BRANCH   3   4
ATOM      4  C   UNL     1       1.705   4.084  19.910  0.00  0.00    +0.000 C 
ATOM      5  C   UNL     1       1.468   3.228  21.144  0.00  0.00    +0.000 C 
BRANCH   4   6
ATOM      6  P   UNL     1       1.411   3.271  18.284  0.00  0.00    +0.000 P 
ATOM      7  O   UNL     1       0.993   4.264  17.231  0.00  0.00    +0.000 OA
ATOM      8  O   UNL     1       0.485   2.086  18.539  0.00  0.00    +0.000 OA
BRANCH   6  10
ATOM      9  C   UNL     1       3.276   1.496  18.675  0.00  0.00    +0.000 C 
ATOM     10  O   UNL     1       2.861   2.633  17.947  0.00  0.00    +0.000 OA
ENDBRANCH   6  10
ENDBRANCH   4   6
ENDBRANCH   3   4
ENDBRANCH   1   3
BRANCH   1  11
ATOM     11  C   UNL     1       3.851   6.308  18.313  0.00  0.00    +0.000 C 
BRANCH  11  12
ATOM     12  O   UNL     1       4.801   5.245  18.168  0.00  0.00    +0.000 OA
BRANCH  12  13
ATOM     13  C   UNL     1       5.393   5.084  16.937  0.00  0.00    +0.000 A 
ATOM     14  C   UNL     1       4.762   4.504  15.830  0.00  0.00    +0.000 A 
ATOM     15  C   UNL     1       5.439   4.380  14.608  0.00  0.00    +0.000 A 
ATOM     16  C   UNL     1       6.743   4.841  14.481  0.00  0.00    +0.000 A 
ATOM     17 CL   UNL     1       7.555   4.698  12.975  0.00  0.00    +0.000 Cl
ATOM     18  C   UNL     1       7.392   5.417  15.571  0.00  0.00    +0.000 A 
ATOM     19  C   UNL     1       6.718   5.533  16.791  0.00  0.00    +0.000 A 
ATOM     20 CL   UNL     1       7.574   6.251  18.111  0.00  0.00    +0.000 Cl
ENDBRANCH  12  13
ENDBRANCH  11  12
ENDBRANCH   1  11
TORSDOF 7
ENDMDL
MODEL 3
REMARK VINA RESULT:      -6.4      3.901      6.715
REMARK  Name = 
REMARK  9 active torsions:
REMARK  status: ('A' for Active; 'I' for Inactive)
REMARK    1  A    between atoms: C_1  and  O_2
REMARK    2  A    between atoms: O_2  and  P_3
REMARK    3  A    between atoms: P_3  and  C_6
REMARK    4  A    between atoms: C_6  and  C_7
REMARK    5  A    between atoms: C_6  and  O_8
REMARK    6  A    between atoms: O_8  and  C_9
REMARK    7  A    between atoms: C_9  and  C_11
REMARK    8  A    between atoms: C_11  and  O_12
REMARK    9  A    between atoms: O_12  and  C_13
REMARK                            x       y       z     vdW  Elec       q    Type
REMARK                         _______ _______ _______ _____ _____    ______ ____
ROOT
ATOM      1  C   UNL     1       4.117   2.586  18.513  0.00  0.00    +0.000 C 
ATOM      2  O   UNL     1       4.477   2.072  19.568  0.00  0.00    +0.000 OA
ENDROOT
BRANCH   1   3
ATOM      3  O   UNL     1       4.820   3.512  17.813  0.00  0.00    +0.000 OA
BRANCH   3   4
ATOM      4  C   UNL     1       5.803   4.310  18.510  0.00  0.00    +0.000 C 
ATOM      5  C   UNL     1       5.220   5.427  19.360  0.00  0.00    +0.000 C 
BRANCH   4   6
ATOM      6  P   UNL     1       7.189   4.775  17.390  0.00  0.00    +0.000 P 
ATOM      7  O   UNL     1       8.459   4.044  17.740  0.00  0.00    +0.000 OA
ATOM      8  O   UNL     1       7.241   6.298  17.353  0.00  0.00    +0.000 OA
BRANCH   6  10
ATOM      9  C   UNL     1       5.911   5.261  15.173  0.00  0.00    +0.000 C 
ATOM     10  O   UNL     1       6.631   4.318  15.939  0.00  0.00    +0.000 OA
ENDBRANCH   6  10
ENDBRANCH   4   6
ENDBRANCH   3   4
ENDBRANCH   1   3
BRANCH   1  11
ATOM     11  C   UNL     1       2.838   2.213  17.794  0.00  0.00    +0.000 C 
BRANCH  11  12
ATOM     12  O   UNL     1       1.683   2.719  18.475  0.00  0.00    +0.000 OA
BRANCH  12  13
ATOM     13  C   UNL     1       1.718   4.024  18.904  0.00  0.00    +0.000 A 
ATOM     14  C   UNL     1       1.882   5.127  18.057  0.00  0.00    +0.000 A 
ATOM     15  C   UNL     1       1.903   6.429  18.578  0.00  0.00    +0.000 A 
ATOM     16  C   UNL     1       1.753   6.639  19.943  0.00  0.00    +0.000 A 
ATOM     17 CL   UNL     1       1.766   8.239  20.566  0.00  0.00    +0.000 Cl
ATOM     18  C   UNL     1       1.594   5.556  20.805  0.00  0.00    +0.000 A 
ATOM     19  C   UNL     1       1.579   4.258  20.285  0.00  0.00    +0.000 A 
ATOM     20 CL   UNL     1       1.384   2.952  21.401  0.00  0.00    +0.000 Cl
ENDBRANCH  12  13
ENDBRANCH  11  12
ENDBRANCH   1  11
TORSDOF 7
ENDMDL
MODEL 4
REMARK VINA RESULT:      -6.3      4.133      6.804
REMARK  Name = 
REMARK  9 active torsions:
REMARK  status: ('A' for Active; 'I' for Inactive)
REMARK    1  A    between atoms: C_1  and  O_2
REMARK    2  A    between atoms: O_2  and  P_3
REMARK    3  A    between atoms: P_3  and  C_6
REMARK    4  A    between atoms: C_6  and  C_7
REMARK    5  A    between atoms: C_6  and  O_8
REMARK    6  A    between atoms: O_8  and  C_9
REMARK    7  A    between atoms: C_9  and  C_11
REMARK    8  A    between atoms: C_11  and  O_12
REMARK    9  A    between atoms: O_12  and  C_13
REMARK                            x       y       z     vdW  Elec       q    Type
REMARK                         _______ _______ _______ _____ _____    ______ ____
ROOT
ATOM      1  C   UNL     1       4.268   3.366  17.242  0.00  0.00    +0.000 C 
ATOM      2  O   UNL     1       3.816   2.436  17.903  0.00  0.00    +0.000 OA
ENDROOT
BRANCH   1   3
ATOM      3  O   UNL     1       5.351   3.294  16.427  0.00  0.00    +0.000 OA
BRANCH   3   4
ATOM      4  C   UNL     1       5.576   4.358  15.476  0.00  0.00    +0.000 C 
ATOM      5  C   UNL     1       5.314   3.977  14.028  0.00  0.00    +0.000 C 
BRANCH   4   6
ATOM      6  P   UNL     1       7.166   5.223  15.818  0.00  0.00    +0.000 P 
ATOM      7  O   UNL     1       7.926   5.517  14.551  0.00  0.00    +0.000 OA
ATOM      8  O   UNL     1       7.885   4.422  16.899  0.00  0.00    +0.000 OA
BRANCH   6  10
ATOM      9  C   UNL     1       7.363   7.026  17.687  0.00  0.00    +0.000 C 
ATOM     10  O   UNL     1       6.671   6.587  16.536  0.00  0.00    +0.000 OA
ENDBRANCH   6  10
ENDBRANCH   4   6
ENDBRANCH   3   4
ENDBRANCH   1   3
BRANCH   1  11
ATOM     11  C   UNL     1       3.638   4.743  17.191  0.00  0.00    +0.000 C 
BRANCH  11  12
ATOM     12  O   UNL     1       3.879   5.477  18.399  0.00  0.00    +0.000 OA
BRANCH  12  13
ATOM     13  C   UNL     1       3.142   6.618  18.607  0.00  0.00    +0.000 A 
ATOM     14  C   UNL     1       3.138   7.722  17.745  0.00  0.00    +0.000 A 
ATOM     15  C   UNL     1       2.352   8.848  18.032  0.00  0.00    +0.000 A 
ATOM     16  C   UNL     1       1.561   8.875  19.173  0.00  0.00    +0.000 A 
ATOM     17 CL   UNL     1       0.591  10.254  19.505  0.00  0.00    +0.000 Cl
ATOM     18  C   UNL     1       1.553   7.791  20.047  0.00  0.00    +0.000 A 
ATOM     19  C   UNL     1       2.342   6.672  19.764  0.00  0.00    +0.000 A 
ATOM     20 CL   UNL     1       2.297   5.357  20.886  0.00  0.00    +0.000 Cl
ENDBRANCH  12  13
ENDBRANCH  11  12
ENDBRANCH   1  11
TORSDOF 7
ENDMDL
MODEL 5
REMARK VINA RESULT:      -6.3      3.133      4.639
REMARK  Name = 
REMARK  9 active torsions:
REMARK  status: ('A' for Active; 'I' for Inactive)
REMARK    1  A    between atoms: C_1  and  O_2
REMARK    2  A    between atoms: O_2  and  P_3
REMARK    3  A    between atoms: P_3  and  C_6
REMARK    4  A    between atoms: C_6  and  C_7
REMARK    5  A    between atoms: C_6  and  O_8
REMARK    6  A    between atoms: O_8  and  C_9
REMARK    7  A    between atoms: C_9  and  C_11
REMARK    8  A    between atoms: C_11  and  O_12
REMARK    9  A    between atoms: O_12  and  C_13
REMARK                            x       y       z     vdW  Elec       q    Type
REMARK                         _______ _______ _______ _____ _____    ______ ____
ROOT
ATOM      1  C   UNL     1       3.742   4.786  18.367  0.00  0.00    +0.000 C 
ATOM      2  O   UNL     1       3.152   5.498  17.560  0.00  0.00    +0.000 OA
ENDROOT
BRANCH   1   3
ATOM      3  O   UNL     1       3.553   4.801  19.710  0.00  0.00    +0.000 OA
BRANCH   3   4
ATOM      4  C   UNL     1       2.247   4.468  20.231  0.00  0.00    +0.000 C 
ATOM      5  C   UNL     1       1.575   5.585  21.013  0.00  0.00    +0.000 C 
BRANCH   4   6
ATOM      6  P   UNL     1       2.258   2.807  21.027  0.00  0.00    +0.000 P 
ATOM      7  O   UNL     1       1.383   2.769  22.253  0.00  0.00    +0.000 OA
ATOM      8  O   UNL     1       3.719   2.402  21.193  0.00  0.00    +0.000 OA
BRANCH   6  10
ATOM      9  C   UNL     1       1.092   2.473  18.723  0.00  0.00    +0.000 C 
ATOM     10  O   UNL     1       1.668   1.857  19.855  0.00  0.00    +0.000 OA
ENDBRANCH   6  10
ENDBRANCH   4   6
ENDBRANCH   3   4
ENDBRANCH   1   3
BRANCH   1  11
ATOM     11  C   UNL     1       4.745   3.723  17.968  0.00  0.00    +0.000 C 
BRANCH  11  12
ATOM     12  O   UNL     1       5.722   4.237  17.055  0.00  0.00    +0.000 OA
BRANCH  12  13
ATOM     13  C   UNL     1       6.447   5.336  17.449  0.00  0.00    +0.000 A 
ATOM     14  C   UNL     1       7.340   5.345  18.527  0.00  0.00    +0.000 A 
ATOM     15  C   UNL     1       8.044   6.512  18.861  0.00  0.00    +0.000 A 
ATOM     16  C   UNL     1       7.865   7.672  18.119  0.00  0.00    +0.000 A 
ATOM     17 CL   UNL     1       8.743   9.090  18.529  0.00  0.00    +0.000 Cl
ATOM     18  C   UNL     1       6.977   7.688  17.046  0.00  0.00    +0.000 A 
ATOM     19  C   UNL     1       6.272   6.525  16.718  0.00  0.00    +0.000 A 
ATOM     20 CL   UNL     1       5.179   6.604  15.380  0.00  0.00    +0.000 Cl
ENDBRANCH  12  13
ENDBRANCH  11  12
ENDBRANCH   1  11
TORSDOF 7
ENDMDL
MODEL 6
REMARK VINA RESULT:      -6.3      1.218      1.246
REMARK  Name = 
REMARK  9 active torsions:
REMARK  status: ('A' for Active; 'I' for Inactive)
REMARK    1  A    between atoms: C_1  and  O_2
REMARK    2  A    between atoms: O_2  and  P_3
REMARK    3  A    between atoms: P_3  and  C_6
REMARK    4  A    between atoms: C_6  and  C_7
REMARK    5  A    between atoms: C_6  and  O_8
REMARK    6  A    between atoms: O_8  and  C_9
REMARK    7  A    between atoms: C_9  and  C_11
REMARK    8  A    between atoms: C_11  and  O_12
REMARK    9  A    between atoms: O_12  and  C_13
REMARK                            x       y       z     vdW  Elec       q    Type
REMARK                         _______ _______ _______ _____ _____    ______ ____
ROOT
ATOM      1  C   UNL     1       7.306   6.173  18.082  0.00  0.00    +0.000 C 
ATOM      2  O   UNL     1       8.034   7.151  18.218  0.00  0.00    +0.000 OA
ENDROOT
BRANCH   1   3
ATOM      3  O   UNL     1       6.167   5.940  18.783  0.00  0.00    +0.000 OA
BRANCH   3   4
ATOM      4  C   UNL     1       4.985   5.520  18.066  0.00  0.00    +0.000 C 
ATOM      5  C   UNL     1       4.140   6.660  17.519  0.00  0.00    +0.000 C 
BRANCH   4   6
ATOM      6  P   UNL     1       4.084   4.208  18.992  0.00  0.00    +0.000 P 
ATOM      7  O   UNL     1       5.029   3.209  19.608  0.00  0.00    +0.000 OA
ATOM      8  O   UNL     1       3.001   3.670  18.063  0.00  0.00    +0.000 OA
BRANCH   6  10
ATOM      9  C   UNL     1       2.049   4.589  20.572  0.00  0.00    +0.000 C 
ATOM     10  O   UNL     1       3.305   5.058  20.130  0.00  0.00    +0.000 OA
ENDBRANCH   6  10
ENDBRANCH   4   6
ENDBRANCH   3   4
ENDBRANCH   1   3
BRANCH   1  11
ATOM     11  C   UNL     1       7.543   5.088  17.052  0.00  0.00    +0.000 C 
BRANCH  11  12
ATOM     12  O   UNL     1       7.560   5.621  15.721  0.00  0.00    +0.000 OA
BRANCH  12  13
ATOM     13  C   UNL     1       6.923   4.900  14.739  0.00  0.00    +0.000 A 
ATOM     14  C   UNL     1       5.779   4.121  14.951  0.00  0.00    +0.000 A 
ATOM     15  C   UNL     1       5.188   3.418  13.890  0.00  0.00    +0.000 A 
ATOM     16  C   UNL     1       5.730   3.494  12.614  0.00  0.00    +0.000 A 
ATOM     17 CL   UNL     1       4.989   2.641  11.321  0.00  0.00    +0.000 Cl
ATOM     18  C   UNL     1       6.871   4.259  12.381  0.00  0.00    +0.000 A 
ATOM     19  C   UNL     1       7.463   4.954  13.441  0.00  0.00    +0.000 A 
ATOM     20 CL   UNL     1       8.880   5.882  13.096  0.00  0.00    +0.000 Cl
ENDBRANCH  12  13
ENDBRANCH  11  12
ENDBRANCH   1  11
TORSDOF 7
ENDMDL
MODEL 7
REMARK VINA RESULT:      -6.1      1.470      2.109
REMARK  Name = 
REMARK  9 active torsions:
REMARK  status: ('A' for Active; 'I' for Inactive)
REMARK    1  A    between atoms: C_1  and  O_2
REMARK    2  A    between atoms: O_2  and  P_3
REMARK    3  A    between atoms: P_3  and  C_6
REMARK    4  A    between atoms: C_6  and  C_7
REMARK    5  A    between atoms: C_6  and  O_8
REMARK    6  A    between atoms: O_8  and  C_9
REMARK    7  A    between atoms: C_9  and  C_11
REMARK    8  A    between atoms: C_11  and  O_12
REMARK    9  A    between atoms: O_12  and  C_13
REMARK                            x       y       z     vdW  Elec       q    Type
REMARK                         _______ _______ _______ _____ _____    ______ ____
ROOT
ATOM      1  C   UNL     1       6.367   6.649  17.393  0.00  0.00    +0.000 C 
ATOM      2  O   UNL     1       6.557   7.814  17.056  0.00  0.00    +0.000 OA
ENDROOT
BRANCH   1   3
ATOM      3  O   UNL     1       5.355   6.218  18.187  0.00  0.00    +0.000 OA
BRANCH   3   4
ATOM      4  C   UNL     1       4.007   6.238  17.666  0.00  0.00    +0.000 C 
ATOM      5  C   UNL     1       3.348   7.607  17.672  0.00  0.00    +0.000 C 
BRANCH   4   6
ATOM      6  P   UNL     1       3.013   4.849  18.355  0.00  0.00    +0.000 P 
ATOM      7  O   UNL     1       1.778   4.585  17.534  0.00  0.00    +0.000 OA
ATOM      8  O   UNL     1       2.821   5.134  19.841  0.00  0.00    +0.000 OA
BRANCH   6  10
ATOM      9  C   UNL     1       4.523   3.053  19.483  0.00  0.00    +0.000 C 
ATOM     10  O   UNL     1       4.048   3.607  18.274  0.00  0.00    +0.000 OA
ENDBRANCH   6  10
ENDBRANCH   4   6
ENDBRANCH   3   4
ENDBRANCH   1   3
BRANCH   1  11
ATOM     11  C   UNL     1       7.218   5.490  16.915  0.00  0.00    +0.000 C 
BRANCH  11  12
ATOM     12  O   UNL     1       7.619   5.658  15.549  0.00  0.00    +0.000 OA
BRANCH  12  13
ATOM     13  C   UNL     1       6.964   4.914  14.597  0.00  0.00    +0.000 A 
ATOM     14  C   UNL     1       5.827   4.137  14.850  0.00  0.00    +0.000 A 
ATOM     15  C   UNL     1       5.217   3.408  13.818  0.00  0.00    +0.000 A 
ATOM     16  C   UNL     1       5.733   3.457  12.529  0.00  0.00    +0.000 A 
ATOM     17 CL   UNL     1       4.968   2.573  11.271  0.00  0.00    +0.000 Cl
ATOM     18  C   UNL     1       6.866   4.219  12.256  0.00  0.00    +0.000 A 
ATOM     19  C   UNL     1       7.477   4.940  13.287  0.00  0.00    +0.000 A 
ATOM     20 CL   UNL     1       8.883   5.865  12.892  0.00  0.00    +0.000 Cl
ENDBRANCH  12  13
ENDBRANCH  11  12
ENDBRANCH   1  11
TORSDOF 7
ENDMDL
MODEL 8
REMARK VINA RESULT:      -6.1      4.062      6.944
REMARK  Name = 
REMARK  9 active torsions:
REMARK  status: ('A' for Active; 'I' for Inactive)
REMARK    1  A    between atoms: C_1  and  O_2
REMARK    2  A    between atoms: O_2  and  P_3
REMARK    3  A    between atoms: P_3  and  C_6
REMARK    4  A    between atoms: C_6  and  C_7
REMARK    5  A    between atoms: C_6  and  O_8
REMARK    6  A    between atoms: O_8  and  C_9
REMARK    7  A    between atoms: C_9  and  C_11
REMARK    8  A    between atoms: C_11  and  O_12
REMARK    9  A    between atoms: O_12  and  C_13
REMARK                            x       y       z     vdW  Elec       q    Type
REMARK                         _______ _______ _______ _____ _____    ______ ____
ROOT
ATOM      1  C   UNL     1       4.560   3.506  17.465  0.00  0.00    +0.000 C 
ATOM      2  O   UNL     1       4.937   3.529  18.633  0.00  0.00    +0.000 OA
ENDROOT
BRANCH   1   3
ATOM      3  O   UNL     1       5.367   3.360  16.384  0.00  0.00    +0.000 OA
BRANCH   3   4
ATOM      4  C   UNL     1       5.561   4.491  15.506  0.00  0.00    +0.000 C 
ATOM      5  C   UNL     1       5.130   4.254  14.067  0.00  0.00    +0.000 C 
BRANCH   4   6
ATOM      6  P   UNL     1       7.229   5.234  15.746  0.00  0.00    +0.000 P 
ATOM      7  O   UNL     1       7.971   5.375  14.443  0.00  0.00    +0.000 OA
ATOM      8  O   UNL     1       7.911   4.448  16.861  0.00  0.00    +0.000 OA
BRANCH   6  10
ATOM      9  C   UNL     1       5.979   6.733  17.470  0.00  0.00    +0.000 C 
ATOM     10  O   UNL     1       6.875   6.682  16.380  0.00  0.00    +0.000 OA
ENDBRANCH   6  10
ENDBRANCH   4   6
ENDBRANCH   3   4
ENDBRANCH   1   3
BRANCH   1  11
ATOM     11  C   UNL     1       3.104   3.580  17.054  0.00  0.00    +0.000 C 
BRANCH  11  12
ATOM     12  O   UNL     1       2.237   3.640  18.194  0.00  0.00    +0.000 OA
BRANCH  12  13
ATOM     13  C   UNL     1       2.117   4.847  18.840  0.00  0.00    +0.000 A 
ATOM     14  C   UNL     1       2.448   6.082  18.268  0.00  0.00    +0.000 A 
ATOM     15  C   UNL     1       2.292   7.270  18.997  0.00  0.00    +0.000 A 
ATOM     16  C   UNL     1       1.799   7.234  20.295  0.00  0.00    +0.000 A 
ATOM     17 CL   UNL     1       1.598   8.697  21.172  0.00  0.00    +0.000 Cl
ATOM     18  C   UNL     1       1.468   6.016  20.886  0.00  0.00    +0.000 A 
ATOM     19  C   UNL     1       1.630   4.832  20.160  0.00  0.00    +0.000 A 
ATOM     20 CL   UNL     1       1.209   3.350  20.944  0.00  0.00    +0.000 Cl
ENDBRANCH  12  13
ENDBRANCH  11  12
ENDBRANCH   1  11
TORSDOF 7
ENDMDL
MODEL 9
REMARK VINA RESULT:      -6.1      4.842      7.090
REMARK  Name = 
REMARK  9 active torsions:
REMARK  status: ('A' for Active; 'I' for Inactive)
REMARK    1  A    between atoms: C_1  and  O_2
REMARK    2  A    between atoms: O_2  and  P_3
REMARK    3  A    between atoms: P_3  and  C_6
REMARK    4  A    between atoms: C_6  and  C_7
REMARK    5  A    between atoms: C_6  and  O_8
REMARK    6  A    between atoms: O_8  and  C_9
REMARK    7  A    between atoms: C_9  and  C_11
REMARK    8  A    between atoms: C_11  and  O_12
REMARK    9  A    between atoms: O_12  and  C_13
REMARK                            x       y       z     vdW  Elec       q    Type
REMARK                         _______ _______ _______ _____ _____    ______ ____
ROOT
ATOM      1  C   UNL     1       1.784   4.325  18.556  0.00  0.00    +0.000 C 
ATOM      2  O   UNL     1       1.088   3.470  18.017  0.00  0.00    +0.000 OA
ENDROOT
BRANCH   1   3
ATOM      3  O   UNL     1       2.295   4.244  19.810  0.00  0.00    +0.000 OA
BRANCH   3   4
ATOM      4  C   UNL     1       2.594   2.939  20.354  0.00  0.00    +0.000 C 
ATOM      5  C   UNL     1       2.287   2.787  21.835  0.00  0.00    +0.000 C 
BRANCH   4   6
ATOM      6  P   UNL     1       4.252   2.358  19.800  0.00  0.00    +0.000 P 
ATOM      7  O   UNL     1       4.162   1.520  18.551  0.00  0.00    +0.000 OA
ATOM      8  O   UNL     1       4.936   1.739  21.014  0.00  0.00    +0.000 OA
BRANCH   6  10
ATOM      9  C   UNL     1       5.479   4.011  18.204  0.00  0.00    +0.000 C 
ATOM     10  O   UNL     1       5.031   3.750  19.517  0.00  0.00    +0.000 OA
ENDBRANCH   6  10
ENDBRANCH   4   6
ENDBRANCH   3   4
ENDBRANCH   1   3
BRANCH   1  11
ATOM     11  C   UNL     1       2.233   5.596  17.865  0.00  0.00    +0.000 C 
BRANCH  11  12
ATOM     12  O   UNL     1       2.783   6.536  18.797  0.00  0.00    +0.000 OA
BRANCH  12  13
ATOM     13  C   UNL     1       2.261   7.808  18.801  0.00  0.00    +0.000 A 
ATOM     14  C   UNL     1       2.426   8.730  17.760  0.00  0.00    +0.000 A 
ATOM     15  C   UNL     1       1.855  10.009  17.844  0.00  0.00    +0.000 A 
ATOM     16  C   UNL     1       1.112  10.371  18.960  0.00  0.00    +0.000 A 
ATOM     17 CL   UNL     1       0.406  11.935  19.043  0.00  0.00    +0.000 Cl
ATOM     18  C   UNL     1       0.939   9.472  20.009  0.00  0.00    +0.000 A 
ATOM     19  C   UNL     1       1.514   8.199  19.927  0.00  0.00    +0.000 A 
ATOM     20 CL   UNL     1       1.271   7.126  21.261  0.00  0.00    +0.000 Cl
ENDBRANCH  12  13
ENDBRANCH  11  12
ENDBRANCH   1  11
TORSDOF 7
ENDMDL
