MODEL 1
REMARK VINA RESULT:      -8.3      0.000      0.000
REMARK  Name = 
REMARK  7 active torsions:
REMARK  status: ('A' for Active; 'I' for Inactive)
REMARK    1  A    between atoms: C_1  and  C_2
REMARK    2  A    between atoms: C_7  and  S_8
REMARK    3  A    between atoms: S_8  and  N_11
REMARK    4  A    between atoms: C_12  and  C_14
REMARK    5  A    between atoms: C_14  and  C_15
REMARK    6  A    between atoms: C_19  and  C_21
REMARK    7  A    between atoms: C_21  and  C_22
REMARK                            x       y       z     vdW  Elec       q    Type
REMARK                         _______ _______ _______ _____ _____    ______ ____
ROOT
ATOM      1  N   UNL     1       5.403   3.947  16.527  0.00  0.00    +0.000 N 
ATOM      2  C   UNL     1       5.125   3.852  17.898  0.00  0.00    +0.000 C 
ATOM      3  O   UNL     1       5.925   4.213  18.754  0.00  0.00    +0.000 OA
ATOM      4  H   UNL     1       4.651   3.761  15.870  0.00  0.00    +0.000 HD
ENDROOT
BRANCH   2   5
ATOM      5  C   UNL     1       3.675   3.261  18.197  0.00  0.00    +0.000 C 
ATOM      6  C   UNL     1       2.699   3.551  17.050  0.00  0.00    +0.000 C 
ATOM      7  C   UNL     1       3.622   1.751  18.598  0.00  0.00    +0.000 C 
ATOM      8  C   UNL     1       2.562   2.120  19.640  0.00  0.00    +0.000 C 
ATOM      9  N   UNL     1       3.073   3.487  19.533  0.00  0.00    +0.000 N 
ATOM     10  C   UNL     1       2.566   4.566  20.217  0.00  0.00    +0.000 C 
ATOM     11  O   UNL     1       1.682   4.406  21.058  0.00  0.00    +0.000 OA
BRANCH  10  12
ATOM     12  C   UNL     1       3.187   5.927  19.957  0.00  0.00    +0.000 C 
BRANCH  12  13
ATOM     13  C   UNL     1       2.259   6.901  19.193  0.00  0.00    +0.000 C 
ATOM     14  C   UNL     1       1.797   8.124  19.993  0.00  0.00    +0.000 C 
ATOM     15  C   UNL     1       1.372   9.144  18.940  0.00  0.00    +0.000 C 
ATOM     16  C   UNL     1       2.182   8.823  17.691  0.00  0.00    +0.000 C 
ATOM     17  C   UNL     1       2.971   7.553  18.003  0.00  0.00    +0.000 C 
ENDBRANCH  12  13
ENDBRANCH  10  12
ENDBRANCH   2   5
BRANCH   1  18
ATOM     18  S   UNL     1       6.614   4.857  15.838  0.00  0.00    +0.000 S 
ATOM     19  O   UNL     1       7.907   4.440  16.336  0.00  0.00    +0.000 OA
ATOM     20  O   UNL     1       6.185   6.239  15.978  0.00  0.00    +0.000 OA
BRANCH  18  27
ATOM     21  C   UNL     1       8.623   5.796  13.551  0.00  0.00    +0.000 C 
ATOM     22  C   UNL     1       7.465   4.912  13.178  0.00  0.00    +0.000 A 
ATOM     23  C   UNL     1       7.382   4.469  11.846  0.00  0.00    +0.000 A 
ATOM     24  C   UNL     1       6.368   3.604  11.436  0.00  0.00    +0.000 A 
ATOM     25  C   UNL     1       5.416   3.163  12.350  0.00  0.00    +0.000 A 
ATOM     26  C   UNL     1       5.481   3.581  13.681  0.00  0.00    +0.000 A 
ATOM     27  C   UNL     1       6.503   4.451  14.098  0.00  0.00    +0.000 A 
ENDBRANCH  18  27
ENDBRANCH   1  18
TORSDOF 5
ENDMDL
MODEL 2
REMARK VINA RESULT:      -7.7      1.628      3.807
REMARK  Name = 
REMARK  7 active torsions:
REMARK  status: ('A' for Active; 'I' for Inactive)
REMARK    1  A    between atoms: C_1  and  C_2
REMARK    2  A    between atoms: C_7  and  S_8
REMARK    3  A    between atoms: S_8  and  N_11
REMARK    4  A    between atoms: C_12  and  C_14
REMARK    5  A    between atoms: C_14  and  C_15
REMARK    6  A    between atoms: C_19  and  C_21
REMARK    7  A    between atoms: C_21  and  C_22
REMARK                            x       y       z     vdW  Elec       q    Type
REMARK                         _______ _______ _______ _____ _____    ______ ____
ROOT
ATOM      1  N   UNL     1       5.624   5.517  17.078  0.00  0.00    +0.000 N 
ATOM      2  C   UNL     1       5.165   5.361  18.393  0.00  0.00    +0.000 C 
ATOM      3  O   UNL     1       5.853   4.855  19.272  0.00  0.00    +0.000 OA
ATOM      4  H   UNL     1       5.063   6.065  16.433  0.00  0.00    +0.000 HD
ENDROOT
BRANCH   2   5
ATOM      5  C   UNL     1       3.691   5.932  18.605  0.00  0.00    +0.000 C 
ATOM      6  C   UNL     1       3.299   5.948  20.088  0.00  0.00    +0.000 C 
ATOM      7  C   UNL     1       3.392   7.315  17.941  0.00  0.00    +0.000 C 
ATOM      8  C   UNL     1       2.017   6.768  17.546  0.00  0.00    +0.000 C 
ATOM      9  N   UNL     1       2.601   5.438  17.729  0.00  0.00    +0.000 N 
ATOM     10  C   UNL     1       1.916   4.257  17.577  0.00  0.00    +0.000 C 
ATOM     11  O   UNL     1       0.755   4.262  17.170  0.00  0.00    +0.000 OA
BRANCH  10  12
ATOM     12  C   UNL     1       2.664   2.963  17.847  0.00  0.00    +0.000 C 
BRANCH  12  13
ATOM     13  C   UNL     1       2.369   2.350  19.236  0.00  0.00    +0.000 C 
ATOM     14  C   UNL     1       3.466   2.556  20.287  0.00  0.00    +0.000 C 
ATOM     15  C   UNL     1       2.766   2.358  21.629  0.00  0.00    +0.000 C 
ATOM     16  C   UNL     1       1.305   2.723  21.400  0.00  0.00    +0.000 C 
ATOM     17  C   UNL     1       1.160   3.010  19.907  0.00  0.00    +0.000 C 
ENDBRANCH  12  13
ENDBRANCH  10  12
ENDBRANCH   2   5
BRANCH   1  18
ATOM     18  S   UNL     1       7.210   5.413  16.581  0.00  0.00    +0.000 S 
ATOM     19  O   UNL     1       7.916   4.409  17.348  0.00  0.00    +0.000 OA
ATOM     20  O   UNL     1       7.693   6.784  16.545  0.00  0.00    +0.000 OA
BRANCH  18  27
ATOM     21  C   UNL     1       5.265   3.142  15.482  0.00  0.00    +0.000 C 
ATOM     22  C   UNL     1       6.166   3.854  14.511  0.00  0.00    +0.000 A 
ATOM     23  C   UNL     1       6.037   3.541  13.147  0.00  0.00    +0.000 A 
ATOM     24  C   UNL     1       6.798   4.197  12.181  0.00  0.00    +0.000 A 
ATOM     25  C   UNL     1       7.706   5.182  12.559  0.00  0.00    +0.000 A 
ATOM     26  C   UNL     1       7.848   5.518  13.907  0.00  0.00    +0.000 A 
ATOM     27  C   UNL     1       7.080   4.860  14.884  0.00  0.00    +0.000 A 
ENDBRANCH  18  27
ENDBRANCH   1  18
TORSDOF 5
ENDMDL
MODEL 3
REMARK VINA RESULT:      -7.5      2.448      7.236
REMARK  Name = 
REMARK  7 active torsions:
REMARK  status: ('A' for Active; 'I' for Inactive)
REMARK    1  A    between atoms: C_1  and  C_2
REMARK    2  A    between atoms: C_7  and  S_8
REMARK    3  A    between atoms: S_8  and  N_11
REMARK    4  A    between atoms: C_12  and  C_14
REMARK    5  A    between atoms: C_14  and  C_15
REMARK    6  A    between atoms: C_19  and  C_21
REMARK    7  A    between atoms: C_21  and  C_22
REMARK                            x       y       z     vdW  Elec       q    Type
REMARK                         _______ _______ _______ _____ _____    ______ ____
ROOT
ATOM      1  N   UNL     1       4.300   3.318  17.426  0.00  0.00    +0.000 N 
ATOM      2  C   UNL     1       3.954   4.672  17.532  0.00  0.00    +0.000 C 
ATOM      3  O   UNL     1       2.788   5.048  17.575  0.00  0.00    +0.000 OA
ATOM      4  H   UNL     1       5.277   3.061  17.534  0.00  0.00    +0.000 HD
ENDROOT
BRANCH   2   5
ATOM      5  C   UNL     1       5.224   5.631  17.616  0.00  0.00    +0.000 C 
ATOM      6  C   UNL     1       4.825   7.109  17.517  0.00  0.00    +0.000 C 
ATOM      7  C   UNL     1       6.177   5.398  18.833  0.00  0.00    +0.000 C 
ATOM      8  C   UNL     1       7.358   5.617  17.883  0.00  0.00    +0.000 C 
ATOM      9  N   UNL     1       6.421   5.304  16.803  0.00  0.00    +0.000 N 
ATOM     10  C   UNL     1       6.739   5.317  15.466  0.00  0.00    +0.000 C 
ATOM     11  O   UNL     1       7.900   5.506  15.108  0.00  0.00    +0.000 OA
BRANCH  10  12
ATOM     12  C   UNL     1       5.633   5.009  14.471  0.00  0.00    +0.000 C 
BRANCH  12  13
ATOM     13  C   UNL     1       5.909   3.764  13.596  0.00  0.00    +0.000 C 
ATOM     14  C   UNL     1       4.758   3.347  12.673  0.00  0.00    +0.000 C 
ATOM     15  C   UNL     1       5.413   2.492  11.591  0.00  0.00    +0.000 C 
ATOM     16  C   UNL     1       6.856   2.971  11.492  0.00  0.00    +0.000 C 
ATOM     17  C   UNL     1       7.044   4.009  12.596  0.00  0.00    +0.000 C 
ENDBRANCH  12  13
ENDBRANCH  10  12
ENDBRANCH   2   5
BRANCH   1  18
ATOM     18  S   UNL     1       3.287   2.027  17.710  0.00  0.00    +0.000 S 
ATOM     19  O   UNL     1       4.049   0.804  17.837  0.00  0.00    +0.000 OA
ATOM     20  O   UNL     1       2.235   2.136  16.713  0.00  0.00    +0.000 OA
BRANCH  18  27
ATOM     21  C   UNL     1       4.771   2.050  20.529  0.00  0.00    +0.000 C 
ATOM     22  C   UNL     1       3.312   2.412  20.476  0.00  0.00    +0.000 A 
ATOM     23  C   UNL     1       2.698   2.832  21.670  0.00  0.00    +0.000 A 
ATOM     24  C   UNL     1       1.363   3.234  21.692  0.00  0.00    +0.000 A 
ATOM     25  C   UNL     1       0.614   3.226  20.519  0.00  0.00    +0.000 A 
ATOM     26  C   UNL     1       1.202   2.822  19.319  0.00  0.00    +0.000 A 
ATOM     27  C   UNL     1       2.548   2.418  19.293  0.00  0.00    +0.000 A 
ENDBRANCH  18  27
ENDBRANCH   1  18
TORSDOF 5
ENDMDL
MODEL 4
REMARK VINA RESULT:      -7.5      1.533      3.534
REMARK  Name = 
REMARK  7 active torsions:
REMARK  status: ('A' for Active; 'I' for Inactive)
REMARK    1  A    between atoms: C_1  and  C_2
REMARK    2  A    between atoms: C_7  and  S_8
REMARK    3  A    between atoms: S_8  and  N_11
REMARK    4  A    between atoms: C_12  and  C_14
REMARK    5  A    between atoms: C_14  and  C_15
REMARK    6  A    between atoms: C_19  and  C_21
REMARK    7  A    between atoms: C_21  and  C_22
REMARK                            x       y       z     vdW  Elec       q    Type
REMARK                         _______ _______ _______ _____ _____    ______ ____
ROOT
ATOM      1  N   UNL     1       5.589   5.319  16.730  0.00  0.00    +0.000 N 
ATOM      2  C   UNL     1       5.282   5.199  18.092  0.00  0.00    +0.000 C 
ATOM      3  O   UNL     1       6.056   4.692  18.896  0.00  0.00    +0.000 OA
ATOM      4  H   UNL     1       4.969   5.869  16.143  0.00  0.00    +0.000 HD
ENDROOT
BRANCH   2   5
ATOM      5  C   UNL     1       3.856   5.810  18.461  0.00  0.00    +0.000 C 
ATOM      6  C   UNL     1       3.611   5.799  19.976  0.00  0.00    +0.000 C 
ATOM      7  C   UNL     1       3.541   7.218  17.862  0.00  0.00    +0.000 C 
ATOM      8  C   UNL     1       2.116   6.726  17.592  0.00  0.00    +0.000 C 
ATOM      9  N   UNL     1       2.670   5.374  17.685  0.00  0.00    +0.000 N 
ATOM     10  C   UNL     1       1.934   4.219  17.573  0.00  0.00    +0.000 C 
ATOM     11  O   UNL     1       0.739   4.272  17.282  0.00  0.00    +0.000 OA
BRANCH  10  12
ATOM     12  C   UNL     1       2.660   2.896  17.738  0.00  0.00    +0.000 C 
BRANCH  12  13
ATOM     13  C   UNL     1       2.477   2.253  19.133  0.00  0.00    +0.000 C 
ATOM     14  C   UNL     1       3.634   2.477  20.113  0.00  0.00    +0.000 C 
ATOM     15  C   UNL     1       3.030   2.237  21.494  0.00  0.00    +0.000 C 
ATOM     16  C   UNL     1       1.547   2.560  21.368  0.00  0.00    +0.000 C 
ATOM     17  C   UNL     1       1.295   2.864  19.893  0.00  0.00    +0.000 C 
ENDBRANCH  12  13
ENDBRANCH  10  12
ENDBRANCH   2   5
BRANCH   1  18
ATOM     18  S   UNL     1       7.104   5.166  16.055  0.00  0.00    +0.000 S 
ATOM     19  O   UNL     1       7.851   4.120  16.720  0.00  0.00    +0.000 OA
ATOM     20  O   UNL     1       7.634   6.518  15.989  0.00  0.00    +0.000 OA
BRANCH  18  27
ATOM     21  C   UNL     1       8.893   5.793  13.495  0.00  0.00    +0.000 C 
ATOM     22  C   UNL     1       7.639   4.980  13.320  0.00  0.00    +0.000 A 
ATOM     23  C   UNL     1       7.369   4.459  12.043  0.00  0.00    +0.000 A 
ATOM     24  C   UNL     1       6.256   3.652  11.813  0.00  0.00    +0.000 A 
ATOM     25  C   UNL     1       5.389   3.347  12.858  0.00  0.00    +0.000 A 
ATOM     26  C   UNL     1       5.639   3.845  14.138  0.00  0.00    +0.000 A 
ATOM     27  C   UNL     1       6.762   4.657  14.374  0.00  0.00    +0.000 A 
ENDBRANCH  18  27
ENDBRANCH   1  18
TORSDOF 5
ENDMDL
MODEL 5
REMARK VINA RESULT:      -7.1      2.266      5.938
REMARK  Name = 
REMARK  7 active torsions:
REMARK  status: ('A' for Active; 'I' for Inactive)
REMARK    1  A    between atoms: C_1  and  C_2
REMARK    2  A    between atoms: C_7  and  S_8
REMARK    3  A    between atoms: S_8  and  N_11
REMARK    4  A    between atoms: C_12  and  C_14
REMARK    5  A    between atoms: C_14  and  C_15
REMARK    6  A    between atoms: C_19  and  C_21
REMARK    7  A    between atoms: C_21  and  C_22
REMARK                            x       y       z     vdW  Elec       q    Type
REMARK                         _______ _______ _______ _____ _____    ______ ____
ROOT
ATOM      1  N   UNL     1       4.760   2.877  17.938  0.00  0.00    +0.000 N 
ATOM      2  C   UNL     1       5.667   3.940  18.049  0.00  0.00    +0.000 C 
ATOM      3  O   UNL     1       5.990   4.415  19.131  0.00  0.00    +0.000 OA
ATOM      4  H   UNL     1       4.640   2.439  17.029  0.00  0.00    +0.000 HD
ENDROOT
BRANCH   2   5
ATOM      5  C   UNL     1       6.232   4.421  16.638  0.00  0.00    +0.000 C 
ATOM      6  C   UNL     1       7.706   4.835  16.730  0.00  0.00    +0.000 C 
ATOM      7  C   UNL     1       6.010   3.439  15.442  0.00  0.00    +0.000 C 
ATOM      8  C   UNL     1       5.686   4.656  14.572  0.00  0.00    +0.000 C 
ATOM      9  N   UNL     1       5.422   5.361  15.827  0.00  0.00    +0.000 N 
ATOM     10  C   UNL     1       5.060   6.684  15.918  0.00  0.00    +0.000 C 
ATOM     11  O   UNL     1       4.840   7.337  14.899  0.00  0.00    +0.000 OA
BRANCH  10  12
ATOM     12  C   UNL     1       4.866   7.272  17.305  0.00  0.00    +0.000 C 
BRANCH  12  13
ATOM     13  C   UNL     1       3.421   7.143  17.841  0.00  0.00    +0.000 C 
ATOM     14  C   UNL     1       3.303   6.638  19.284  0.00  0.00    +0.000 C 
ATOM     15  C   UNL     1       1.916   7.082  19.742  0.00  0.00    +0.000 C 
ATOM     16  C   UNL     1       1.578   8.321  18.922  0.00  0.00    +0.000 C 
ATOM     17  C   UNL     1       2.718   8.502  17.922  0.00  0.00    +0.000 C 
ENDBRANCH  12  13
ENDBRANCH  10  12
ENDBRANCH   2   5
BRANCH   1  18
ATOM     18  S   UNL     1       4.280   1.872  19.175  0.00  0.00    +0.000 S 
ATOM     19  O   UNL     1       5.293   1.820  20.207  0.00  0.00    +0.000 OA
ATOM     20  O   UNL     1       3.828   0.651  18.527  0.00  0.00    +0.000 OA
BRANCH  18  27
ATOM     21  C   UNL     1       2.032   3.366  17.484  0.00  0.00    +0.000 C 
ATOM     22  C   UNL     1       1.887   3.299  18.980  0.00  0.00    +0.000 A 
ATOM     23  C   UNL     1       0.713   3.825  19.548  0.00  0.00    +0.000 A 
ATOM     24  C   UNL     1       0.481   3.753  20.921  0.00  0.00    +0.000 A 
ATOM     25  C   UNL     1       1.420   3.152  21.755  0.00  0.00    +0.000 A 
ATOM     26  C   UNL     1       2.590   2.614  21.215  0.00  0.00    +0.000 A 
ATOM     27  C   UNL     1       2.825   2.683  19.831  0.00  0.00    +0.000 A 
ENDBRANCH  18  27
ENDBRANCH   1  18
TORSDOF 5
ENDMDL
MODEL 6
REMARK VINA RESULT:      -7.0      3.851      6.909
REMARK  Name = 
REMARK  7 active torsions:
REMARK  status: ('A' for Active; 'I' for Inactive)
REMARK    1  A    between atoms: C_1  and  C_2
REMARK    2  A    between atoms: C_7  and  S_8
REMARK    3  A    between atoms: S_8  and  N_11
REMARK    4  A    between atoms: C_12  and  C_14
REMARK    5  A    between atoms: C_14  and  C_15
REMARK    6  A    between atoms: C_19  and  C_21
REMARK    7  A    between atoms: C_21  and  C_22
REMARK                            x       y       z     vdW  Elec       q    Type
REMARK                         _______ _______ _______ _____ _____    ______ ____
ROOT
ATOM      1  N   UNL     1       2.366   7.181  20.134  0.00  0.00    +0.000 N 
ATOM      2  C   UNL     1       1.696   8.376  19.837  0.00  0.00    +0.000 C 
ATOM      3  O   UNL     1       1.883   8.990  18.794  0.00  0.00    +0.000 OA
ATOM      4  H   UNL     1       2.067   6.650  20.947  0.00  0.00    +0.000 HD
ENDROOT
BRANCH   2   5
ATOM      5  C   UNL     1       0.670   8.810  20.978  0.00  0.00    +0.000 C 
ATOM      6  C   UNL     1      -0.501   7.825  21.091  0.00  0.00    +0.000 C 
ATOM      7  C   UNL     1       1.292   9.090  22.385  0.00  0.00    +0.000 C 
ATOM      8  C   UNL     1       0.343  10.287  22.507  0.00  0.00    +0.000 C 
ATOM      9  N   UNL     1       0.237  10.227  21.048  0.00  0.00    +0.000 N 
ATOM     10  C   UNL     1      -0.554  11.055  20.288  0.00  0.00    +0.000 C 
ATOM     11  O   UNL     1      -1.160  11.987  20.815  0.00  0.00    +0.000 OA
BRANCH  10  12
ATOM     12  C   UNL     1      -0.581  10.829  18.787  0.00  0.00    +0.000 C 
BRANCH  12  13
ATOM     13  C   UNL     1      -1.969  10.418  18.242  0.00  0.00    +0.000 C 
ATOM     14  C   UNL     1      -2.941  11.577  17.993  0.00  0.00    +0.000 C 
ATOM     15  C   UNL     1      -3.972  11.020  17.013  0.00  0.00    +0.000 C 
ATOM     16  C   UNL     1      -3.261   9.923  16.232  0.00  0.00    +0.000 C 
ATOM     17  C   UNL     1      -1.872   9.781  16.852  0.00  0.00    +0.000 C 
ENDBRANCH  12  13
ENDBRANCH  10  12
ENDBRANCH   2   5
BRANCH   1  18
ATOM     18  S   UNL     1       3.189   6.229  19.044  0.00  0.00    +0.000 S 
ATOM     19  O   UNL     1       4.532   5.967  19.515  0.00  0.00    +0.000 OA
ATOM     20  O   UNL     1       2.974   6.852  17.748  0.00  0.00    +0.000 OA
BRANCH  18  27
ATOM     21  C   UNL     1       3.572   3.794  17.027  0.00  0.00    +0.000 C 
ATOM     22  C   UNL     1       2.535   3.679  18.111  0.00  0.00    +0.000 A 
ATOM     23  C   UNL     1       1.848   2.459  18.233  0.00  0.00    +0.000 A 
ATOM     24  C   UNL     1       0.911   2.257  19.246  0.00  0.00    +0.000 A 
ATOM     25  C   UNL     1       0.643   3.272  20.159  0.00  0.00    +0.000 A 
ATOM     26  C   UNL     1       1.318   4.491  20.065  0.00  0.00    +0.000 A 
ATOM     27  C   UNL     1       2.264   4.697  19.046  0.00  0.00    +0.000 A 
ENDBRANCH  18  27
ENDBRANCH   1  18
TORSDOF 5
ENDMDL
MODEL 7
REMARK VINA RESULT:      -6.9      0.580      1.449
REMARK  Name = 
REMARK  7 active torsions:
REMARK  status: ('A' for Active; 'I' for Inactive)
REMARK    1  A    between atoms: C_1  and  C_2
REMARK    2  A    between atoms: C_7  and  S_8
REMARK    3  A    between atoms: S_8  and  N_11
REMARK    4  A    between atoms: C_12  and  C_14
REMARK    5  A    between atoms: C_14  and  C_15
REMARK    6  A    between atoms: C_19  and  C_21
REMARK    7  A    between atoms: C_21  and  C_22
REMARK                            x       y       z     vdW  Elec       q    Type
REMARK                         _______ _______ _______ _____ _____    ______ ____
ROOT
ATOM      1  N   UNL     1       5.425   4.200  16.806  0.00  0.00    +0.000 N 
ATOM      2  C   UNL     1       5.009   3.918  18.114  0.00  0.00    +0.000 C 
ATOM      3  O   UNL     1       5.714   4.149  19.090  0.00  0.00    +0.000 OA
ATOM      4  H   UNL     1       4.746   4.116  16.055  0.00  0.00    +0.000 HD
ENDROOT
BRANCH   2   5
ATOM      5  C   UNL     1       3.538   3.306  18.177  0.00  0.00    +0.000 C 
ATOM      6  C   UNL     1       2.683   3.764  16.989  0.00  0.00    +0.000 C 
ATOM      7  C   UNL     1       3.451   1.755  18.354  0.00  0.00    +0.000 C 
ATOM      8  C   UNL     1       2.288   1.985  19.324  0.00  0.00    +0.000 C 
ATOM      9  N   UNL     1       2.801   3.348  19.464  0.00  0.00    +0.000 N 
ATOM     10  C   UNL     1       2.221   4.325  20.237  0.00  0.00    +0.000 C 
ATOM     11  O   UNL     1       1.256   4.058  20.952  0.00  0.00    +0.000 OA
BRANCH  10  12
ATOM     12  C   UNL     1       2.860   5.703  20.236  0.00  0.00    +0.000 C 
BRANCH  12  13
ATOM     13  C   UNL     1       2.119   6.735  19.353  0.00  0.00    +0.000 C 
ATOM     14  C   UNL     1       1.767   8.055  20.048  0.00  0.00    +0.000 C 
ATOM     15  C   UNL     1       1.547   9.050  18.911  0.00  0.00    +0.000 C 
ATOM     16  C   UNL     1       2.390   8.550  17.745  0.00  0.00    +0.000 C 
ATOM     17  C   UNL     1       2.985   7.214  18.184  0.00  0.00    +0.000 C 
ENDBRANCH  12  13
ENDBRANCH  10  12
ENDBRANCH   2   5
BRANCH   1  18
ATOM     18  S   UNL     1       6.697   5.186  16.379  0.00  0.00    +0.000 S 
ATOM     19  O   UNL     1       7.892   4.813  17.105  0.00  0.00    +0.000 OA
ATOM     20  O   UNL     1       6.180   6.542  16.464  0.00  0.00    +0.000 OA
BRANCH  18  27
ATOM     21  C   UNL     1       5.056   3.077  14.645  0.00  0.00    +0.000 C 
ATOM     22  C   UNL     1       6.136   3.881  13.974  0.00  0.00    +0.000 A 
ATOM     23  C   UNL     1       6.304   3.723  12.587  0.00  0.00    +0.000 A 
ATOM     24  C   UNL     1       7.247   4.472  11.884  0.00  0.00    +0.000 A 
ATOM     25  C   UNL     1       8.043   5.397  12.556  0.00  0.00    +0.000 A 
ATOM     26  C   UNL     1       7.890   5.579  13.932  0.00  0.00    +0.000 A 
ATOM     27  C   UNL     1       6.938   4.827  14.642  0.00  0.00    +0.000 A 
ENDBRANCH  18  27
ENDBRANCH   1  18
TORSDOF 5
ENDMDL
MODEL 8
REMARK VINA RESULT:      -6.9      3.626      7.978
REMARK  Name = 
REMARK  7 active torsions:
REMARK  status: ('A' for Active; 'I' for Inactive)
REMARK    1  A    between atoms: C_1  and  C_2
REMARK    2  A    between atoms: C_7  and  S_8
REMARK    3  A    between atoms: S_8  and  N_11
REMARK    4  A    between atoms: C_12  and  C_14
REMARK    5  A    between atoms: C_14  and  C_15
REMARK    6  A    between atoms: C_19  and  C_21
REMARK    7  A    between atoms: C_21  and  C_22
REMARK                            x       y       z     vdW  Elec       q    Type
REMARK                         _______ _______ _______ _____ _____    ______ ____
ROOT
ATOM      1  N   UNL     1       1.525   7.906  18.510  0.00  0.00    +0.000 N 
ATOM      2  C   UNL     1       2.611   7.356  17.815  0.00  0.00    +0.000 C 
ATOM      3  O   UNL     1       3.214   7.975  16.946  0.00  0.00    +0.000 OA
ATOM      4  H   UNL     1       1.157   7.399  19.309  0.00  0.00    +0.000 HD
ENDROOT
BRANCH   2   5
ATOM      5  C   UNL     1       2.973   5.881  18.300  0.00  0.00    +0.000 C 
ATOM      6  C   UNL     1       3.766   5.896  19.614  0.00  0.00    +0.000 C 
ATOM      7  C   UNL     1       1.777   4.879  18.390  0.00  0.00    +0.000 C 
ATOM      8  C   UNL     1       2.700   3.807  17.804  0.00  0.00    +0.000 C 
ATOM      9  N   UNL     1       3.517   4.917  17.313  0.00  0.00    +0.000 N 
ATOM     10  C   UNL     1       4.696   4.773  16.621  0.00  0.00    +0.000 C 
ATOM     11  O   UNL     1       5.085   3.655  16.287  0.00  0.00    +0.000 OA
BRANCH  10  12
ATOM     12  C   UNL     1       5.443   6.034  16.222  0.00  0.00    +0.000 C 
BRANCH  12  13
ATOM     13  C   UNL     1       6.812   6.197  16.922  0.00  0.00    +0.000 C 
ATOM     14  C   UNL     1       7.121   7.609  17.432  0.00  0.00    +0.000 C 
ATOM     15  C   UNL     1       8.203   7.416  18.491  0.00  0.00    +0.000 C 
ATOM     16  C   UNL     1       8.009   6.008  19.040  0.00  0.00    +0.000 C 
ATOM     17  C   UNL     1       6.898   5.369  18.208  0.00  0.00    +0.000 C 
ENDBRANCH  12  13
ENDBRANCH  10  12
ENDBRANCH   2   5
BRANCH   1  18
ATOM     18  S   UNL     1       1.118   9.520  18.563  0.00  0.00    +0.000 S 
ATOM     19  O   UNL     1      -0.007   9.787  17.694  0.00  0.00    +0.000 OA
ATOM     20  O   UNL     1       2.370  10.238  18.386  0.00  0.00    +0.000 OA
BRANCH  18  27
ATOM     21  C   UNL     1       0.026  12.230  19.830  0.00  0.00    +0.000 C 
ATOM     22  C   UNL     1       0.126  11.011  20.706  0.00  0.00    +0.000 A 
ATOM     23  C   UNL     1      -0.357  11.109  22.023  0.00  0.00    +0.000 A 
ATOM     24  C   UNL     1      -0.349  10.009  22.878  0.00  0.00    +0.000 A 
ATOM     25  C   UNL     1       0.143   8.785  22.434  0.00  0.00    +0.000 A 
ATOM     26  C   UNL     1       0.621   8.658  21.128  0.00  0.00    +0.000 A 
ATOM     27  C   UNL     1       0.611   9.766  20.262  0.00  0.00    +0.000 A 
ENDBRANCH  18  27
ENDBRANCH   1  18
TORSDOF 5
ENDMDL
MODEL 9
REMARK VINA RESULT:      -6.9      2.609      7.407
REMARK  Name = 
REMARK  7 active torsions:
REMARK  status: ('A' for Active; 'I' for Inactive)
REMARK    1  A    between atoms: C_1  and  C_2
REMARK    2  A    between atoms: C_7  and  S_8
REMARK    3  A    between atoms: S_8  and  N_11
REMARK    4  A    between atoms: C_12  and  C_14
REMARK    5  A    between atoms: C_14  and  C_15
REMARK    6  A    between atoms: C_19  and  C_21
REMARK    7  A    between atoms: C_21  and  C_22
REMARK                            x       y       z     vdW  Elec       q    Type
REMARK                         _______ _______ _______ _____ _____    ______ ____
ROOT
ATOM      1  N   UNL     1       3.995   4.225  17.358  0.00  0.00    +0.000 N 
ATOM      2  C   UNL     1       5.265   4.589  17.828  0.00  0.00    +0.000 C 
ATOM      3  O   UNL     1       5.848   3.953  18.699  0.00  0.00    +0.000 OA
ATOM      4  H   UNL     1       3.626   4.707  16.544  0.00  0.00    +0.000 HD
ENDROOT
BRANCH   2   5
ATOM      5  C   UNL     1       5.851   5.876  17.092  0.00  0.00    +0.000 C 
ATOM      6  C   UNL     1       4.733   6.788  16.571  0.00  0.00    +0.000 C 
ATOM      7  C   UNL     1       6.905   6.702  17.898  0.00  0.00    +0.000 C 
ATOM      8  C   UNL     1       7.694   6.865  16.596  0.00  0.00    +0.000 C 
ATOM      9  N   UNL     1       6.951   5.700  16.114  0.00  0.00    +0.000 N 
ATOM     10  C   UNL     1       7.076   5.160  14.856  0.00  0.00    +0.000 C 
ATOM     11  O   UNL     1       7.925   5.593  14.078  0.00  0.00    +0.000 OA
BRANCH  10  12
ATOM     12  C   UNL     1       6.196   3.974  14.503  0.00  0.00    +0.000 C 
BRANCH  12  13
ATOM     13  C   UNL     1       5.973   3.793  12.983  0.00  0.00    +0.000 C 
ATOM     14  C   UNL     1       6.503   2.479  12.397  0.00  0.00    +0.000 C 
ATOM     15  C   UNL     1       5.737   2.296  11.089  0.00  0.00    +0.000 C 
ATOM     16  C   UNL     1       4.413   3.027  11.270  0.00  0.00    +0.000 C 
ATOM     17  C   UNL     1       4.483   3.719  12.630  0.00  0.00    +0.000 C 
ENDBRANCH  12  13
ENDBRANCH  10  12
ENDBRANCH   2   5
BRANCH   1  18
ATOM     18  S   UNL     1       3.255   2.751  17.590  0.00  0.00    +0.000 S 
ATOM     19  O   UNL     1       4.239   1.690  17.616  0.00  0.00    +0.000 OA
ATOM     20  O   UNL     1       2.160   2.715  16.634  0.00  0.00    +0.000 OA
BRANCH  18  27
ATOM     21  C   UNL     1       4.544   1.778  20.336  0.00  0.00    +0.000 C 
ATOM     22  C   UNL     1       3.199   2.449  20.367  0.00  0.00    +0.000 A 
ATOM     23  C   UNL     1       2.618   2.696  21.623  0.00  0.00    +0.000 A 
ATOM     24  C   UNL     1       1.398   3.362  21.737  0.00  0.00    +0.000 A 
ATOM     25  C   UNL     1       0.733   3.797  20.594  0.00  0.00    +0.000 A 
ATOM     26  C   UNL     1       1.293   3.573  19.334  0.00  0.00    +0.000 A 
ATOM     27  C   UNL     1       2.523   2.904  19.217  0.00  0.00    +0.000 A 
ENDBRANCH  18  27
ENDBRANCH   1  18
TORSDOF 5
ENDMDL
