MODEL 1
REMARK VINA RESULT:      -8.8      0.000      0.000
REMARK  Name = 
REMARK  6 active torsions:
REMARK  status: ('A' for Active; 'I' for Inactive)
REMARK    1  A    between atoms: C_1  and  O_2
REMARK    2  A    between atoms: O_2  and  C_3
REMARK    3  A    between atoms: C_7  and  C_8
REMARK    4  A    between atoms: C_8  and  C_9
REMARK    5  A    between atoms: C_12  and  C_13
REMARK    6  A    between atoms: C_22  and  O_23
REMARK                            x       y       z     vdW  Elec       q    Type
REMARK                         _______ _______ _______ _____ _____    ______ ____
ROOT
ATOM      1  C   UNL     1       6.709   4.454  14.981  0.00  0.00    +0.000 A 
ATOM      2  N   UNL     1       7.554   4.671  15.965  0.00  0.00    +0.000 NA
ATOM      3  N   UNL     1       6.860   4.565  17.150  0.00  0.00    +0.000 NA
ATOM      4  C   UNL     1       5.593   4.287  16.878  0.00  0.00    +0.000 A 
ATOM      5  N   UNL     1       5.495   4.120  15.514  0.00  0.00    +0.000 N 
ATOM      6  H   UNL     1       4.636   3.913  15.023  0.00  0.00    +0.000 HD
ENDROOT
BRANCH   4   7
ATOM      7  C   UNL     1       4.456   4.257  17.793  0.00  0.00    +0.000 A 
ATOM      8  N   UNL     1       3.341   4.884  17.342  0.00  0.00    +0.000 NA
ATOM      9  C   UNL     1       2.213   4.762  18.074  0.00  0.00    +0.000 A 
ATOM     10  C   UNL     1       2.131   4.022  19.254  0.00  0.00    +0.000 A 
ATOM     11  C   UNL     1       0.940   3.841  19.974  0.00  0.00    +0.000 A 
ATOM     12  C   UNL     1       0.955   3.063  21.125  0.00  0.00    +0.000 A 
ATOM     13  C   UNL     1       2.161   2.517  21.530  0.00  0.00    +0.000 A 
ATOM     14  N   UNL     1       3.327   2.679  20.863  0.00  0.00    +0.000 NA
ATOM     15  C   UNL     1       3.301   3.415  19.730  0.00  0.00    +0.000 A 
ATOM     16  C   UNL     1       4.468   3.550  18.992  0.00  0.00    +0.000 A 
BRANCH  16  17
ATOM     17  O   UNL     1       5.609   2.929  19.463  0.00  0.00    +0.000 OA
ATOM     18  H   UNL     1       5.363   2.666  20.380  0.00  0.00    +0.000 HD
ENDBRANCH  16  17
ENDBRANCH   4   7
BRANCH   1  19
ATOM     19  C   UNL     1       6.953   4.643  13.522  0.00  0.00    +0.000 C 
BRANCH  19  24
ATOM     20  C   UNL     1       5.979   1.683  11.307  0.00  0.00    +0.000 A 
ATOM     21  C   UNL     1       4.690   2.056  10.920  0.00  0.00    +0.000 A 
ATOM     22  C   UNL     1       4.117   3.232  11.405  0.00  0.00    +0.000 A 
ATOM     23  C   UNL     1       4.846   4.062  12.253  0.00  0.00    +0.000 A 
ATOM     24  C   UNL     1       6.151   3.722  12.632  0.00  0.00    +0.000 A 
ATOM     25  C   UNL     1       6.693   2.502  12.187  0.00  0.00    +0.000 A 
BRANCH  20  27
ATOM     26  C   UNL     1       6.030  -0.695  11.362  0.00  0.00    +0.000 C 
ATOM     27  O   UNL     1       6.434   0.521  10.746  0.00  0.00    +0.000 OA
ENDBRANCH  20  27
ENDBRANCH  19  24
ENDBRANCH   1  19
TORSDOF 5
ENDMDL
MODEL 2
REMARK VINA RESULT:      -8.6      0.984      1.769
REMARK  Name = 
REMARK  6 active torsions:
REMARK  status: ('A' for Active; 'I' for Inactive)
REMARK    1  A    between atoms: C_1  and  O_2
REMARK    2  A    between atoms: O_2  and  C_3
REMARK    3  A    between atoms: C_7  and  C_8
REMARK    4  A    between atoms: C_8  and  C_9
REMARK    5  A    between atoms: C_12  and  C_13
REMARK    6  A    between atoms: C_22  and  O_23
REMARK                            x       y       z     vdW  Elec       q    Type
REMARK                         _______ _______ _______ _____ _____    ______ ____
ROOT
ATOM      1  C   UNL     1       6.664   4.476  14.915  0.00  0.00    +0.000 A 
ATOM      2  N   UNL     1       7.495   4.670  15.917  0.00  0.00    +0.000 NA
ATOM      3  N   UNL     1       6.785   4.530  17.089  0.00  0.00    +0.000 NA
ATOM      4  C   UNL     1       5.523   4.253  16.791  0.00  0.00    +0.000 A 
ATOM      5  N   UNL     1       5.445   4.123  15.422  0.00  0.00    +0.000 N 
ATOM      6  H   UNL     1       4.594   3.925  14.914  0.00  0.00    +0.000 HD
ENDROOT
BRANCH   4   7
ATOM      7  C   UNL     1       4.374   4.194  17.689  0.00  0.00    +0.000 A 
ATOM      8  N   UNL     1       3.223   4.699  17.181  0.00  0.00    +0.000 NA
ATOM      9  C   UNL     1       2.093   4.537  17.903  0.00  0.00    +0.000 A 
ATOM     10  C   UNL     1       2.046   3.873  19.128  0.00  0.00    +0.000 A 
ATOM     11  C   UNL     1       0.858   3.646  19.842  0.00  0.00    +0.000 A 
ATOM     12  C   UNL     1       0.911   2.950  21.043  0.00  0.00    +0.000 A 
ATOM     13  C   UNL     1       2.148   2.529  21.502  0.00  0.00    +0.000 A 
ATOM     14  N   UNL     1       3.310   2.738  20.843  0.00  0.00    +0.000 NA
ATOM     15  C   UNL     1       3.249   3.394  19.662  0.00  0.00    +0.000 A 
ATOM     16  C   UNL     1       4.417   3.571  18.934  0.00  0.00    +0.000 A 
BRANCH  16  17
ATOM     17  O   UNL     1       5.593   3.076  19.463  0.00  0.00    +0.000 OA
ATOM     18  H   UNL     1       5.925   3.819  20.017  0.00  0.00    +0.000 HD
ENDBRANCH  16  17
ENDBRANCH   4   7
BRANCH   1  19
ATOM     19  C   UNL     1       6.928   4.705  13.465  0.00  0.00    +0.000 C 
BRANCH  19  24
ATOM     20  C   UNL     1       4.342   3.010  11.215  0.00  0.00    +0.000 A 
ATOM     21  C   UNL     1       4.999   1.817  10.910  0.00  0.00    +0.000 A 
ATOM     22  C   UNL     1       6.288   1.576  11.386  0.00  0.00    +0.000 A 
ATOM     23  C   UNL     1       6.914   2.514  12.205  0.00  0.00    +0.000 A 
ATOM     24  C   UNL     1       6.262   3.706  12.547  0.00  0.00    +0.000 A 
ATOM     25  C   UNL     1       4.989   3.965  12.007  0.00  0.00    +0.000 A 
BRANCH  20  27
ATOM     26  C   UNL     1       2.857   4.125   9.728  0.00  0.00    +0.000 C 
ATOM     27  O   UNL     1       3.077   3.117  10.706  0.00  0.00    +0.000 OA
ENDBRANCH  20  27
ENDBRANCH  19  24
ENDBRANCH   1  19
TORSDOF 5
ENDMDL
MODEL 3
REMARK VINA RESULT:      -8.2      1.400      2.020
REMARK  Name = 
REMARK  6 active torsions:
REMARK  status: ('A' for Active; 'I' for Inactive)
REMARK    1  A    between atoms: C_1  and  O_2
REMARK    2  A    between atoms: O_2  and  C_3
REMARK    3  A    between atoms: C_7  and  C_8
REMARK    4  A    between atoms: C_8  and  C_9
REMARK    5  A    between atoms: C_12  and  C_13
REMARK    6  A    between atoms: C_22  and  O_23
REMARK                            x       y       z     vdW  Elec       q    Type
REMARK                         _______ _______ _______ _____ _____    ______ ____
ROOT
ATOM      1  C   UNL     1       6.906   4.617  14.872  0.00  0.00    +0.000 A 
ATOM      2  N   UNL     1       7.832   4.753  15.798  0.00  0.00    +0.000 NA
ATOM      3  N   UNL     1       7.224   4.627  17.027  0.00  0.00    +0.000 NA
ATOM      4  C   UNL     1       5.928   4.417  16.841  0.00  0.00    +0.000 A 
ATOM      5  N   UNL     1       5.721   4.315  15.483  0.00  0.00    +0.000 N 
ATOM      6  H   UNL     1       4.819   4.167  15.052  0.00  0.00    +0.000 HD
ENDROOT
BRANCH   4   7
ATOM      7  C   UNL     1       4.862   4.397  17.838  0.00  0.00    +0.000 A 
ATOM      8  N   UNL     1       4.634   5.582  18.457  0.00  0.00    +0.000 NA
ATOM      9  C   UNL     1       3.565   5.667  19.278  0.00  0.00    +0.000 A 
ATOM     10  C   UNL     1       2.684   4.612  19.512  0.00  0.00    +0.000 A 
ATOM     11  C   UNL     1       1.535   4.724  20.311  0.00  0.00    +0.000 A 
ATOM     12  C   UNL     1       0.703   3.622  20.463  0.00  0.00    +0.000 A 
ATOM     13  C   UNL     1       1.061   2.441  19.834  0.00  0.00    +0.000 A 
ATOM     14  N   UNL     1       2.164   2.297  19.065  0.00  0.00    +0.000 NA
ATOM     15  C   UNL     1       2.955   3.381  18.900  0.00  0.00    +0.000 A 
ATOM     16  C   UNL     1       4.062   3.282  18.068  0.00  0.00    +0.000 A 
BRANCH  16  17
ATOM     17  O   UNL     1       4.306   2.068  17.456  0.00  0.00    +0.000 OA
ATOM     18  H   UNL     1       3.563   1.502  17.767  0.00  0.00    +0.000 HD
ENDBRANCH  16  17
ENDBRANCH   4   7
BRANCH   1  19
ATOM     19  C   UNL     1       7.050   4.859  13.408  0.00  0.00    +0.000 C 
BRANCH  19  24
ATOM     20  C   UNL     1       4.509   2.951  11.282  0.00  0.00    +0.000 A 
ATOM     21  C   UNL     1       5.227   1.790  10.991  0.00  0.00    +0.000 A 
ATOM     22  C   UNL     1       6.541   1.639  11.436  0.00  0.00    +0.000 A 
ATOM     23  C   UNL     1       7.132   2.636  12.210  0.00  0.00    +0.000 A 
ATOM     24  C   UNL     1       6.420   3.797  12.538  0.00  0.00    +0.000 A 
ATOM     25  C   UNL     1       5.119   3.964  12.028  0.00  0.00    +0.000 A 
BRANCH  20  27
ATOM     26  C   UNL     1       2.945   3.861   9.737  0.00  0.00    +0.000 C 
ATOM     27  O   UNL     1       3.226   2.968  10.807  0.00  0.00    +0.000 OA
ENDBRANCH  20  27
ENDBRANCH  19  24
ENDBRANCH   1  19
TORSDOF 5
ENDMDL
MODEL 4
REMARK VINA RESULT:      -8.2      1.114      1.173
REMARK  Name = 
REMARK  6 active torsions:
REMARK  status: ('A' for Active; 'I' for Inactive)
REMARK    1  A    between atoms: C_1  and  O_2
REMARK    2  A    between atoms: O_2  and  C_3
REMARK    3  A    between atoms: C_7  and  C_8
REMARK    4  A    between atoms: C_8  and  C_9
REMARK    5  A    between atoms: C_12  and  C_13
REMARK    6  A    between atoms: C_22  and  O_23
REMARK                            x       y       z     vdW  Elec       q    Type
REMARK                         _______ _______ _______ _____ _____    ______ ____
ROOT
ATOM      1  C   UNL     1       6.948   4.888  14.568  0.00  0.00    +0.000 A 
ATOM      2  N   UNL     1       7.767   5.440  15.438  0.00  0.00    +0.000 NA
ATOM      3  N   UNL     1       7.166   5.389  16.676  0.00  0.00    +0.000 NA
ATOM      4  C   UNL     1       5.981   4.808  16.551  0.00  0.00    +0.000 A 
ATOM      5  N   UNL     1       5.863   4.399  15.241  0.00  0.00    +0.000 N 
ATOM      6  H   UNL     1       5.051   3.936  14.857  0.00  0.00    +0.000 HD
ENDROOT
BRANCH   4   7
ATOM      7  C   UNL     1       4.920   4.691  17.547  0.00  0.00    +0.000 A 
ATOM      8  N   UNL     1       4.599   5.846  18.180  0.00  0.00    +0.000 NA
ATOM      9  C   UNL     1       3.526   5.835  19.000  0.00  0.00    +0.000 A 
ATOM     10  C   UNL     1       2.731   4.711  19.220  0.00  0.00    +0.000 A 
ATOM     11  C   UNL     1       1.577   4.721  20.020  0.00  0.00    +0.000 A 
ATOM     12  C   UNL     1       0.835   3.555  20.156  0.00  0.00    +0.000 A 
ATOM     13  C   UNL     1       1.286   2.414  19.514  0.00  0.00    +0.000 A 
ATOM     14  N   UNL     1       2.398   2.368  18.744  0.00  0.00    +0.000 NA
ATOM     15  C   UNL     1       3.100   3.513  18.594  0.00  0.00    +0.000 A 
ATOM     16  C   UNL     1       4.211   3.513  17.762  0.00  0.00    +0.000 A 
BRANCH  16  17
ATOM     17  O   UNL     1       4.551   2.330  17.135  0.00  0.00    +0.000 OA
ATOM     18  H   UNL     1       5.534   2.314  17.195  0.00  0.00    +0.000 HD
ENDBRANCH  16  17
ENDBRANCH   4   7
BRANCH   1  19
ATOM     19  C   UNL     1       7.081   4.879  13.083  0.00  0.00    +0.000 C 
BRANCH  19  24
ATOM     20  C   UNL     1       6.053   1.660  11.294  0.00  0.00    +0.000 A 
ATOM     21  C   UNL     1       4.706   1.920  11.037  0.00  0.00    +0.000 A 
ATOM     22  C   UNL     1       4.116   3.105  11.477  0.00  0.00    +0.000 A 
ATOM     23  C   UNL     1       4.883   4.056  12.147  0.00  0.00    +0.000 A 
ATOM     24  C   UNL     1       6.243   3.829  12.391  0.00  0.00    +0.000 A 
ATOM     25  C   UNL     1       6.810   2.603  11.997  0.00  0.00    +0.000 A 
BRANCH  20  27
ATOM     26  C   UNL     1       5.988  -0.717  11.360  0.00  0.00    +0.000 C 
ATOM     27  O   UNL     1       6.516   0.475  10.792  0.00  0.00    +0.000 OA
ENDBRANCH  20  27
ENDBRANCH  19  24
ENDBRANCH   1  19
TORSDOF 5
ENDMDL
MODEL 5
REMARK VINA RESULT:      -8.1      3.295      4.255
REMARK  Name = 
REMARK  6 active torsions:
REMARK  status: ('A' for Active; 'I' for Inactive)
REMARK    1  A    between atoms: C_1  and  O_2
REMARK    2  A    between atoms: O_2  and  C_3
REMARK    3  A    between atoms: C_7  and  C_8
REMARK    4  A    between atoms: C_8  and  C_9
REMARK    5  A    between atoms: C_12  and  C_13
REMARK    6  A    between atoms: C_22  and  O_23
REMARK                            x       y       z     vdW  Elec       q    Type
REMARK                         _______ _______ _______ _____ _____    ______ ____
ROOT
ATOM      1  C   UNL     1       5.148   4.864  16.725  0.00  0.00    +0.000 A 
ATOM      2  N   UNL     1       4.179   4.044  17.073  0.00  0.00    +0.000 NA
ATOM      3  N   UNL     1       3.164   4.797  17.620  0.00  0.00    +0.000 NA
ATOM      4  C   UNL     1       3.523   6.073  17.604  0.00  0.00    +0.000 A 
ATOM      5  N   UNL     1       4.737   6.147  16.957  0.00  0.00    +0.000 N 
ATOM      6  H   UNL     1       5.255   7.002  16.811  0.00  0.00    +0.000 HD
ENDROOT
BRANCH   4   7
ATOM      7  C   UNL     1       2.854   7.209  18.230  0.00  0.00    +0.000 A 
ATOM      8  N   UNL     1       2.614   8.258  17.406  0.00  0.00    +0.000 NA
ATOM      9  C   UNL     1       1.866   9.276  17.885  0.00  0.00    +0.000 A 
ATOM     10  C   UNL     1       1.323   9.299  19.170  0.00  0.00    +0.000 A 
ATOM     11  C   UNL     1       0.490  10.326  19.640  0.00  0.00    +0.000 A 
ATOM     12  C   UNL     1      -0.025  10.245  20.929  0.00  0.00    +0.000 A 
ATOM     13  C   UNL     1       0.333   9.159  21.709  0.00  0.00    +0.000 A 
ATOM     14  N   UNL     1       1.139   8.157  21.288  0.00  0.00    +0.000 NA
ATOM     15  C   UNL     1       1.615   8.228  20.026  0.00  0.00    +0.000 A 
ATOM     16  C   UNL     1       2.397   7.187  19.545  0.00  0.00    +0.000 A 
BRANCH  16  17
ATOM     17  O   UNL     1       2.660   6.129  20.392  0.00  0.00    +0.000 OA
ATOM     18  H   UNL     1       2.496   5.338  19.828  0.00  0.00    +0.000 HD
ENDBRANCH  16  17
ENDBRANCH   4   7
BRANCH   1  19
ATOM     19  C   UNL     1       6.519   4.500  16.266  0.00  0.00    +0.000 C 
BRANCH  19  24
ATOM     20  C   UNL     1       6.061   3.507  12.602  0.00  0.00    +0.000 A 
ATOM     21  C   UNL     1       7.033   4.302  11.990  0.00  0.00    +0.000 A 
ATOM     22  C   UNL     1       7.802   5.188  12.744  0.00  0.00    +0.000 A 
ATOM     23  C   UNL     1       7.628   5.257  14.125  0.00  0.00    +0.000 A 
ATOM     24  C   UNL     1       6.678   4.450  14.764  0.00  0.00    +0.000 A 
ATOM     25  C   UNL     1       5.866   3.607  13.983  0.00  0.00    +0.000 A 
BRANCH  20  27
ATOM     26  C   UNL     1       4.149   3.127  11.239  0.00  0.00    +0.000 C 
ATOM     27  O   UNL     1       5.390   2.666  11.757  0.00  0.00    +0.000 OA
ENDBRANCH  20  27
ENDBRANCH  19  24
ENDBRANCH   1  19
TORSDOF 5
ENDMDL
MODEL 6
REMARK VINA RESULT:      -8.1      1.670      2.304
REMARK  Name = 
REMARK  6 active torsions:
REMARK  status: ('A' for Active; 'I' for Inactive)
REMARK    1  A    between atoms: C_1  and  O_2
REMARK    2  A    between atoms: O_2  and  C_3
REMARK    3  A    between atoms: C_7  and  C_8
REMARK    4  A    between atoms: C_8  and  C_9
REMARK    5  A    between atoms: C_12  and  C_13
REMARK    6  A    between atoms: C_22  and  O_23
REMARK                            x       y       z     vdW  Elec       q    Type
REMARK                         _______ _______ _______ _____ _____    ______ ____
ROOT
ATOM      1  C   UNL     1       6.976   4.749  14.540  0.00  0.00    +0.000 A 
ATOM      2  N   UNL     1       7.435   5.575  15.456  0.00  0.00    +0.000 NA
ATOM      3  N   UNL     1       6.659   5.430  16.584  0.00  0.00    +0.000 NA
ATOM      4  C   UNL     1       5.728   4.517  16.347  0.00  0.00    +0.000 A 
ATOM      5  N   UNL     1       5.968   4.006  15.090  0.00  0.00    +0.000 N 
ATOM      6  H   UNL     1       5.402   3.299  14.642  0.00  0.00    +0.000 HD
ENDROOT
BRANCH   4   7
ATOM      7  C   UNL     1       4.581   4.157  17.174  0.00  0.00    +0.000 A 
ATOM      8  N   UNL     1       4.240   2.845  17.142  0.00  0.00    +0.000 NA
ATOM      9  C   UNL     1       3.285   2.423  17.999  0.00  0.00    +0.000 A 
ATOM     10  C   UNL     1       2.645   3.256  18.916  0.00  0.00    +0.000 A 
ATOM     11  C   UNL     1       1.703   2.800  19.852  0.00  0.00    +0.000 A 
ATOM     12  C   UNL     1       1.140   3.704  20.743  0.00  0.00    +0.000 A 
ATOM     13  C   UNL     1       1.514   5.034  20.651  0.00  0.00    +0.000 A 
ATOM     14  N   UNL     1       2.412   5.507  19.756  0.00  0.00    +0.000 NA
ATOM     15  C   UNL     1       2.976   4.618  18.909  0.00  0.00    +0.000 A 
ATOM     16  C   UNL     1       3.945   5.062  18.019  0.00  0.00    +0.000 A 
BRANCH  16  17
ATOM     17  O   UNL     1       4.276   6.403  18.038  0.00  0.00    +0.000 OA
ATOM     18  H   UNL     1       4.966   6.477  17.339  0.00  0.00    +0.000 HD
ENDBRANCH  16  17
ENDBRANCH   4   7
BRANCH   1  19
ATOM     19  C   UNL     1       7.372   4.681  13.104  0.00  0.00    +0.000 C 
BRANCH  19  24
ATOM     20  C   UNL     1       4.543   2.914  11.236  0.00  0.00    +0.000 A 
ATOM     21  C   UNL     1       5.173   1.724  10.868  0.00  0.00    +0.000 A 
ATOM     22  C   UNL     1       6.516   1.507  11.177  0.00  0.00    +0.000 A 
ATOM     23  C   UNL     1       7.228   2.468  11.893  0.00  0.00    +0.000 A 
ATOM     24  C   UNL     1       6.608   3.658  12.296  0.00  0.00    +0.000 A 
ATOM     25  C   UNL     1       5.272   3.891  11.922  0.00  0.00    +0.000 A 
BRANCH  20  27
ATOM     26  C   UNL     1       2.893   3.812   9.776  0.00  0.00    +0.000 C 
ATOM     27  O   UNL     1       3.221   2.995  10.892  0.00  0.00    +0.000 OA
ENDBRANCH  20  27
ENDBRANCH  19  24
ENDBRANCH   1  19
TORSDOF 5
ENDMDL
MODEL 7
REMARK VINA RESULT:      -8.0      5.995      8.507
REMARK  Name = 
REMARK  6 active torsions:
REMARK  status: ('A' for Active; 'I' for Inactive)
REMARK    1  A    between atoms: C_1  and  O_2
REMARK    2  A    between atoms: O_2  and  C_3
REMARK    3  A    between atoms: C_7  and  C_8
REMARK    4  A    between atoms: C_8  and  C_9
REMARK    5  A    between atoms: C_12  and  C_13
REMARK    6  A    between atoms: C_22  and  O_23
REMARK                            x       y       z     vdW  Elec       q    Type
REMARK                         _______ _______ _______ _____ _____    ______ ____
ROOT
ATOM      1  C   UNL     1       8.119   8.893  17.873  0.00  0.00    +0.000 A 
ATOM      2  N   UNL     1       8.820   8.126  18.681  0.00  0.00    +0.000 NA
ATOM      3  N   UNL     1       8.187   6.906  18.761  0.00  0.00    +0.000 NA
ATOM      4  C   UNL     1       7.100   6.939  18.003  0.00  0.00    +0.000 A 
ATOM      5  N   UNL     1       7.088   8.157  17.359  0.00  0.00    +0.000 N 
ATOM      6  H   UNL     1       6.363   8.461  16.724  0.00  0.00    +0.000 HD
ENDROOT
BRANCH   4   7
ATOM      7  C   UNL     1       6.030   5.951  17.912  0.00  0.00    +0.000 A 
ATOM      8  N   UNL     1       5.312   5.989  16.762  0.00  0.00    +0.000 NA
ATOM      9  C   UNL     1       4.410   5.006  16.552  0.00  0.00    +0.000 A 
ATOM     10  C   UNL     1       4.186   3.957  17.444  0.00  0.00    +0.000 A 
ATOM     11  C   UNL     1       3.297   2.901  17.191  0.00  0.00    +0.000 A 
ATOM     12  C   UNL     1       3.164   1.886  18.131  0.00  0.00    +0.000 A 
ATOM     13  C   UNL     1       3.900   1.976  19.300  0.00  0.00    +0.000 A 
ATOM     14  N   UNL     1       4.759   2.984  19.577  0.00  0.00    +0.000 NA
ATOM     15  C   UNL     1       4.904   3.954  18.647  0.00  0.00    +0.000 A 
ATOM     16  C   UNL     1       5.821   4.970  18.877  0.00  0.00    +0.000 A 
BRANCH  16  17
ATOM     17  O   UNL     1       6.536   4.943  20.058  0.00  0.00    +0.000 OA
ATOM     18  H   UNL     1       7.364   5.428  19.835  0.00  0.00    +0.000 HD
ENDBRANCH  16  17
ENDBRANCH   4   7
BRANCH   1  19
ATOM     19  C   UNL     1       8.306  10.352  17.624  0.00  0.00    +0.000 C 
BRANCH  19  24
ATOM     20  C   UNL     1      10.187  11.993  20.520  0.00  0.00    +0.000 A 
ATOM     21  C   UNL     1      11.427  12.234  19.926  0.00  0.00    +0.000 A 
ATOM     22  C   UNL     1      11.676  11.829  18.614  0.00  0.00    +0.000 A 
ATOM     23  C   UNL     1      10.669  11.213  17.874  0.00  0.00    +0.000 A 
ATOM     24  C   UNL     1       9.408  10.986  18.441  0.00  0.00    +0.000 A 
ATOM     25  C   UNL     1       9.192  11.341  19.785  0.00  0.00    +0.000 A 
BRANCH  20  27
ATOM     26  C   UNL     1       9.277  13.626  21.991  0.00  0.00    +0.000 C 
ATOM     27  O   UNL     1      10.063  12.456  21.801  0.00  0.00    +0.000 OA
ENDBRANCH  20  27
ENDBRANCH  19  24
ENDBRANCH   1  19
TORSDOF 5
ENDMDL
MODEL 8
REMARK VINA RESULT:      -7.9      4.250      6.164
REMARK  Name = 
REMARK  6 active torsions:
REMARK  status: ('A' for Active; 'I' for Inactive)
REMARK    1  A    between atoms: C_1  and  O_2
REMARK    2  A    between atoms: O_2  and  C_3
REMARK    3  A    between atoms: C_7  and  C_8
REMARK    4  A    between atoms: C_8  and  C_9
REMARK    5  A    between atoms: C_12  and  C_13
REMARK    6  A    between atoms: C_22  and  O_23
REMARK                            x       y       z     vdW  Elec       q    Type
REMARK                         _______ _______ _______ _____ _____    ______ ____
ROOT
ATOM      1  C   UNL     1       3.375   4.379  18.274  0.00  0.00    +0.000 A 
ATOM      2  N   UNL     1       3.480   4.332  19.585  0.00  0.00    +0.000 NA
ATOM      3  N   UNL     1       2.978   5.510  20.092  0.00  0.00    +0.000 NA
ATOM      4  C   UNL     1       2.572   6.269  19.084  0.00  0.00    +0.000 A 
ATOM      5  N   UNL     1       2.730   5.534  17.930  0.00  0.00    +0.000 N 
ATOM      6  H   UNL     1       2.512   5.872  17.003  0.00  0.00    +0.000 HD
ENDROOT
BRANCH   4   7
ATOM      7  C   UNL     1       2.137   7.662  19.119  0.00  0.00    +0.000 A 
ATOM      8  N   UNL     1       2.174   8.304  17.925  0.00  0.00    +0.000 NA
ATOM      9  C   UNL     1       1.643   9.544  17.861  0.00  0.00    +0.000 A 
ATOM     10  C   UNL     1       1.052  10.189  18.947  0.00  0.00    +0.000 A 
ATOM     11  C   UNL     1       0.440  11.450  18.860  0.00  0.00    +0.000 A 
ATOM     12  C   UNL     1      -0.146  11.999  19.994  0.00  0.00    +0.000 A 
ATOM     13  C   UNL     1      -0.076  11.285  21.178  0.00  0.00    +0.000 A 
ATOM     14  N   UNL     1       0.514  10.073  21.297  0.00  0.00    +0.000 NA
ATOM     15  C   UNL     1       1.059   9.532  20.185  0.00  0.00    +0.000 A 
ATOM     16  C   UNL     1       1.618   8.264  20.261  0.00  0.00    +0.000 A 
BRANCH  16  17
ATOM     17  O   UNL     1       1.599   7.620  21.483  0.00  0.00    +0.000 OA
ATOM     18  H   UNL     1       0.934   8.130  22.000  0.00  0.00    +0.000 HD
ENDBRANCH  16  17
ENDBRANCH   4   7
BRANCH   1  19
ATOM     19  C   UNL     1       3.952   3.422  17.286  0.00  0.00    +0.000 C 
BRANCH  19  24
ATOM     20  C   UNL     1       6.879   5.606  16.154  0.00  0.00    +0.000 A 
ATOM     21  C   UNL     1       7.114   5.091  14.878  0.00  0.00    +0.000 A 
ATOM     22  C   UNL     1       6.367   4.014  14.399  0.00  0.00    +0.000 A 
ATOM     23  C   UNL     1       5.351   3.470  15.182  0.00  0.00    +0.000 A 
ATOM     24  C   UNL     1       5.079   3.989  16.455  0.00  0.00    +0.000 A 
ATOM     25  C   UNL     1       5.882   5.032  16.951  0.00  0.00    +0.000 A 
BRANCH  20  27
ATOM     26  C   UNL     1       7.643   7.076  17.861  0.00  0.00    +0.000 C 
ATOM     27  O   UNL     1       7.663   6.672  16.498  0.00  0.00    +0.000 OA
ENDBRANCH  20  27
ENDBRANCH  19  24
ENDBRANCH   1  19
TORSDOF 5
ENDMDL
MODEL 9
REMARK VINA RESULT:      -7.9      1.393      1.800
REMARK  Name = 
REMARK  6 active torsions:
REMARK  status: ('A' for Active; 'I' for Inactive)
REMARK    1  A    between atoms: C_1  and  O_2
REMARK    2  A    between atoms: O_2  and  C_3
REMARK    3  A    between atoms: C_7  and  C_8
REMARK    4  A    between atoms: C_8  and  C_9
REMARK    5  A    between atoms: C_12  and  C_13
REMARK    6  A    between atoms: C_22  and  O_23
REMARK                            x       y       z     vdW  Elec       q    Type
REMARK                         _______ _______ _______ _____ _____    ______ ____
ROOT
ATOM      1  C   UNL     1       6.273   4.994  14.958  0.00  0.00    +0.000 A 
ATOM      2  N   UNL     1       5.692   6.138  15.249  0.00  0.00    +0.000 NA
ATOM      3  N   UNL     1       4.997   5.973  16.427  0.00  0.00    +0.000 NA
ATOM      4  C   UNL     1       5.158   4.725  16.844  0.00  0.00    +0.000 A 
ATOM      5  N   UNL     1       6.037   4.114  15.977  0.00  0.00    +0.000 N 
ATOM      6  H   UNL     1       6.332   3.150  16.046  0.00  0.00    +0.000 HD
ENDROOT
BRANCH   4   7
ATOM      7  C   UNL     1       4.476   4.042  17.939  0.00  0.00    +0.000 A 
ATOM      8  N   UNL     1       5.294   3.414  18.820  0.00  0.00    +0.000 NA
ATOM      9  C   UNL     1       4.735   2.893  19.934  0.00  0.00    +0.000 A 
ATOM     10  C   UNL     1       3.375   2.977  20.230  0.00  0.00    +0.000 A 
ATOM     11  C   UNL     1       2.810   2.496  21.421  0.00  0.00    +0.000 A 
ATOM     12  C   UNL     1       1.446   2.650  21.636  0.00  0.00    +0.000 A 
ATOM     13  C   UNL     1       0.691   3.254  20.644  0.00  0.00    +0.000 A 
ATOM     14  N   UNL     1       1.204   3.721  19.482  0.00  0.00    +0.000 NA
ATOM     15  C   UNL     1       2.535   3.591  19.291  0.00  0.00    +0.000 A 
ATOM     16  C   UNL     1       3.100   4.113  18.135  0.00  0.00    +0.000 A 
BRANCH  16  17
ATOM     17  O   UNL     1       2.263   4.734  17.228  0.00  0.00    +0.000 OA
ATOM     18  H   UNL     1       1.750   3.987  16.843  0.00  0.00    +0.000 HD
ENDBRANCH  16  17
ENDBRANCH   4   7
BRANCH   1  19
ATOM     19  C   UNL     1       6.975   4.634  13.692  0.00  0.00    +0.000 C 
BRANCH  19  24
ATOM     20  C   UNL     1       6.005   1.760  11.366  0.00  0.00    +0.000 A 
ATOM     21  C   UNL     1       4.717   2.147  10.991  0.00  0.00    +0.000 A 
ATOM     22  C   UNL     1       4.142   3.303  11.519  0.00  0.00    +0.000 A 
ATOM     23  C   UNL     1       4.870   4.101  12.399  0.00  0.00    +0.000 A 
ATOM     24  C   UNL     1       6.175   3.747  12.768  0.00  0.00    +0.000 A 
ATOM     25  C   UNL     1       6.717   2.545  12.277  0.00  0.00    +0.000 A 
BRANCH  20  27
ATOM     26  C   UNL     1       6.079  -0.618  11.347  0.00  0.00    +0.000 C 
ATOM     27  O   UNL     1       6.461   0.620  10.762  0.00  0.00    +0.000 OA
ENDBRANCH  20  27
ENDBRANCH  19  24
ENDBRANCH   1  19
TORSDOF 5
ENDMDL
