MODEL 1
REMARK VINA RESULT:      -7.0      0.000      0.000
REMARK  Name = 
REMARK  5 active torsions:
REMARK  status: ('A' for Active; 'I' for Inactive)
REMARK    1  A    between atoms: C_1  and  C_2
REMARK    2  A    between atoms: C_2  and  C_3
REMARK    3  A    between atoms: C_4  and  C_5
REMARK    4  A    between atoms: C_9  and  C_10
REMARK    5  A    between atoms: C_13  and  C_14
REMARK                            x       y       z     vdW  Elec       q    Type
REMARK                         _______ _______ _______ _____ _____    ______ ____
ROOT
ATOM      1  C   UNL     1       5.964   4.534  17.925  0.00  0.00    +0.000 A 
ATOM      2  N   UNL     1       7.266   4.486  18.102  0.00  0.00    +0.000 NA
ATOM      3  N   UNL     1       7.834   4.493  16.838  0.00  0.00    +0.000 NA
ATOM      4  C   UNL     1       6.839   4.564  15.971  0.00  0.00    +0.000 A 
ATOM      5  O   UNL     1       5.624   4.600  16.604  0.00  0.00    +0.000 OA
ENDROOT
BRANCH   1  10
ATOM      6  C   UNL     1       3.449   2.867  20.355  0.00  0.00    +0.000 C 
ATOM      7  C   UNL     1       3.790   3.501  19.025  0.00  0.00    +0.000 C 
ATOM      8  C   UNL     1       3.640   2.540  17.865  0.00  0.00    +0.000 C 
ATOM      9  C   UNL     1       3.531   4.964  18.749  0.00  0.00    +0.000 C 
ATOM     10  C   UNL     1       4.947   4.509  19.057  0.00  0.00    +0.000 C 
BRANCH   9  11
ATOM     11  C   UNL     1       2.777   5.775  19.718  0.00  0.00    +0.000 C 
ATOM     12  C   UNL     1       2.344   7.034  19.542  0.00  0.00    +0.000 C 
ATOM     13 CL   UNL     1       2.636   7.908  18.082  0.00  0.00    +0.000 Cl
ATOM     14 CL   UNL     1       1.464   7.840  20.790  0.00  0.00    +0.000 Cl
ENDBRANCH   9  11
ENDBRANCH   1  10
BRANCH   4  15
ATOM     15  C   UNL     1       6.990   4.604  14.547  0.00  0.00    +0.000 A 
ATOM     16  C   UNL     1       7.857   5.391  13.811  0.00  0.00    +0.000 A 
ATOM     17  C   UNL     1       7.725   5.179  12.408  0.00  0.00    +0.000 A 
ATOM     18  C   UNL     1       6.766   4.236  12.114  0.00  0.00    +0.000 A 
ATOM     19  S   UNL     1       6.040   3.604  13.525  0.00  0.00    +0.000 S 
ENDBRANCH   4  15
TORSDOF 3
ENDMDL
MODEL 2
REMARK VINA RESULT:      -6.8      3.653      6.938
REMARK  Name = 
REMARK  5 active torsions:
REMARK  status: ('A' for Active; 'I' for Inactive)
REMARK    1  A    between atoms: C_1  and  C_2
REMARK    2  A    between atoms: C_2  and  C_3
REMARK    3  A    between atoms: C_4  and  C_5
REMARK    4  A    between atoms: C_9  and  C_10
REMARK    5  A    between atoms: C_13  and  C_14
REMARK                            x       y       z     vdW  Elec       q    Type
REMARK                         _______ _______ _______ _____ _____    ______ ____
ROOT
ATOM      1  C   UNL     1       5.895   3.993  17.061  0.00  0.00    +0.000 A 
ATOM      2  N   UNL     1       6.441   4.383  18.192  0.00  0.00    +0.000 NA
ATOM      3  N   UNL     1       5.467   4.243  19.167  0.00  0.00    +0.000 NA
ATOM      4  C   UNL     1       4.392   3.759  18.569  0.00  0.00    +0.000 A 
ATOM      5  O   UNL     1       4.607   3.572  17.228  0.00  0.00    +0.000 OA
ENDROOT
BRANCH   1  10
ATOM      6  C   UNL     1       7.580   5.673  14.004  0.00  0.00    +0.000 C 
ATOM      7  C   UNL     1       6.356   5.170  14.737  0.00  0.00    +0.000 C 
ATOM      8  C   UNL     1       5.389   6.280  15.089  0.00  0.00    +0.000 C 
ATOM      9  C   UNL     1       5.771   3.803  14.467  0.00  0.00    +0.000 C 
ATOM     10  C   UNL     1       6.608   4.016  15.717  0.00  0.00    +0.000 C 
BRANCH   9  11
ATOM     11  C   UNL     1       6.282   2.989  13.353  0.00  0.00    +0.000 C 
ATOM     12  C   UNL     1       5.701   2.819  12.154  0.00  0.00    +0.000 C 
ATOM     13 CL   UNL     1       4.200   3.572  11.748  0.00  0.00    +0.000 Cl
ATOM     14 CL   UNL     1       6.445   1.827  10.953  0.00  0.00    +0.000 Cl
ENDBRANCH   9  11
ENDBRANCH   1  10
BRANCH   4  15
ATOM     15  C   UNL     1       3.153   3.456  19.221  0.00  0.00    +0.000 A 
ATOM     16  C   UNL     1       2.972   2.932  20.488  0.00  0.00    +0.000 A 
ATOM     17  C   UNL     1       1.595   2.745  20.807  0.00  0.00    +0.000 A 
ATOM     18  C   UNL     1       0.767   3.135  19.777  0.00  0.00    +0.000 A 
ATOM     19  S   UNL     1       1.649   3.733  18.442  0.00  0.00    +0.000 S 
ENDBRANCH   4  15
TORSDOF 3
ENDMDL
MODEL 3
REMARK VINA RESULT:      -6.8      4.259      7.326
REMARK  Name = 
REMARK  5 active torsions:
REMARK  status: ('A' for Active; 'I' for Inactive)
REMARK    1  A    between atoms: C_1  and  C_2
REMARK    2  A    between atoms: C_2  and  C_3
REMARK    3  A    between atoms: C_4  and  C_5
REMARK    4  A    between atoms: C_9  and  C_10
REMARK    5  A    between atoms: C_13  and  C_14
REMARK                            x       y       z     vdW  Elec       q    Type
REMARK                         _______ _______ _______ _____ _____    ______ ____
ROOT
ATOM      1  C   UNL     1       4.329   3.649  16.726  0.00  0.00    +0.000 A 
ATOM      2  N   UNL     1       3.136   3.565  16.178  0.00  0.00    +0.000 NA
ATOM      3  N   UNL     1       2.246   3.327  17.212  0.00  0.00    +0.000 NA
ATOM      4  C   UNL     1       2.952   3.298  18.328  0.00  0.00    +0.000 A 
ATOM      5  O   UNL     1       4.285   3.505  18.083  0.00  0.00    +0.000 OA
ENDROOT
BRANCH   1  10
ATOM      6  C   UNL     1       7.482   5.614  15.628  0.00  0.00    +0.000 C 
ATOM      7  C   UNL     1       6.010   5.288  15.506  0.00  0.00    +0.000 C 
ATOM      8  C   UNL     1       5.121   6.469  15.833  0.00  0.00    +0.000 C 
ATOM      9  C   UNL     1       5.494   4.296  14.488  0.00  0.00    +0.000 C 
ATOM     10  C   UNL     1       5.614   3.871  15.942  0.00  0.00    +0.000 C 
BRANCH   9  11
ATOM     11  C   UNL     1       6.402   3.746  13.469  0.00  0.00    +0.000 C 
ATOM     12  C   UNL     1       6.058   3.286  12.255  0.00  0.00    +0.000 C 
ATOM     13 CL   UNL     1       4.420   3.279  11.709  0.00  0.00    +0.000 Cl
ATOM     14 CL   UNL     1       7.260   2.675  11.177  0.00  0.00    +0.000 Cl
ENDBRANCH   9  11
ENDBRANCH   1  10
BRANCH   4  15
ATOM     15  C   UNL     1       2.413   3.087  19.639  0.00  0.00    +0.000 A 
ATOM     16  C   UNL     1       1.109   3.280  20.057  0.00  0.00    +0.000 A 
ATOM     17  C   UNL     1       0.933   2.982  21.440  0.00  0.00    +0.000 A 
ATOM     18  C   UNL     1       2.104   2.566  22.034  0.00  0.00    +0.000 A 
ATOM     19  S   UNL     1       3.402   2.526  20.925  0.00  0.00    +0.000 S 
ENDBRANCH   4  15
TORSDOF 3
ENDMDL
MODEL 4
REMARK VINA RESULT:      -6.7      4.185      6.880
REMARK  Name = 
REMARK  5 active torsions:
REMARK  status: ('A' for Active; 'I' for Inactive)
REMARK    1  A    between atoms: C_1  and  C_2
REMARK    2  A    between atoms: C_2  and  C_3
REMARK    3  A    between atoms: C_4  and  C_5
REMARK    4  A    between atoms: C_9  and  C_10
REMARK    5  A    between atoms: C_13  and  C_14
REMARK                            x       y       z     vdW  Elec       q    Type
REMARK                         _______ _______ _______ _____ _____    ______ ____
ROOT
ATOM      1  C   UNL     1       4.083   5.549  18.179  0.00  0.00    +0.000 A 
ATOM      2  N   UNL     1       3.759   5.231  19.414  0.00  0.00    +0.000 NA
ATOM      3  N   UNL     1       2.900   6.222  19.861  0.00  0.00    +0.000 NA
ATOM      4  C   UNL     1       2.741   7.072  18.862  0.00  0.00    +0.000 A 
ATOM      5  O   UNL     1       3.464   6.693  17.761  0.00  0.00    +0.000 OA
ENDROOT
BRANCH   1  10
ATOM      6  C   UNL     1       7.563   4.349  16.974  0.00  0.00    +0.000 C 
ATOM      7  C   UNL     1       6.413   5.330  16.946  0.00  0.00    +0.000 C 
ATOM      8  C   UNL     1       6.812   6.712  17.420  0.00  0.00    +0.000 C 
ATOM      9  C   UNL     1       5.318   5.246  15.907  0.00  0.00    +0.000 C 
ATOM     10  C   UNL     1       5.043   4.746  17.315  0.00  0.00    +0.000 C 
BRANCH   9  11
ATOM     11  C   UNL     1       5.437   4.301  14.785  0.00  0.00    +0.000 C 
ATOM     12  C   UNL     1       6.354   4.334  13.804  0.00  0.00    +0.000 C 
ATOM     13 CL   UNL     1       7.573   5.556  13.731  0.00  0.00    +0.000 Cl
ATOM     14 CL   UNL     1       6.351   3.137  12.561  0.00  0.00    +0.000 Cl
ENDBRANCH   9  11
ENDBRANCH   1  10
BRANCH   4  15
ATOM     15  C   UNL     1       1.918   8.244  18.902  0.00  0.00    +0.000 A 
ATOM     16  C   UNL     1       1.595   9.086  17.854  0.00  0.00    +0.000 A 
ATOM     17  C   UNL     1       0.761  10.168  18.263  0.00  0.00    +0.000 A 
ATOM     18  C   UNL     1       0.469  10.117  19.608  0.00  0.00    +0.000 A 
ATOM     19  S   UNL     1       1.188   8.766  20.366  0.00  0.00    +0.000 S 
ENDBRANCH   4  15
TORSDOF 3
ENDMDL
MODEL 5
REMARK VINA RESULT:      -6.7      1.633      2.113
REMARK  Name = 
REMARK  5 active torsions:
REMARK  status: ('A' for Active; 'I' for Inactive)
REMARK    1  A    between atoms: C_1  and  C_2
REMARK    2  A    between atoms: C_2  and  C_3
REMARK    3  A    between atoms: C_4  and  C_5
REMARK    4  A    between atoms: C_9  and  C_10
REMARK    5  A    between atoms: C_13  and  C_14
REMARK                            x       y       z     vdW  Elec       q    Type
REMARK                         _______ _______ _______ _____ _____    ______ ____
ROOT
ATOM      1  C   UNL     1       4.467   4.681  19.025  0.00  0.00    +0.000 A 
ATOM      2  N   UNL     1       5.683   4.358  19.407  0.00  0.00    +0.000 NA
ATOM      3  N   UNL     1       6.430   4.208  18.250  0.00  0.00    +0.000 NA
ATOM      4  C   UNL     1       5.623   4.466  17.236  0.00  0.00    +0.000 A 
ATOM      5  O   UNL     1       4.361   4.781  17.667  0.00  0.00    +0.000 OA
ENDROOT
BRANCH   1  10
ATOM      6  C   UNL     1       1.017   3.909  20.610  0.00  0.00    +0.000 C 
ATOM      7  C   UNL     1       1.876   4.554  19.545  0.00  0.00    +0.000 C 
ATOM      8  C   UNL     1       1.609   3.997  18.163  0.00  0.00    +0.000 C 
ATOM      9  C   UNL     1       2.306   6.000  19.636  0.00  0.00    +0.000 C 
ATOM     10  C   UNL     1       3.304   4.908  19.980  0.00  0.00    +0.000 C 
BRANCH   9  11
ATOM     11  C   UNL     1       1.753   6.870  20.687  0.00  0.00    +0.000 C 
ATOM     12  C   UNL     1       1.396   8.157  20.554  0.00  0.00    +0.000 C 
ATOM     13 CL   UNL     1       1.549   9.001  19.055  0.00  0.00    +0.000 Cl
ATOM     14 CL   UNL     1       0.757   9.032  21.899  0.00  0.00    +0.000 Cl
ENDBRANCH   9  11
ENDBRANCH   1  10
BRANCH   4  15
ATOM     15  C   UNL     1       6.001   4.432  15.854  0.00  0.00    +0.000 A 
ATOM     16  C   UNL     1       5.334   3.819  14.810  0.00  0.00    +0.000 A 
ATOM     17  C   UNL     1       6.010   3.977  13.565  0.00  0.00    +0.000 A 
ATOM     18  C   UNL     1       7.169   4.709  13.695  0.00  0.00    +0.000 A 
ATOM     19  S   UNL     1       7.430   5.209  15.307  0.00  0.00    +0.000 S 
ENDBRANCH   4  15
TORSDOF 3
ENDMDL
MODEL 6
REMARK VINA RESULT:      -6.6      4.805      7.707
REMARK  Name = 
REMARK  5 active torsions:
REMARK  status: ('A' for Active; 'I' for Inactive)
REMARK    1  A    between atoms: C_1  and  C_2
REMARK    2  A    between atoms: C_2  and  C_3
REMARK    3  A    between atoms: C_4  and  C_5
REMARK    4  A    between atoms: C_9  and  C_10
REMARK    5  A    between atoms: C_13  and  C_14
REMARK                            x       y       z     vdW  Elec       q    Type
REMARK                         _______ _______ _______ _____ _____    ______ ____
ROOT
ATOM      1  C   UNL     1       2.490   7.400  18.498  0.00  0.00    +0.000 A 
ATOM      2  N   UNL     1       2.191   8.415  17.717  0.00  0.00    +0.000 NA
ATOM      3  N   UNL     1       1.476   9.311  18.496  0.00  0.00    +0.000 NA
ATOM      4  C   UNL     1       1.400   8.790  19.708  0.00  0.00    +0.000 A 
ATOM      5  O   UNL     1       2.034   7.577  19.773  0.00  0.00    +0.000 OA
ENDROOT
BRANCH   1  10
ATOM      6  C   UNL     1       2.843   3.704  17.391  0.00  0.00    +0.000 C 
ATOM      7  C   UNL     1       2.766   4.769  18.463  0.00  0.00    +0.000 C 
ATOM      8  C   UNL     1       1.553   4.613  19.355  0.00  0.00    +0.000 C 
ATOM      9  C   UNL     1       4.008   5.367  19.083  0.00  0.00    +0.000 C 
ATOM     10  C   UNL     1       3.247   6.163  18.037  0.00  0.00    +0.000 C 
BRANCH   9  11
ATOM     11  C   UNL     1       5.331   4.800  18.778  0.00  0.00    +0.000 C 
ATOM     12  C   UNL     1       6.313   5.391  18.077  0.00  0.00    +0.000 C 
ATOM     13 CL   UNL     1       6.135   6.974  17.408  0.00  0.00    +0.000 Cl
ATOM     14 CL   UNL     1       7.813   4.580  17.815  0.00  0.00    +0.000 Cl
ENDBRANCH   9  11
ENDBRANCH   1  10
BRANCH   4  15
ATOM     15  C   UNL     1       0.748   9.403  20.827  0.00  0.00    +0.000 A 
ATOM     16  C   UNL     1       0.391   8.811  22.025  0.00  0.00    +0.000 A 
ATOM     17  C   UNL     1      -0.258   9.722  22.909  0.00  0.00    +0.000 A 
ATOM     18  C   UNL     1      -0.372  10.981  22.363  0.00  0.00    +0.000 A 
ATOM     19  S   UNL     1       0.309  11.062  20.799  0.00  0.00    +0.000 S 
ENDBRANCH   4  15
TORSDOF 3
ENDMDL
MODEL 7
REMARK VINA RESULT:      -6.6      1.880      2.091
REMARK  Name = 
REMARK  5 active torsions:
REMARK  status: ('A' for Active; 'I' for Inactive)
REMARK    1  A    between atoms: C_1  and  C_2
REMARK    2  A    between atoms: C_2  and  C_3
REMARK    3  A    between atoms: C_4  and  C_5
REMARK    4  A    between atoms: C_9  and  C_10
REMARK    5  A    between atoms: C_13  and  C_14
REMARK                            x       y       z     vdW  Elec       q    Type
REMARK                         _______ _______ _______ _____ _____    ______ ____
ROOT
ATOM      1  C   UNL     1       4.460   5.736  17.325  0.00  0.00    +0.000 A 
ATOM      2  N   UNL     1       4.930   6.884  16.888  0.00  0.00    +0.000 NA
ATOM      3  N   UNL     1       5.508   6.626  15.656  0.00  0.00    +0.000 NA
ATOM      4  C   UNL     1       5.337   5.338  15.413  0.00  0.00    +0.000 A 
ATOM      5  O   UNL     1       4.669   4.720  16.437  0.00  0.00    +0.000 OA
ENDROOT
BRANCH   1  10
ATOM      6  C   UNL     1       2.349   3.840  19.963  0.00  0.00    +0.000 C 
ATOM      7  C   UNL     1       2.468   4.746  18.758  0.00  0.00    +0.000 C 
ATOM      8  C   UNL     1       1.850   4.146  17.513  0.00  0.00    +0.000 C 
ATOM      9  C   UNL     1       2.440   6.252  18.886  0.00  0.00    +0.000 C 
ATOM     10  C   UNL     1       3.771   5.552  18.669  0.00  0.00    +0.000 C 
BRANCH   9  11
ATOM     11  C   UNL     1       2.124   6.876  20.181  0.00  0.00    +0.000 C 
ATOM     12  C   UNL     1       1.646   8.116  20.376  0.00  0.00    +0.000 C 
ATOM     13 CL   UNL     1       1.330   9.193  19.063  0.00  0.00    +0.000 Cl
ATOM     14 CL   UNL     1       1.324   8.690  21.972  0.00  0.00    +0.000 Cl
ENDBRANCH   9  11
ENDBRANCH   1  10
BRANCH   4  15
ATOM     15  C   UNL     1       5.780   4.658  14.232  0.00  0.00    +0.000 A 
ATOM     16  C   UNL     1       5.065   3.768  13.452  0.00  0.00    +0.000 A 
ATOM     17  C   UNL     1       5.830   3.270  12.356  0.00  0.00    +0.000 A 
ATOM     18  C   UNL     1       7.102   3.798  12.330  0.00  0.00    +0.000 A 
ATOM     19  S   UNL     1       7.364   4.894  13.614  0.00  0.00    +0.000 S 
ENDBRANCH   4  15
TORSDOF 3
ENDMDL
MODEL 8
REMARK VINA RESULT:      -6.5      1.428      1.809
REMARK  Name = 
REMARK  5 active torsions:
REMARK  status: ('A' for Active; 'I' for Inactive)
REMARK    1  A    between atoms: C_1  and  C_2
REMARK    2  A    between atoms: C_2  and  C_3
REMARK    3  A    between atoms: C_4  and  C_5
REMARK    4  A    between atoms: C_9  and  C_10
REMARK    5  A    between atoms: C_13  and  C_14
REMARK                            x       y       z     vdW  Elec       q    Type
REMARK                         _______ _______ _______ _____ _____    ______ ____
ROOT
ATOM      1  C   UNL     1       4.687   5.022  18.885  0.00  0.00    +0.000 A 
ATOM      2  N   UNL     1       5.835   4.540  19.308  0.00  0.00    +0.000 NA
ATOM      3  N   UNL     1       6.602   4.305  18.179  0.00  0.00    +0.000 NA
ATOM      4  C   UNL     1       5.876   4.676  17.138  0.00  0.00    +0.000 A 
ATOM      5  O   UNL     1       4.649   5.148  17.525  0.00  0.00    +0.000 OA
ENDROOT
BRANCH   1  10
ATOM      6  C   UNL     1       1.268   4.467  20.620  0.00  0.00    +0.000 C 
ATOM      7  C   UNL     1       2.103   4.933  19.448  0.00  0.00    +0.000 C 
ATOM      8  C   UNL     1       1.840   4.134  18.189  0.00  0.00    +0.000 C 
ATOM      9  C   UNL     1       2.500   6.381  19.277  0.00  0.00    +0.000 C 
ATOM     10  C   UNL     1       3.527   5.389  19.798  0.00  0.00    +0.000 C 
BRANCH   9  11
ATOM     11  C   UNL     1       1.935   7.410  20.164  0.00  0.00    +0.000 C 
ATOM     12  C   UNL     1       1.478   8.619  19.799  0.00  0.00    +0.000 C 
ATOM     13 CL   UNL     1       1.499   9.147  18.155  0.00  0.00    +0.000 Cl
ATOM     14 CL   UNL     1       0.840   9.707  20.977  0.00  0.00    +0.000 Cl
ENDBRANCH   9  11
ENDBRANCH   1  10
BRANCH   4  15
ATOM     15  C   UNL     1       6.302   4.607  15.771  0.00  0.00    +0.000 A 
ATOM     16  C   UNL     1       7.441   5.157  15.213  0.00  0.00    +0.000 A 
ATOM     17  C   UNL     1       7.538   4.901  13.814  0.00  0.00    +0.000 A 
ATOM     18  C   UNL     1       6.473   4.162  13.347  0.00  0.00    +0.000 A 
ATOM     19  S   UNL     1       5.373   3.771  14.594  0.00  0.00    +0.000 S 
ENDBRANCH   4  15
TORSDOF 3
ENDMDL
MODEL 9
REMARK VINA RESULT:      -6.5      4.635      7.705
REMARK  Name = 
REMARK  5 active torsions:
REMARK  status: ('A' for Active; 'I' for Inactive)
REMARK    1  A    between atoms: C_1  and  C_2
REMARK    2  A    between atoms: C_2  and  C_3
REMARK    3  A    between atoms: C_4  and  C_5
REMARK    4  A    between atoms: C_9  and  C_10
REMARK    5  A    between atoms: C_13  and  C_14
REMARK                            x       y       z     vdW  Elec       q    Type
REMARK                         _______ _______ _______ _____ _____    ______ ____
ROOT
ATOM      1  C   UNL     1       2.631   7.080  18.167  0.00  0.00    +0.000 A 
ATOM      2  N   UNL     1       2.796   8.270  17.632  0.00  0.00    +0.000 NA
ATOM      3  N   UNL     1       2.161   9.170  18.472  0.00  0.00    +0.000 NA
ATOM      4  C   UNL     1       1.663   8.471  19.478  0.00  0.00    +0.000 A 
ATOM      5  O   UNL     1       1.937   7.135  19.343  0.00  0.00    +0.000 OA
ENDROOT
BRANCH   1  10
ATOM      6  C   UNL     1       4.032   3.469  18.225  0.00  0.00    +0.000 C 
ATOM      7  C   UNL     1       4.222   4.969  18.269  0.00  0.00    +0.000 C 
ATOM      8  C   UNL     1       4.799   5.447  19.585  0.00  0.00    +0.000 C 
ATOM      9  C   UNL     1       4.571   5.765  17.032  0.00  0.00    +0.000 C 
ATOM     10  C   UNL     1       3.142   5.788  17.549  0.00  0.00    +0.000 C 
BRANCH   9  11
ATOM     11  C   UNL     1       4.904   5.071  15.778  0.00  0.00    +0.000 C 
ATOM     12  C   UNL     1       6.077   4.495  15.469  0.00  0.00    +0.000 C 
ATOM     13 CL   UNL     1       7.415   4.500  16.561  0.00  0.00    +0.000 Cl
ATOM     14 CL   UNL     1       6.295   3.715  13.944  0.00  0.00    +0.000 Cl
ENDBRANCH   9  11
ENDBRANCH   1  10
BRANCH   4  15
ATOM     15  C   UNL     1       0.934   9.021  20.581  0.00  0.00    +0.000 A 
ATOM     16  C   UNL     1       0.322   8.335  21.615  0.00  0.00    +0.000 A 
ATOM     17  C   UNL     1      -0.329   9.208  22.535  0.00  0.00    +0.000 A 
ATOM     18  C   UNL     1      -0.192  10.532  22.179  0.00  0.00    +0.000 A 
ATOM     19  S   UNL     1       0.726  10.716  20.751  0.00  0.00    +0.000 S 
ENDBRANCH   4  15
TORSDOF 3
ENDMDL
