MODEL 1
REMARK VINA RESULT:      -7.7      0.000      0.000
REMARK  Name = 
REMARK  8 active torsions:
REMARK  status: ('A' for Active; 'I' for Inactive)
REMARK    1  A    between atoms: C_1  and  O_2
REMARK    2  A    between atoms: O_2  and  C_3
REMARK    3  A    between atoms: C_3  and  C_5
REMARK    4  A    between atoms: C_5  and  C_6
REMARK    5  A    between atoms: C_5  and  N_17
REMARK    6  A    between atoms: C_6  and  C_7
REMARK    7  A    between atoms: C_11  and  C_12
REMARK    8  A    between atoms: C_18  and  S_20
REMARK                            x       y       z     vdW  Elec       q    Type
REMARK                         _______ _______ _______ _____ _____    ______ ____
ROOT
ATOM      1  C   UNL     1       3.556   5.466  17.401  0.00  0.00    +0.000 C 
ENDROOT
BRANCH   1   2
ATOM      2  N   UNL     1       4.789   4.968  16.846  0.00  0.00    +0.000 N 
ATOM      3  C   UNL     1       5.608   5.728  16.035  0.00  0.00    +0.000 C 
ATOM      4  O   UNL     1       5.477   6.923  15.780  0.00  0.00    +0.000 OA
ATOM      5  H   UNL     1       5.054   3.974  16.846  0.00  0.00    +0.000 HD
BRANCH   3   6
ATOM      6  S   UNL     1       6.992   4.667  15.313  0.00  0.00    +0.000 S 
ATOM      7  O   UNL     1       7.742   4.368  16.544  0.00  0.00    +0.000 OA
ATOM      8  O   UNL     1       6.248   3.543  14.746  0.00  0.00    +0.000 OA
ATOM      9  O   UNL     1       7.631   5.586  14.386  0.00  0.00    +0.000 OA
ENDBRANCH   3   6
ENDBRANCH   1   2
BRANCH   1  10
ATOM     10  C   UNL     1       2.557   4.306  17.589  0.00  0.00    +0.000 C 
ATOM     11  O   UNL     1       1.330   4.392  17.536  0.00  0.00    +0.000 OA
BRANCH  10  13
ATOM     12  C   UNL     1       2.504   1.957  17.973  0.00  0.00    +0.000 C 
ATOM     13  O   UNL     1       3.248   3.135  17.669  0.00  0.00    +0.000 OA
ENDBRANCH  10  13
ENDBRANCH   1  10
BRANCH   1  14
ATOM     14  C   UNL     1       3.703   6.271  18.699  0.00  0.00    +0.000 C 
BRANCH  14  15
ATOM     15  C   UNL     1       2.727   7.415  18.824  0.00  0.00    +0.000 A 
ATOM     16  C   UNL     1       2.539   8.296  17.753  0.00  0.00    +0.000 A 
ATOM     17  C   UNL     1       1.657   9.370  17.863  0.00  0.00    +0.000 A 
ATOM     18  C   UNL     1       0.949   9.577  19.044  0.00  0.00    +0.000 A 
ATOM     19  C   UNL     1       1.101   8.698  20.124  0.00  0.00    +0.000 A 
ATOM     20  C   UNL     1       1.988   7.613  20.000  0.00  0.00    +0.000 A 
BRANCH  19  21
ATOM     21  C   UNL     1       0.334   8.897  21.405  0.00  0.00    +0.000 C 
ATOM     22  F   UNL     1       1.102   8.854  22.527  0.00  0.00    +0.000 F 
ATOM     23  F   UNL     1      -0.324  10.090  21.440  0.00  0.00    +0.000 F 
ATOM     24  F   UNL     1      -0.630   7.946  21.579  0.00  0.00    +0.000 F 
ENDBRANCH  19  21
ENDBRANCH  14  15
ENDBRANCH   1  14
TORSDOF 7
ENDMDL
MODEL 2
REMARK VINA RESULT:      -7.6      1.116      1.755
REMARK  Name = 
REMARK  8 active torsions:
REMARK  status: ('A' for Active; 'I' for Inactive)
REMARK    1  A    between atoms: C_1  and  O_2
REMARK    2  A    between atoms: O_2  and  C_3
REMARK    3  A    between atoms: C_3  and  C_5
REMARK    4  A    between atoms: C_5  and  C_6
REMARK    5  A    between atoms: C_5  and  N_17
REMARK    6  A    between atoms: C_6  and  C_7
REMARK    7  A    between atoms: C_11  and  C_12
REMARK    8  A    between atoms: C_18  and  S_20
REMARK                            x       y       z     vdW  Elec       q    Type
REMARK                         _______ _______ _______ _____ _____    ______ ____
ROOT
ATOM      1  C   UNL     1       3.272   5.309  17.678  0.00  0.00    +0.000 C 
ENDROOT
BRANCH   1   2
ATOM      2  N   UNL     1       4.541   5.120  17.024  0.00  0.00    +0.000 N 
ATOM      3  C   UNL     1       5.666   4.664  17.684  0.00  0.00    +0.000 C 
ATOM      4  O   UNL     1       5.717   4.255  18.841  0.00  0.00    +0.000 OA
ATOM      5  H   UNL     1       4.760   5.484  16.087  0.00  0.00    +0.000 HD
BRANCH   3   6
ATOM      6  S   UNL     1       7.181   4.776  16.562  0.00  0.00    +0.000 S 
ATOM      7  O   UNL     1       6.691   4.004  15.409  0.00  0.00    +0.000 OA
ATOM      8  O   UNL     1       7.293   6.218  16.348  0.00  0.00    +0.000 OA
ATOM      9  O   UNL     1       8.206   4.135  17.368  0.00  0.00    +0.000 OA
ENDBRANCH   3   6
ENDBRANCH   1   2
BRANCH   1  10
ATOM     10  C   UNL     1       2.550   3.955  17.829  0.00  0.00    +0.000 C 
ATOM     11  O   UNL     1       2.211   3.208  16.911  0.00  0.00    +0.000 OA
BRANCH  10  13
ATOM     12  C   UNL     1       2.752   2.280  19.510  0.00  0.00    +0.000 C 
ATOM     13  O   UNL     1       2.483   3.634  19.151  0.00  0.00    +0.000 OA
ENDBRANCH  10  13
ENDBRANCH   1  10
BRANCH   1  14
ATOM     14  C   UNL     1       3.335   6.043  19.024  0.00  0.00    +0.000 C 
BRANCH  14  15
ATOM     15  C   UNL     1       2.489   7.291  19.082  0.00  0.00    +0.000 A 
ATOM     16  C   UNL     1       2.385   8.120  17.959  0.00  0.00    +0.000 A 
ATOM     17  C   UNL     1       1.624   9.287  18.005  0.00  0.00    +0.000 A 
ATOM     18  C   UNL     1       0.955   9.642  19.174  0.00  0.00    +0.000 A 
ATOM     19  C   UNL     1       1.024   8.820  20.306  0.00  0.00    +0.000 A 
ATOM     20  C   UNL     1       1.788   7.640  20.246  0.00  0.00    +0.000 A 
BRANCH  19  21
ATOM     21  C   UNL     1       0.296   9.178  21.575  0.00  0.00    +0.000 C 
ATOM     22  F   UNL     1      -0.302  10.400  21.549  0.00  0.00    +0.000 F 
ATOM     23  F   UNL     1      -0.683   8.283  21.886  0.00  0.00    +0.000 F 
ATOM     24  F   UNL     1       1.129   9.197  22.656  0.00  0.00    +0.000 F 
ENDBRANCH  19  21
ENDBRANCH  14  15
ENDBRANCH   1  14
TORSDOF 7
ENDMDL
MODEL 3
REMARK VINA RESULT:      -7.6      0.619      1.483
REMARK  Name = 
REMARK  8 active torsions:
REMARK  status: ('A' for Active; 'I' for Inactive)
REMARK    1  A    between atoms: C_1  and  O_2
REMARK    2  A    between atoms: O_2  and  C_3
REMARK    3  A    between atoms: C_3  and  C_5
REMARK    4  A    between atoms: C_5  and  C_6
REMARK    5  A    between atoms: C_5  and  N_17
REMARK    6  A    between atoms: C_6  and  C_7
REMARK    7  A    between atoms: C_11  and  C_12
REMARK    8  A    between atoms: C_18  and  S_20
REMARK                            x       y       z     vdW  Elec       q    Type
REMARK                         _______ _______ _______ _____ _____    ______ ____
ROOT
ATOM      1  C   UNL     1       3.534   5.151  17.608  0.00  0.00    +0.000 C 
ENDROOT
BRANCH   1   2
ATOM      2  N   UNL     1       4.792   4.763  17.024  0.00  0.00    +0.000 N 
ATOM      3  C   UNL     1       5.470   5.550  16.113  0.00  0.00    +0.000 C 
ATOM      4  O   UNL     1       5.178   6.695  15.777  0.00  0.00    +0.000 OA
ATOM      5  H   UNL     1       5.180   3.813  17.083  0.00  0.00    +0.000 HD
BRANCH   3   6
ATOM      6  S   UNL     1       6.942   4.610  15.395  0.00  0.00    +0.000 S 
ATOM      7  O   UNL     1       7.482   5.645  14.499  0.00  0.00    +0.000 OA
ATOM      8  O   UNL     1       7.740   4.339  16.590  0.00  0.00    +0.000 OA
ATOM      9  O   UNL     1       6.297   3.480  14.747  0.00  0.00    +0.000 OA
ENDBRANCH   3   6
ENDBRANCH   1   2
BRANCH   1  10
ATOM     10  C   UNL     1       2.636   3.911  17.795  0.00  0.00    +0.000 C 
ATOM     11  O   UNL     1       2.968   2.741  17.604  0.00  0.00    +0.000 OA
BRANCH  10  13
ATOM     12  C   UNL     1       0.939   3.489  19.411  0.00  0.00    +0.000 C 
ATOM     13  O   UNL     1       1.458   4.298  18.358  0.00  0.00    +0.000 OA
ENDBRANCH  10  13
ENDBRANCH   1  10
BRANCH   1  14
ATOM     14  C   UNL     1       3.639   5.946  18.916  0.00  0.00    +0.000 C 
BRANCH  14  15
ATOM     15  C   UNL     1       2.752   7.165  18.966  0.00  0.00    +0.000 A 
ATOM     16  C   UNL     1       2.678   8.023  17.862  0.00  0.00    +0.000 A 
ATOM     17  C   UNL     1       1.879   9.164  17.902  0.00  0.00    +0.000 A 
ATOM     18  C   UNL     1       1.142   9.464  19.045  0.00  0.00    +0.000 A 
ATOM     19  C   UNL     1       1.180   8.612  20.155  0.00  0.00    +0.000 A 
ATOM     20  C   UNL     1       1.984   7.459  20.102  0.00  0.00    +0.000 A 
BRANCH  19  21
ATOM     21  C   UNL     1       0.379   8.911  21.396  0.00  0.00    +0.000 C 
ATOM     22  F   UNL     1      -0.167  10.157  21.420  0.00  0.00    +0.000 F 
ATOM     23  F   UNL     1      -0.654   8.041  21.573  0.00  0.00    +0.000 F 
ATOM     24  F   UNL     1       1.134   8.815  22.530  0.00  0.00    +0.000 F 
ENDBRANCH  19  21
ENDBRANCH  14  15
ENDBRANCH   1  14
TORSDOF 7
ENDMDL
MODEL 4
REMARK VINA RESULT:      -7.5      1.057      1.368
REMARK  Name = 
REMARK  8 active torsions:
REMARK  status: ('A' for Active; 'I' for Inactive)
REMARK    1  A    between atoms: C_1  and  O_2
REMARK    2  A    between atoms: O_2  and  C_3
REMARK    3  A    between atoms: C_3  and  C_5
REMARK    4  A    between atoms: C_5  and  C_6
REMARK    5  A    between atoms: C_5  and  N_17
REMARK    6  A    between atoms: C_6  and  C_7
REMARK    7  A    between atoms: C_11  and  C_12
REMARK    8  A    between atoms: C_18  and  S_20
REMARK                            x       y       z     vdW  Elec       q    Type
REMARK                         _______ _______ _______ _____ _____    ______ ____
ROOT
ATOM      1  C   UNL     1       3.130   5.361  18.208  0.00  0.00    +0.000 C 
ENDROOT
BRANCH   1   2
ATOM      2  N   UNL     1       4.445   4.931  17.805  0.00  0.00    +0.000 N 
ATOM      3  C   UNL     1       5.321   5.744  17.112  0.00  0.00    +0.000 C 
ATOM      4  O   UNL     1       5.164   6.936  16.856  0.00  0.00    +0.000 OA
ATOM      5  H   UNL     1       4.757   3.952  17.826  0.00  0.00    +0.000 HD
BRANCH   3   6
ATOM      6  S   UNL     1       6.834   4.761  16.556  0.00  0.00    +0.000 S 
ATOM      7  O   UNL     1       7.549   5.811  15.812  0.00  0.00    +0.000 OA
ATOM      8  O   UNL     1       7.435   4.381  17.833  0.00  0.00    +0.000 OA
ATOM      9  O   UNL     1       6.237   3.707  15.754  0.00  0.00    +0.000 OA
ENDBRANCH   3   6
ENDBRANCH   1   2
BRANCH   1  10
ATOM     10  C   UNL     1       2.146   4.176  18.140  0.00  0.00    +0.000 C 
ATOM     11  O   UNL     1       1.635   3.716  17.119  0.00  0.00    +0.000 OA
BRANCH  10  13
ATOM     12  C   UNL     1       2.092   2.189  19.451  0.00  0.00    +0.000 C 
ATOM     13  O   UNL     1       2.046   3.612  19.377  0.00  0.00    +0.000 OA
ENDBRANCH  10  13
ENDBRANCH   1  10
BRANCH   1  14
ATOM     14  C   UNL     1       3.059   6.048  19.577  0.00  0.00    +0.000 C 
BRANCH  14  15
ATOM     15  C   UNL     1       2.250   7.322  19.583  0.00  0.00    +0.000 A 
ATOM     16  C   UNL     1       2.206   8.129  18.441  0.00  0.00    +0.000 A 
ATOM     17  C   UNL     1       1.480   9.319  18.440  0.00  0.00    +0.000 A 
ATOM     18  C   UNL     1       0.786   9.718  19.579  0.00  0.00    +0.000 A 
ATOM     19  C   UNL     1       0.794   8.918  20.729  0.00  0.00    +0.000 A 
ATOM     20  C   UNL     1       1.524   7.716  20.717  0.00  0.00    +0.000 A 
BRANCH  19  21
ATOM     21  C   UNL     1       0.039   9.325  21.967  0.00  0.00    +0.000 C 
ATOM     22  F   UNL     1       0.823   9.507  23.064  0.00  0.00    +0.000 F 
ATOM     23  F   UNL     1      -0.653  10.487  21.798  0.00  0.00    +0.000 F 
ATOM     24  F   UNL     1      -0.894   8.396  22.328  0.00  0.00    +0.000 F 
ENDBRANCH  19  21
ENDBRANCH  14  15
ENDBRANCH   1  14
TORSDOF 7
ENDMDL
MODEL 5
REMARK VINA RESULT:      -7.3      1.114      1.586
REMARK  Name = 
REMARK  8 active torsions:
REMARK  status: ('A' for Active; 'I' for Inactive)
REMARK    1  A    between atoms: C_1  and  O_2
REMARK    2  A    between atoms: O_2  and  C_3
REMARK    3  A    between atoms: C_3  and  C_5
REMARK    4  A    between atoms: C_5  and  C_6
REMARK    5  A    between atoms: C_5  and  N_17
REMARK    6  A    between atoms: C_6  and  C_7
REMARK    7  A    between atoms: C_11  and  C_12
REMARK    8  A    between atoms: C_18  and  S_20
REMARK                            x       y       z     vdW  Elec       q    Type
REMARK                         _______ _______ _______ _____ _____    ______ ____
ROOT
ATOM      1  C   UNL     1       3.361   5.281  18.336  0.00  0.00    +0.000 C 
ENDROOT
BRANCH   1   2
ATOM      2  N   UNL     1       4.788   5.241  18.142  0.00  0.00    +0.000 N 
ATOM      3  C   UNL     1       5.403   5.720  17.002  0.00  0.00    +0.000 C 
ATOM      4  O   UNL     1       4.863   6.332  16.083  0.00  0.00    +0.000 OA
ATOM      5  H   UNL     1       5.429   4.693  18.730  0.00  0.00    +0.000 HD
BRANCH   3   6
ATOM      6  S   UNL     1       7.239   5.279  17.008  0.00  0.00    +0.000 S 
ATOM      7  O   UNL     1       7.815   6.626  17.141  0.00  0.00    +0.000 OA
ATOM      8  O   UNL     1       7.344   4.433  18.195  0.00  0.00    +0.000 OA
ATOM      9  O   UNL     1       7.405   4.641  15.712  0.00  0.00    +0.000 OA
ENDBRANCH   3   6
ENDBRANCH   1   2
BRANCH   1  10
ATOM     10  C   UNL     1       2.751   3.894  18.044  0.00  0.00    +0.000 C 
ATOM     11  O   UNL     1       1.946   3.631  17.151  0.00  0.00    +0.000 OA
BRANCH  10  13
ATOM     12  C   UNL     1       3.540   1.661  18.288  0.00  0.00    +0.000 C 
ATOM     13  O   UNL     1       3.363   2.967  18.833  0.00  0.00    +0.000 OA
ENDBRANCH  10  13
ENDBRANCH   1  10
BRANCH   1  14
ATOM     14  C   UNL     1       2.903   5.797  19.707  0.00  0.00    +0.000 C 
BRANCH  14  15
ATOM     15  C   UNL     1       2.201   7.131  19.656  0.00  0.00    +0.000 A 
ATOM     16  C   UNL     1       2.321   7.944  18.523  0.00  0.00    +0.000 A 
ATOM     17  C   UNL     1       1.696   9.188  18.471  0.00  0.00    +0.000 A 
ATOM     18  C   UNL     1       0.939   9.638  19.550  0.00  0.00    +0.000 A 
ATOM     19  C   UNL     1       0.783   8.836  20.687  0.00  0.00    +0.000 A 
ATOM     20  C   UNL     1       1.412   7.578  20.726  0.00  0.00    +0.000 A 
BRANCH  19  21
ATOM     21  C   UNL     1      -0.043   9.298  21.860  0.00  0.00    +0.000 C 
ATOM     22  F   UNL     1      -0.824  10.381  21.599  0.00  0.00    +0.000 F 
ATOM     23  F   UNL     1      -0.882   8.327  22.321  0.00  0.00    +0.000 F 
ATOM     24  F   UNL     1       0.731   9.647  22.928  0.00  0.00    +0.000 F 
ENDBRANCH  19  21
ENDBRANCH  14  15
ENDBRANCH   1  14
TORSDOF 7
ENDMDL
MODEL 6
REMARK VINA RESULT:      -7.3      1.189      1.678
REMARK  Name = 
REMARK  8 active torsions:
REMARK  status: ('A' for Active; 'I' for Inactive)
REMARK    1  A    between atoms: C_1  and  O_2
REMARK    2  A    between atoms: O_2  and  C_3
REMARK    3  A    between atoms: C_3  and  C_5
REMARK    4  A    between atoms: C_5  and  C_6
REMARK    5  A    between atoms: C_5  and  N_17
REMARK    6  A    between atoms: C_6  and  C_7
REMARK    7  A    between atoms: C_11  and  C_12
REMARK    8  A    between atoms: C_18  and  S_20
REMARK                            x       y       z     vdW  Elec       q    Type
REMARK                         _______ _______ _______ _____ _____    ______ ____
ROOT
ATOM      1  C   UNL     1       3.360   4.939  18.024  0.00  0.00    +0.000 C 
ENDROOT
BRANCH   1   2
ATOM      2  N   UNL     1       4.589   4.814  17.284  0.00  0.00    +0.000 N 
ATOM      3  C   UNL     1       5.826   4.730  17.893  0.00  0.00    +0.000 C 
ATOM      4  O   UNL     1       6.041   4.628  19.099  0.00  0.00    +0.000 OA
ATOM      5  H   UNL     1       4.664   4.971  16.271  0.00  0.00    +0.000 HD
BRANCH   3   6
ATOM      6  S   UNL     1       7.204   4.820  16.605  0.00  0.00    +0.000 S 
ATOM      7  O   UNL     1       8.275   4.130  17.342  0.00  0.00    +0.000 OA
ATOM      8  O   UNL     1       6.628   4.069  15.491  0.00  0.00    +0.000 OA
ATOM      9  O   UNL     1       7.370   6.254  16.435  0.00  0.00    +0.000 OA
ENDBRANCH   3   6
ENDBRANCH   1   2
BRANCH   1  10
ATOM     10  C   UNL     1       2.798   3.541  18.351  0.00  0.00    +0.000 C 
ATOM     11  O   UNL     1       3.453   2.563  18.712  0.00  0.00    +0.000 OA
BRANCH  10  13
ATOM     12  C   UNL     1       0.730   2.450  18.805  0.00  0.00    +0.000 C 
ATOM     13  O   UNL     1       1.437   3.595  18.330  0.00  0.00    +0.000 OA
ENDBRANCH  10  13
ENDBRANCH   1  10
BRANCH   1  14
ATOM     14  C   UNL     1       3.445   5.800  19.291  0.00  0.00    +0.000 C 
BRANCH  14  15
ATOM     15  C   UNL     1       2.612   7.057  19.236  0.00  0.00    +0.000 A 
ATOM     16  C   UNL     1       2.579   7.824  18.066  0.00  0.00    +0.000 A 
ATOM     17  C   UNL     1       1.831   8.999  18.008  0.00  0.00    +0.000 A 
ATOM     18  C   UNL     1       1.104   9.423  19.118  0.00  0.00    +0.000 A 
ATOM     19  C   UNL     1       1.102   8.663  20.294  0.00  0.00    +0.000 A 
ATOM     20  C   UNL     1       1.855   7.475  20.339  0.00  0.00    +0.000 A 
BRANCH  19  21
ATOM     21  C   UNL     1       0.312   9.097  21.501  0.00  0.00    +0.000 C 
ATOM     22  F   UNL     1      -0.705   8.257  21.834  0.00  0.00    +0.000 F 
ATOM     23  F   UNL     1       1.087   9.215  22.617  0.00  0.00    +0.000 F 
ATOM     24  F   UNL     1      -0.262  10.323  21.326  0.00  0.00    +0.000 F 
ENDBRANCH  19  21
ENDBRANCH  14  15
ENDBRANCH   1  14
TORSDOF 7
ENDMDL
MODEL 7
REMARK VINA RESULT:      -7.3      1.413      1.985
REMARK  Name = 
REMARK  8 active torsions:
REMARK  status: ('A' for Active; 'I' for Inactive)
REMARK    1  A    between atoms: C_1  and  O_2
REMARK    2  A    between atoms: O_2  and  C_3
REMARK    3  A    between atoms: C_3  and  C_5
REMARK    4  A    between atoms: C_5  and  C_6
REMARK    5  A    between atoms: C_5  and  N_17
REMARK    6  A    between atoms: C_6  and  C_7
REMARK    7  A    between atoms: C_11  and  C_12
REMARK    8  A    between atoms: C_18  and  S_20
REMARK                            x       y       z     vdW  Elec       q    Type
REMARK                         _______ _______ _______ _____ _____    ______ ____
ROOT
ATOM      1  C   UNL     1       3.317   4.493  18.602  0.00  0.00    +0.000 C 
ENDROOT
BRANCH   1   2
ATOM      2  N   UNL     1       4.392   4.450  17.644  0.00  0.00    +0.000 N 
ATOM      3  C   UNL     1       5.724   4.468  18.009  0.00  0.00    +0.000 C 
ATOM      4  O   UNL     1       6.168   4.402  19.153  0.00  0.00    +0.000 OA
ATOM      5  H   UNL     1       4.264   4.597  16.634  0.00  0.00    +0.000 HD
BRANCH   3   6
ATOM      6  S   UNL     1       6.825   4.643  16.485  0.00  0.00    +0.000 S 
ATOM      7  O   UNL     1       6.149   3.696  15.583  0.00  0.00    +0.000 OA
ATOM      8  O   UNL     1       6.656   6.056  16.149  0.00  0.00    +0.000 OA
ATOM      9  O   UNL     1       8.120   4.224  16.993  0.00  0.00    +0.000 OA
ENDBRANCH   3   6
ENDBRANCH   1   2
BRANCH   1  10
ATOM     10  C   UNL     1       3.137   3.107  19.253  0.00  0.00    +0.000 C 
ATOM     11  O   UNL     1       3.563   2.763  20.356  0.00  0.00    +0.000 OA
BRANCH  10  13
ATOM     12  C   UNL     1       0.897   2.477  18.746  0.00  0.00    +0.000 C 
ATOM     13  O   UNL     1       2.294   2.363  18.483  0.00  0.00    +0.000 OA
ENDBRANCH  10  13
ENDBRANCH   1  10
BRANCH   1  14
ATOM     14  C   UNL     1       3.442   5.584  19.673  0.00  0.00    +0.000 C 
BRANCH  14  15
ATOM     15  C   UNL     1       2.713   6.861  19.336  0.00  0.00    +0.000 A 
ATOM     16  C   UNL     1       2.877   7.450  18.077  0.00  0.00    +0.000 A 
ATOM     17  C   UNL     1       2.227   8.641  17.759  0.00  0.00    +0.000 A 
ATOM     18  C   UNL     1       1.401   9.260  18.694  0.00  0.00    +0.000 A 
ATOM     19  C   UNL     1       1.201   8.681  19.954  0.00  0.00    +0.000 A 
ATOM     20  C   UNL     1       1.856   7.475  20.261  0.00  0.00    +0.000 A 
BRANCH  19  21
ATOM     21  C   UNL     1       0.301   9.327  20.974  0.00  0.00    +0.000 C 
ATOM     22  F   UNL     1      -0.304   8.450  21.819  0.00  0.00    +0.000 F 
ATOM     23  F   UNL     1       0.963  10.219  21.764  0.00  0.00    +0.000 F 
ATOM     24  F   UNL     1      -0.709  10.038  20.392  0.00  0.00    +0.000 F 
ENDBRANCH  19  21
ENDBRANCH  14  15
ENDBRANCH   1  14
TORSDOF 7
ENDMDL
MODEL 8
REMARK VINA RESULT:      -7.3      1.872      2.466
REMARK  Name = 
REMARK  8 active torsions:
REMARK  status: ('A' for Active; 'I' for Inactive)
REMARK    1  A    between atoms: C_1  and  O_2
REMARK    2  A    between atoms: O_2  and  C_3
REMARK    3  A    between atoms: C_3  and  C_5
REMARK    4  A    between atoms: C_5  and  C_6
REMARK    5  A    between atoms: C_5  and  N_17
REMARK    6  A    between atoms: C_6  and  C_7
REMARK    7  A    between atoms: C_11  and  C_12
REMARK    8  A    between atoms: C_18  and  S_20
REMARK                            x       y       z     vdW  Elec       q    Type
REMARK                         _______ _______ _______ _____ _____    ______ ____
ROOT
ATOM      1  C   UNL     1       3.661   4.902  18.859  0.00  0.00    +0.000 C 
ENDROOT
BRANCH   1   2
ATOM      2  N   UNL     1       5.061   5.092  19.140  0.00  0.00    +0.000 N 
ATOM      3  C   UNL     1       5.894   5.841  18.331  0.00  0.00    +0.000 C 
ATOM      4  O   UNL     1       5.555   6.523  17.367  0.00  0.00    +0.000 OA
ATOM      5  H   UNL     1       5.584   4.544  19.835  0.00  0.00    +0.000 HD
BRANCH   3   6
ATOM      6  S   UNL     1       7.690   5.661  18.886  0.00  0.00    +0.000 S 
ATOM      7  O   UNL     1       8.111   4.560  18.004  0.00  0.00    +0.000 OA
ATOM      8  O   UNL     1       8.242   6.973  18.555  0.00  0.00    +0.000 OA
ATOM      9  O   UNL     1       7.544   5.329  20.293  0.00  0.00    +0.000 OA
ENDBRANCH   3   6
ENDBRANCH   1   2
BRANCH   1  10
ATOM     10  C   UNL     1       3.363   3.402  18.663  0.00  0.00    +0.000 C 
ATOM     11  O   UNL     1       4.065   2.467  19.050  0.00  0.00    +0.000 OA
BRANCH  10  13
ATOM     12  C   UNL     1       1.232   2.344  18.765  0.00  0.00    +0.000 C 
ATOM     13  O   UNL     1       2.117   3.264  18.130  0.00  0.00    +0.000 OA
ENDBRANCH  10  13
ENDBRANCH   1  10
BRANCH   1  14
ATOM     14  C   UNL     1       2.700   5.517  19.885  0.00  0.00    +0.000 C 
BRANCH  14  15
ATOM     15  C   UNL     1       2.218   6.900  19.522  0.00  0.00    +0.000 A 
ATOM     16  C   UNL     1       2.319   7.353  18.201  0.00  0.00    +0.000 A 
ATOM     17  C   UNL     1       1.898   8.635  17.856  0.00  0.00    +0.000 A 
ATOM     18  C   UNL     1       1.368   9.484  18.825  0.00  0.00    +0.000 A 
ATOM     19  C   UNL     1       1.235   9.049  20.150  0.00  0.00    +0.000 A 
ATOM     20  C   UNL     1       1.657   7.749  20.486  0.00  0.00    +0.000 A 
BRANCH  19  21
ATOM     21  C   UNL     1       0.652   9.946  21.210  0.00  0.00    +0.000 C 
ATOM     22  F   UNL     1       0.972  11.260  21.067  0.00  0.00    +0.000 F 
ATOM     23  F   UNL     1      -0.709   9.889  21.251  0.00  0.00    +0.000 F 
ATOM     24  F   UNL     1       1.068   9.598  22.463  0.00  0.00    +0.000 F 
ENDBRANCH  19  21
ENDBRANCH  14  15
ENDBRANCH   1  14
TORSDOF 7
ENDMDL
MODEL 9
REMARK VINA RESULT:      -7.3      1.995      2.535
REMARK  Name = 
REMARK  8 active torsions:
REMARK  status: ('A' for Active; 'I' for Inactive)
REMARK    1  A    between atoms: C_1  and  O_2
REMARK    2  A    between atoms: O_2  and  C_3
REMARK    3  A    between atoms: C_3  and  C_5
REMARK    4  A    between atoms: C_5  and  C_6
REMARK    5  A    between atoms: C_5  and  N_17
REMARK    6  A    between atoms: C_6  and  C_7
REMARK    7  A    between atoms: C_11  and  C_12
REMARK    8  A    between atoms: C_18  and  S_20
REMARK                            x       y       z     vdW  Elec       q    Type
REMARK                         _______ _______ _______ _____ _____    ______ ____
ROOT
ATOM      1  C   UNL     1       3.554   4.928  19.332  0.00  0.00    +0.000 C 
ENDROOT
BRANCH   1   2
ATOM      2  N   UNL     1       4.959   5.242  19.386  0.00  0.00    +0.000 N 
ATOM      3  C   UNL     1       5.741   5.381  18.257  0.00  0.00    +0.000 C 
ATOM      4  O   UNL     1       5.348   5.380  17.092  0.00  0.00    +0.000 OA
ATOM      5  H   UNL     1       5.521   5.196  20.246  0.00  0.00    +0.000 HD
BRANCH   3   6
ATOM      6  S   UNL     1       7.561   5.551  18.730  0.00  0.00    +0.000 S 
ATOM      7  O   UNL     1       7.455   5.359  20.186  0.00  0.00    +0.000 OA
ATOM      8  O   UNL     1       8.170   4.443  17.996  0.00  0.00    +0.000 OA
ATOM      9  O   UNL     1       7.868   6.900  18.286  0.00  0.00    +0.000 OA
ENDBRANCH   3   6
ENDBRANCH   1   2
BRANCH   1  10
ATOM     10  C   UNL     1       3.342   3.421  19.582  0.00  0.00    +0.000 C 
ATOM     11  O   UNL     1       4.228   2.574  19.700  0.00  0.00    +0.000 OA
BRANCH  10  13
ATOM     12  C   UNL     1       1.286   2.521  18.787  0.00  0.00    +0.000 C 
ATOM     13  O   UNL     1       2.018   3.193  19.810  0.00  0.00    +0.000 OA
ENDBRANCH  10  13
ENDBRANCH   1  10
BRANCH   1  14
ATOM     14  C   UNL     1       2.662   5.763  20.259  0.00  0.00    +0.000 C 
BRANCH  14  15
ATOM     15  C   UNL     1       2.205   7.069  19.658  0.00  0.00    +0.000 A 
ATOM     16  C   UNL     1       2.455   7.345  18.308  0.00  0.00    +0.000 A 
ATOM     17  C   UNL     1       2.057   8.556  17.745  0.00  0.00    +0.000 A 
ATOM     18  C   UNL     1       1.402   9.509  18.522  0.00  0.00    +0.000 A 
ATOM     19  C   UNL     1       1.120   9.251  19.869  0.00  0.00    +0.000 A 
ATOM     20  C   UNL     1       1.519   8.022  20.425  0.00  0.00    +0.000 A 
BRANCH  19  21
ATOM     21  C   UNL     1       0.400  10.262  20.722  0.00  0.00    +0.000 C 
ATOM     22  F   UNL     1      -0.596  10.928  20.078  0.00  0.00    +0.000 F 
ATOM     23  F   UNL     1      -0.171   9.702  21.826  0.00  0.00    +0.000 F 
ATOM     24  F   UNL     1       1.243  11.225  21.198  0.00  0.00    +0.000 F 
ENDBRANCH  19  21
ENDBRANCH  14  15
ENDBRANCH   1  14
TORSDOF 7
ENDMDL
