MODEL 1
REMARK VINA RESULT:      -5.9      0.000      0.000
REMARK  Name = 
REMARK  6 active torsions:
REMARK  status: ('A' for Active; 'I' for Inactive)
REMARK    1  A    between atoms: C_1  and  C_2
REMARK    2  A    between atoms: C_2  and  C_3
REMARK    3  A    between atoms: C_3  and  C_4
REMARK    4  A    between atoms: C_3  and  C_6
REMARK    5  A    between atoms: C_4  and  C_5
REMARK    6  A    between atoms: N_8  and  C_9
REMARK                            x       y       z     vdW  Elec       q    Type
REMARK                         _______ _______ _______ _____ _____    ______ ____
ROOT
ATOM      1  C   UNL     1       6.692   5.444  18.827  0.00  0.00    +0.000 C 
ATOM      2  O   UNL     1       7.036   5.447  20.010  0.00  0.00    +0.000 OA
ATOM      3  N   UNL     1       5.483   4.938  18.383  0.00  0.00    +0.000 N 
ATOM      4  H   UNL     1       5.366   4.788  17.385  0.00  0.00    +0.000 HD
ENDROOT
BRANCH   3   5
ATOM      5  C   UNL     1       4.481   4.407  19.235  0.00  0.00    +0.000 A 
ATOM      6  C   UNL     1       4.409   3.049  19.566  0.00  0.00    +0.000 A 
ATOM      7  C   UNL     1       3.362   2.547  20.341  0.00  0.00    +0.000 A 
ATOM      8  C   UNL     1       2.373   3.406  20.812  0.00  0.00    +0.000 A 
ATOM      9 CL   UNL     1       1.086   2.718  21.734  0.00  0.00    +0.000 Cl
ATOM     10  C   UNL     1       2.454   4.773  20.522  0.00  0.00    +0.000 A 
ATOM     11 CL   UNL     1       1.255   5.897  21.062  0.00  0.00    +0.000 Cl
ATOM     12  C   UNL     1       3.515   5.274  19.752  0.00  0.00    +0.000 A 
ENDBRANCH   3   5
BRANCH   1  13
ATOM     13  C   UNL     1       7.623   6.032  17.755  0.00  0.00    +0.000 C 
BRANCH  13  15
ATOM     14  C   UNL     1       7.359   5.033  15.354  0.00  0.00    +0.000 C 
ATOM     15  C   UNL     1       6.851   5.996  16.410  0.00  0.00    +0.000 C 
ENDBRANCH  13  15
BRANCH  13  16
ATOM     16  C   UNL     1       8.180   7.418  18.123  0.00  0.00    +0.000 C 
ATOM     17  C   UNL     1       7.331   8.592  17.655  0.00  0.00    +0.000 C 
ENDBRANCH  13  16
ENDBRANCH   1  13
TORSDOF 4
ENDMDL
MODEL 2
REMARK VINA RESULT:      -5.9      2.666      3.660
REMARK  Name = 
REMARK  6 active torsions:
REMARK  status: ('A' for Active; 'I' for Inactive)
REMARK    1  A    between atoms: C_1  and  C_2
REMARK    2  A    between atoms: C_2  and  C_3
REMARK    3  A    between atoms: C_3  and  C_4
REMARK    4  A    between atoms: C_3  and  C_6
REMARK    5  A    between atoms: C_4  and  C_5
REMARK    6  A    between atoms: N_8  and  C_9
REMARK                            x       y       z     vdW  Elec       q    Type
REMARK                         _______ _______ _______ _____ _____    ______ ____
ROOT
ATOM      1  C   UNL     1       5.501   4.490  15.371  0.00  0.00    +0.000 C 
ATOM      2  O   UNL     1       5.103   5.652  15.474  0.00  0.00    +0.000 OA
ATOM      3  N   UNL     1       5.230   3.503  16.303  0.00  0.00    +0.000 N 
ATOM      4  H   UNL     1       5.760   2.638  16.250  0.00  0.00    +0.000 HD
ENDROOT
BRANCH   3   5
ATOM      5  C   UNL     1       4.428   3.696  17.457  0.00  0.00    +0.000 A 
ATOM      6  C   UNL     1       4.866   4.422  18.571  0.00  0.00    +0.000 A 
ATOM      7  C   UNL     1       4.082   4.523  19.722  0.00  0.00    +0.000 A 
ATOM      8  C   UNL     1       2.835   3.907  19.769  0.00  0.00    +0.000 A 
ATOM      9 CL   UNL     1       1.930   4.038  21.234  0.00  0.00    +0.000 Cl
ATOM     10  C   UNL     1       2.367   3.211  18.648  0.00  0.00    +0.000 A 
ATOM     11 CL   UNL     1       0.834   2.412  18.639  0.00  0.00    +0.000 Cl
ATOM     12  C   UNL     1       3.155   3.123  17.489  0.00  0.00    +0.000 A 
ENDBRANCH   3   5
BRANCH   1  13
ATOM     13  C   UNL     1       6.341   4.070  14.155  0.00  0.00    +0.000 C 
BRANCH  13  15
ATOM     14  C   UNL     1       5.636   2.719  12.032  0.00  0.00    +0.000 C 
ATOM     15  C   UNL     1       5.363   3.882  12.966  0.00  0.00    +0.000 C 
ENDBRANCH  13  15
BRANCH  13  16
ATOM     16  C   UNL     1       7.509   5.028  13.861  0.00  0.00    +0.000 C 
ATOM     17  C   UNL     1       7.746   5.313  12.384  0.00  0.00    +0.000 C 
ENDBRANCH  13  16
ENDBRANCH   1  13
TORSDOF 4
ENDMDL
MODEL 3
REMARK VINA RESULT:      -5.9      1.246      2.291
REMARK  Name = 
REMARK  6 active torsions:
REMARK  status: ('A' for Active; 'I' for Inactive)
REMARK    1  A    between atoms: C_1  and  C_2
REMARK    2  A    between atoms: C_2  and  C_3
REMARK    3  A    between atoms: C_3  and  C_4
REMARK    4  A    between atoms: C_3  and  C_6
REMARK    5  A    between atoms: C_4  and  C_5
REMARK    6  A    between atoms: N_8  and  C_9
REMARK                            x       y       z     vdW  Elec       q    Type
REMARK                         _______ _______ _______ _____ _____    ______ ____
ROOT
ATOM      1  C   UNL     1       5.460   5.519  17.181  0.00  0.00    +0.000 C 
ATOM      2  O   UNL     1       4.369   5.530  16.608  0.00  0.00    +0.000 OA
ATOM      3  N   UNL     1       5.643   5.049  18.470  0.00  0.00    +0.000 N 
ATOM      4  H   UNL     1       6.520   5.263  18.935  0.00  0.00    +0.000 HD
ENDROOT
BRANCH   3   5
ATOM      5  C   UNL     1       4.614   4.483  19.265  0.00  0.00    +0.000 A 
ATOM      6  C   UNL     1       4.547   3.116  19.557  0.00  0.00    +0.000 A 
ATOM      7  C   UNL     1       3.475   2.581  20.274  0.00  0.00    +0.000 A 
ATOM      8  C   UNL     1       2.455   3.414  20.724  0.00  0.00    +0.000 A 
ATOM      9 CL   UNL     1       1.141   2.686  21.573  0.00  0.00    +0.000 Cl
ATOM     10  C   UNL     1       2.529   4.790  20.473  0.00  0.00    +0.000 A 
ATOM     11 CL   UNL     1       1.294   5.883  20.991  0.00  0.00    +0.000 Cl
ATOM     12  C   UNL     1       3.616   5.324  19.762  0.00  0.00    +0.000 A 
ENDBRANCH   3   5
BRANCH   1  13
ATOM     13  C   UNL     1       6.712   6.042  16.458  0.00  0.00    +0.000 C 
BRANCH  13  15
ATOM     14  C   UNL     1       7.753   8.165  17.571  0.00  0.00    +0.000 C 
ATOM     15  C   UNL     1       7.642   6.653  17.539  0.00  0.00    +0.000 C 
ENDBRANCH  13  15
BRANCH  13  16
ATOM     16  C   UNL     1       7.390   4.983  15.572  0.00  0.00    +0.000 C 
ATOM     17  C   UNL     1       6.536   4.471  14.421  0.00  0.00    +0.000 C 
ENDBRANCH  13  16
ENDBRANCH   1  13
TORSDOF 4
ENDMDL
MODEL 4
REMARK VINA RESULT:      -5.9      3.314      6.201
REMARK  Name = 
REMARK  6 active torsions:
REMARK  status: ('A' for Active; 'I' for Inactive)
REMARK    1  A    between atoms: C_1  and  C_2
REMARK    2  A    between atoms: C_2  and  C_3
REMARK    3  A    between atoms: C_3  and  C_4
REMARK    4  A    between atoms: C_3  and  C_6
REMARK    5  A    between atoms: C_4  and  C_5
REMARK    6  A    between atoms: N_8  and  C_9
REMARK                            x       y       z     vdW  Elec       q    Type
REMARK                         _______ _______ _______ _____ _____    ______ ____
ROOT
ATOM      1  C   UNL     1       2.089   4.849  19.741  0.00  0.00    +0.000 C 
ATOM      2  O   UNL     1       2.119   5.892  20.395  0.00  0.00    +0.000 OA
ATOM      3  N   UNL     1       3.019   4.529  18.767  0.00  0.00    +0.000 N 
ATOM      4  H   UNL     1       2.808   3.758  18.141  0.00  0.00    +0.000 HD
ENDROOT
BRANCH   3   5
ATOM      5  C   UNL     1       4.137   5.337  18.438  0.00  0.00    +0.000 A 
ATOM      6  C   UNL     1       4.103   6.302  17.425  0.00  0.00    +0.000 A 
ATOM      7  C   UNL     1       5.246   7.022  17.073  0.00  0.00    +0.000 A 
ATOM      8  C   UNL     1       6.444   6.796  17.744  0.00  0.00    +0.000 A 
ATOM      9 CL   UNL     1       7.829   7.692  17.238  0.00  0.00    +0.000 Cl
ATOM     10  C   UNL     1       6.483   5.862  18.787  0.00  0.00    +0.000 A 
ATOM     11 CL   UNL     1       7.938   5.520  19.656  0.00  0.00    +0.000 Cl
ATOM     12  C   UNL     1       5.328   5.149  19.144  0.00  0.00    +0.000 A 
ENDBRANCH   3   5
BRANCH   1  13
ATOM     13  C   UNL     1       0.980   3.815  19.993  0.00  0.00    +0.000 C 
BRANCH  13  15
ATOM     14  C   UNL     1       1.420   1.612  18.658  0.00  0.00    +0.000 C 
ATOM     15  C   UNL     1       0.808   3.000  18.685  0.00  0.00    +0.000 C 
ENDBRANCH  13  15
BRANCH  13  16
ATOM     16  C   UNL     1       1.223   2.953  21.244  0.00  0.00    +0.000 C 
ATOM     17  C   UNL     1       2.689   2.748  21.604  0.00  0.00    +0.000 C 
ENDBRANCH  13  16
ENDBRANCH   1  13
TORSDOF 4
ENDMDL
MODEL 5
REMARK VINA RESULT:      -5.8      4.313      6.993
REMARK  Name = 
REMARK  6 active torsions:
REMARK  status: ('A' for Active; 'I' for Inactive)
REMARK    1  A    between atoms: C_1  and  C_2
REMARK    2  A    between atoms: C_2  and  C_3
REMARK    3  A    between atoms: C_3  and  C_4
REMARK    4  A    between atoms: C_3  and  C_6
REMARK    5  A    between atoms: C_4  and  C_5
REMARK    6  A    between atoms: N_8  and  C_9
REMARK                            x       y       z     vdW  Elec       q    Type
REMARK                         _______ _______ _______ _____ _____    ______ ____
ROOT
ATOM      1  C   UNL     1       3.676   4.379  17.734  0.00  0.00    +0.000 C 
ATOM      2  O   UNL     1       3.540   5.569  17.442  0.00  0.00    +0.000 OA
ATOM      3  N   UNL     1       4.601   3.545  17.131  0.00  0.00    +0.000 N 
ATOM      4  H   UNL     1       4.509   2.544  17.280  0.00  0.00    +0.000 HD
ENDROOT
BRANCH   3   5
ATOM      5  C   UNL     1       5.529   3.965  16.145  0.00  0.00    +0.000 A 
ATOM      6  C   UNL     1       6.603   4.817  16.430  0.00  0.00    +0.000 A 
ATOM      7  C   UNL     1       7.450   5.276  15.419  0.00  0.00    +0.000 A 
ATOM      8  C   UNL     1       7.241   4.876  14.102  0.00  0.00    +0.000 A 
ATOM      9 CL   UNL     1       8.299   5.508  12.894  0.00  0.00    +0.000 Cl
ATOM     10  C   UNL     1       6.194   3.994  13.809  0.00  0.00    +0.000 A 
ATOM     11 CL   UNL     1       5.867   3.465  12.196  0.00  0.00    +0.000 Cl
ATOM     12  C   UNL     1       5.353   3.526  14.831  0.00  0.00    +0.000 A 
ENDBRANCH   3   5
BRANCH   1  13
ATOM     13  C   UNL     1       2.795   3.750  18.825  0.00  0.00    +0.000 C 
BRANCH  13  15
ATOM     14  C   UNL     1       1.784   5.428  20.555  0.00  0.00    +0.000 C 
ATOM     15  C   UNL     1       2.976   4.604  20.107  0.00  0.00    +0.000 C 
ENDBRANCH  13  15
BRANCH  13  16
ATOM     16  C   UNL     1       1.330   3.566  18.395  0.00  0.00    +0.000 C 
ATOM     17  C   UNL     1       0.669   2.292  18.904  0.00  0.00    +0.000 C 
ENDBRANCH  13  16
ENDBRANCH   1  13
TORSDOF 4
ENDMDL
MODEL 6
REMARK VINA RESULT:      -5.8      3.633      6.286
REMARK  Name = 
REMARK  6 active torsions:
REMARK  status: ('A' for Active; 'I' for Inactive)
REMARK    1  A    between atoms: C_1  and  C_2
REMARK    2  A    between atoms: C_2  and  C_3
REMARK    3  A    between atoms: C_3  and  C_4
REMARK    4  A    between atoms: C_3  and  C_6
REMARK    5  A    between atoms: C_4  and  C_5
REMARK    6  A    between atoms: N_8  and  C_9
REMARK                            x       y       z     vdW  Elec       q    Type
REMARK                         _______ _______ _______ _____ _____    ______ ____
ROOT
ATOM      1  C   UNL     1       2.304   4.768  18.877  0.00  0.00    +0.000 C 
ATOM      2  O   UNL     1       1.807   5.479  18.003  0.00  0.00    +0.000 OA
ATOM      3  N   UNL     1       3.591   4.263  18.813  0.00  0.00    +0.000 N 
ATOM      4  H   UNL     1       3.848   3.528  19.465  0.00  0.00    +0.000 HD
ENDROOT
BRANCH   3   5
ATOM      5  C   UNL     1       4.502   4.539  17.763  0.00  0.00    +0.000 A 
ATOM      6  C   UNL     1       4.532   3.803  16.572  0.00  0.00    +0.000 A 
ATOM      7  C   UNL     1       5.497   4.049  15.593  0.00  0.00    +0.000 A 
ATOM      8  C   UNL     1       6.443   5.051  15.787  0.00  0.00    +0.000 A 
ATOM      9 CL   UNL     1       7.631   5.281  14.556  0.00  0.00    +0.000 Cl
ATOM     10  C   UNL     1       6.401   5.821  16.955  0.00  0.00    +0.000 A 
ATOM     11 CL   UNL     1       7.551   7.073  17.269  0.00  0.00    +0.000 Cl
ATOM     12  C   UNL     1       5.421   5.577  17.931  0.00  0.00    +0.000 A 
ENDBRANCH   3   5
BRANCH   1  13
ATOM     13  C   UNL     1       1.487   4.403  20.128  0.00  0.00    +0.000 C 
BRANCH  13  15
ATOM     14  C   UNL     1       1.008   2.301  18.651  0.00  0.00    +0.000 C 
ATOM     15  C   UNL     1       0.524   3.256  19.726  0.00  0.00    +0.000 C 
ENDBRANCH  13  15
BRANCH  13  16
ATOM     16  C   UNL     1       2.359   4.091  21.356  0.00  0.00    +0.000 C 
ATOM     17  C   UNL     1       2.148   2.706  21.954  0.00  0.00    +0.000 C 
ENDBRANCH  13  16
ENDBRANCH   1  13
TORSDOF 4
ENDMDL
MODEL 7
REMARK VINA RESULT:      -5.7      1.702      2.850
REMARK  Name = 
REMARK  6 active torsions:
REMARK  status: ('A' for Active; 'I' for Inactive)
REMARK    1  A    between atoms: C_1  and  C_2
REMARK    2  A    between atoms: C_2  and  C_3
REMARK    3  A    between atoms: C_3  and  C_4
REMARK    4  A    between atoms: C_3  and  C_6
REMARK    5  A    between atoms: C_4  and  C_5
REMARK    6  A    between atoms: N_8  and  C_9
REMARK                            x       y       z     vdW  Elec       q    Type
REMARK                         _______ _______ _______ _____ _____    ______ ____
ROOT
ATOM      1  C   UNL     1       5.191   5.054  17.115  0.00  0.00    +0.000 C 
ATOM      2  O   UNL     1       5.735   4.040  17.555  0.00  0.00    +0.000 OA
ATOM      3  N   UNL     1       3.956   5.507  17.546  0.00  0.00    +0.000 N 
ATOM      4  H   UNL     1       3.492   6.224  16.995  0.00  0.00    +0.000 HD
ENDROOT
BRANCH   3   5
ATOM      5  C   UNL     1       3.195   4.890  18.571  0.00  0.00    +0.000 A 
ATOM      6  C   UNL     1       3.355   5.200  19.926  0.00  0.00    +0.000 A 
ATOM      7  C   UNL     1       2.647   4.514  20.914  0.00  0.00    +0.000 A 
ATOM      8  C   UNL     1       1.751   3.511  20.557  0.00  0.00    +0.000 A 
ATOM      9 CL   UNL     1       0.933   2.676  21.827  0.00  0.00    +0.000 Cl
ATOM     10  C   UNL     1       1.551   3.217  19.203  0.00  0.00    +0.000 A 
ATOM     11 CL   UNL     1       0.464   1.976  18.685  0.00  0.00    +0.000 Cl
ATOM     12  C   UNL     1       2.257   3.918  18.213  0.00  0.00    +0.000 A 
ENDBRANCH   3   5
BRANCH   1  13
ATOM     13  C   UNL     1       5.890   5.894  16.034  0.00  0.00    +0.000 C 
BRANCH  13  15
ATOM     14  C   UNL     1       7.556   6.816  17.825  0.00  0.00    +0.000 C 
ATOM     15  C   UNL     1       6.531   7.114  16.747  0.00  0.00    +0.000 C 
ENDBRANCH  13  15
BRANCH  13  16
ATOM     16  C   UNL     1       6.871   5.083  15.172  0.00  0.00    +0.000 C 
ATOM     17  C   UNL     1       6.216   4.182  14.134  0.00  0.00    +0.000 C 
ENDBRANCH  13  16
ENDBRANCH   1  13
TORSDOF 4
ENDMDL
MODEL 8
REMARK VINA RESULT:      -5.7      4.014      6.044
REMARK  Name = 
REMARK  6 active torsions:
REMARK  status: ('A' for Active; 'I' for Inactive)
REMARK    1  A    between atoms: C_1  and  C_2
REMARK    2  A    between atoms: C_2  and  C_3
REMARK    3  A    between atoms: C_3  and  C_4
REMARK    4  A    between atoms: C_3  and  C_6
REMARK    5  A    between atoms: C_4  and  C_5
REMARK    6  A    between atoms: N_8  and  C_9
REMARK                            x       y       z     vdW  Elec       q    Type
REMARK                         _______ _______ _______ _____ _____    ______ ____
ROOT
ATOM      1  C   UNL     1       2.585   4.913  19.245  0.00  0.00    +0.000 C 
ATOM      2  O   UNL     1       1.642   4.767  18.466  0.00  0.00    +0.000 OA
ATOM      3  N   UNL     1       2.973   6.139  19.756  0.00  0.00    +0.000 N 
ATOM      4  H   UNL     1       3.875   6.199  20.222  0.00  0.00    +0.000 HD
ENDROOT
BRANCH   3   5
ATOM      5  C   UNL     1       2.309   7.362  19.483  0.00  0.00    +0.000 A 
ATOM      6  C   UNL     1       2.401   8.015  18.249  0.00  0.00    +0.000 A 
ATOM      7  C   UNL     1       1.800   9.258  18.041  0.00  0.00    +0.000 A 
ATOM      8  C   UNL     1       1.082   9.863  19.069  0.00  0.00    +0.000 A 
ATOM      9 CL   UNL     1       0.394  11.416  18.761  0.00  0.00    +0.000 Cl
ATOM     10  C   UNL     1       0.948   9.203  20.296  0.00  0.00    +0.000 A 
ATOM     11 CL   UNL     1       0.082   9.898  21.621  0.00  0.00    +0.000 Cl
ATOM     12  C   UNL     1       1.545   7.947  20.495  0.00  0.00    +0.000 A 
ENDBRANCH   3   5
BRANCH   1  13
ATOM     13  C   UNL     1       3.397   3.692  19.706  0.00  0.00    +0.000 C 
BRANCH  13  15
ATOM     14  C   UNL     1       1.998   3.205  21.859  0.00  0.00    +0.000 C 
ATOM     15  C   UNL     1       2.424   2.759  20.474  0.00  0.00    +0.000 C 
ENDBRANCH  13  15
BRANCH  13  16
ATOM     16  C   UNL     1       4.159   3.000  18.563  0.00  0.00    +0.000 C 
ATOM     17  C   UNL     1       3.554   1.683  18.097  0.00  0.00    +0.000 C 
ENDBRANCH  13  16
ENDBRANCH   1  13
TORSDOF 4
ENDMDL
MODEL 9
REMARK VINA RESULT:      -5.7      3.643      5.260
REMARK  Name = 
REMARK  6 active torsions:
REMARK  status: ('A' for Active; 'I' for Inactive)
REMARK    1  A    between atoms: C_1  and  C_2
REMARK    2  A    between atoms: C_2  and  C_3
REMARK    3  A    between atoms: C_3  and  C_4
REMARK    4  A    between atoms: C_3  and  C_6
REMARK    5  A    between atoms: C_4  and  C_5
REMARK    6  A    between atoms: N_8  and  C_9
REMARK                            x       y       z     vdW  Elec       q    Type
REMARK                         _______ _______ _______ _____ _____    ______ ____
ROOT
ATOM      1  C   UNL     1       2.940   5.307  17.995  0.00  0.00    +0.000 C 
ATOM      2  O   UNL     1       1.768   4.984  17.797  0.00  0.00    +0.000 OA
ATOM      3  N   UNL     1       3.325   6.563  18.431  0.00  0.00    +0.000 N 
ATOM      4  H   UNL     1       4.309   6.808  18.371  0.00  0.00    +0.000 HD
ENDROOT
BRANCH   3   5
ATOM      5  C   UNL     1       2.420   7.608  18.746  0.00  0.00    +0.000 A 
ATOM      6  C   UNL     1       1.988   8.547  17.802  0.00  0.00    +0.000 A 
ATOM      7  C   UNL     1       1.161   9.611  18.166  0.00  0.00    +0.000 A 
ATOM      8  C   UNL     1       0.739   9.744  19.486  0.00  0.00    +0.000 A 
ATOM      9 CL   UNL     1      -0.252  11.101  19.879  0.00  0.00    +0.000 Cl
ATOM     10  C   UNL     1       1.131   8.790  20.433  0.00  0.00    +0.000 A 
ATOM     11 CL   UNL     1       0.656   8.896  22.092  0.00  0.00    +0.000 Cl
ATOM     12  C   UNL     1       1.953   7.715  20.058  0.00  0.00    +0.000 A 
ENDBRANCH   3   5
BRANCH   1  13
ATOM     13  C   UNL     1       4.067   4.288  17.762  0.00  0.00    +0.000 C 
BRANCH  13  15
ATOM     14  C   UNL     1       3.405   1.795  18.182  0.00  0.00    +0.000 C 
ATOM     15  C   UNL     1       3.405   2.985  17.242  0.00  0.00    +0.000 C 
ENDBRANCH  13  15
BRANCH  13  16
ATOM     16  C   UNL     1       5.196   4.822  16.863  0.00  0.00    +0.000 C 
ATOM     17  C   UNL     1       5.659   3.858  15.779  0.00  0.00    +0.000 C 
ENDBRANCH  13  16
ENDBRANCH   1  13
TORSDOF 4
ENDMDL
