MODEL 1
REMARK VINA RESULT:      -7.5      0.000      0.000
REMARK  Name = 
REMARK  11 active torsions:
REMARK  status: ('A' for Active; 'I' for Inactive)
REMARK    1  A    between atoms: C_1  and  C_2
REMARK    2  A    between atoms: C_2  and  C_3
REMARK    3  A    between atoms: C_5  and  C_6
REMARK    4  A    between atoms: C_6  and  N_7
REMARK    5  A    between atoms: C_11  and  N_12
REMARK    6  A    between atoms: N_12  and  C_13
REMARK    7  A    between atoms: C_13  and  C_14
REMARK    8  A    between atoms: C_17  and  C_18
REMARK    9  A    between atoms: C_18  and  C_19
REMARK   10  A    between atoms: C_18  and  C_20
REMARK   11  A    between atoms: C_18  and  C_21
REMARK                            x       y       z     vdW  Elec       q    Type
REMARK                         _______ _______ _______ _____ _____    ______ ____
ROOT
ATOM      1  N   UNL     1       4.389   4.583  17.624  0.00  0.00    +0.000 NA
ATOM      2  C   UNL     1       3.776   3.252  17.596  0.00  0.00    +0.000 C 
ATOM      3  C   UNL     1       2.250   3.345  17.646  0.00  0.00    +0.000 C 
ATOM      4  C   UNL     1       1.781   4.116  18.878  0.00  0.00    +0.000 C 
ATOM      5  C   UNL     1       2.425   5.512  18.916  0.00  0.00    +0.000 C 
ATOM      6  C   UNL     1       3.966   5.370  18.789  0.00  0.00    +0.000 C 
ENDROOT
BRANCH   5   7
ATOM      7  N   UNL     1       1.998   6.191  20.153  0.00  0.00    +0.000 NA
ATOM      8  H   UNL     1       2.415   5.734  20.967  0.00  0.00    +0.000 HD
BRANCH   7   9
ATOM      9  C   UNL     1       2.391   7.610  20.182  0.00  0.00    +0.000 C 
BRANCH   9  10
ATOM     10  C   UNL     1       1.238   8.516  20.479  0.00  0.00    +0.000 A 
ATOM     11  N   UNL     1       0.581   8.667  21.615  0.00  0.00    +0.000 NA
ATOM     12  C   UNL     1      -0.299   9.682  21.346  0.00  0.00    +0.000 A 
ATOM     13  C   UNL     1      -0.144  10.123  20.050  0.00  0.00    +0.000 A 
ATOM     14  O   UNL     1       0.857   9.374  19.486  0.00  0.00    +0.000 OA
BRANCH  13  15
ATOM     15  C   UNL     1      -0.795  11.165  19.188  0.00  0.00    +0.000 C 
ATOM     16  C   UNL     1       0.236  12.212  18.732  0.00  0.00    +0.000 C 
ATOM     17  C   UNL     1      -1.413  10.510  17.939  0.00  0.00    +0.000 C 
ATOM     18  C   UNL     1      -1.900  11.877  19.989  0.00  0.00    +0.000 C 
ENDBRANCH  13  15
ENDBRANCH   9  10
ENDBRANCH   7   9
ENDBRANCH   5   7
BRANCH   1  19
ATOM     19  C   UNL     1       5.868   4.534  17.508  0.00  0.00    +0.000 C 
BRANCH  19  22
ATOM     20  C   UNL     1       6.700   4.385  14.066  0.00  0.00    +0.000 A 
ATOM     21  N   UNL     1       6.047   3.861  15.081  0.00  0.00    +0.000 NA
ATOM     22  C   UNL     1       6.401   4.699  16.113  0.00  0.00    +0.000 A 
ATOM     23  N   UNL     1       7.252   5.677  15.772  0.00  0.00    +0.000 NA
ATOM     24  O   UNL     1       7.448   5.473  14.405  0.00  0.00    +0.000 OA
BRANCH  20  26
ATOM     25  C   UNL     1       5.452   3.254  12.243  0.00  0.00    +0.000 C 
ATOM     26  C   UNL     1       6.735   3.961  12.647  0.00  0.00    +0.000 C 
ENDBRANCH  20  26
ENDBRANCH  19  22
ENDBRANCH   1  19
TORSDOF 7
ENDMDL
MODEL 2
REMARK VINA RESULT:      -7.4      1.132      1.402
REMARK  Name = 
REMARK  11 active torsions:
REMARK  status: ('A' for Active; 'I' for Inactive)
REMARK    1  A    between atoms: C_1  and  C_2
REMARK    2  A    between atoms: C_2  and  C_3
REMARK    3  A    between atoms: C_5  and  C_6
REMARK    4  A    between atoms: C_6  and  N_7
REMARK    5  A    between atoms: C_11  and  N_12
REMARK    6  A    between atoms: N_12  and  C_13
REMARK    7  A    between atoms: C_13  and  C_14
REMARK    8  A    between atoms: C_17  and  C_18
REMARK    9  A    between atoms: C_18  and  C_19
REMARK   10  A    between atoms: C_18  and  C_20
REMARK   11  A    between atoms: C_18  and  C_21
REMARK                            x       y       z     vdW  Elec       q    Type
REMARK                         _______ _______ _______ _____ _____    ______ ____
ROOT
ATOM      1  N   UNL     1       4.432   4.769  17.790  0.00  0.00    +0.000 NA
ATOM      2  C   UNL     1       3.708   3.510  17.985  0.00  0.00    +0.000 C 
ATOM      3  C   UNL     1       2.199   3.747  18.071  0.00  0.00    +0.000 C 
ATOM      4  C   UNL     1       1.854   4.731  19.187  0.00  0.00    +0.000 C 
ATOM      5  C   UNL     1       2.615   6.053  18.991  0.00  0.00    +0.000 C 
ATOM      6  C   UNL     1       4.131   5.756  18.836  0.00  0.00    +0.000 C 
ENDROOT
BRANCH   5   7
ATOM      7  N   UNL     1       2.305   6.944  20.124  0.00  0.00    +0.000 NA
ATOM      8  H   UNL     1       3.148   7.122  20.674  0.00  0.00    +0.000 HD
BRANCH   7   9
ATOM      9  C   UNL     1       1.768   8.245  19.689  0.00  0.00    +0.000 C 
BRANCH   9  10
ATOM     10  C   UNL     1       1.057   8.966  20.790  0.00  0.00    +0.000 A 
ATOM     11  N   UNL     1       0.990   8.652  22.071  0.00  0.00    +0.000 NA
ATOM     12  C   UNL     1       0.301   9.699  22.624  0.00  0.00    +0.000 A 
ATOM     13  C   UNL     1      -0.026  10.626  21.658  0.00  0.00    +0.000 A 
ATOM     14  O   UNL     1       0.469  10.158  20.467  0.00  0.00    +0.000 OA
BRANCH  13  15
ATOM     15  C   UNL     1      -0.760  11.934  21.632  0.00  0.00    +0.000 C 
ATOM     16  C   UNL     1       0.230  13.108  21.513  0.00  0.00    +0.000 C 
ATOM     17  C   UNL     1      -1.721  11.981  20.432  0.00  0.00    +0.000 C 
ATOM     18  C   UNL     1      -1.563  12.098  22.936  0.00  0.00    +0.000 C 
ENDBRANCH  13  15
ENDBRANCH   9  10
ENDBRANCH   7   9
ENDBRANCH   5   7
BRANCH   1  19
ATOM     19  C   UNL     1       5.894   4.570  17.634  0.00  0.00    +0.000 C 
BRANCH  19  22
ATOM     20  C   UNL     1       6.603   4.259  14.175  0.00  0.00    +0.000 A 
ATOM     21  N   UNL     1       5.933   3.826  15.222  0.00  0.00    +0.000 NA
ATOM     22  C   UNL     1       6.398   4.649  16.221  0.00  0.00    +0.000 A 
ATOM     23  N   UNL     1       7.329   5.532  15.830  0.00  0.00    +0.000 NA
ATOM     24  O   UNL     1       7.462   5.277  14.464  0.00  0.00    +0.000 OA
BRANCH  20  26
ATOM     25  C   UNL     1       7.346   4.719  11.852  0.00  0.00    +0.000 C 
ATOM     26  C   UNL     1       6.554   3.800  12.768  0.00  0.00    +0.000 C 
ENDBRANCH  20  26
ENDBRANCH  19  22
ENDBRANCH   1  19
TORSDOF 7
ENDMDL
MODEL 3
REMARK VINA RESULT:      -7.3      1.533      2.048
REMARK  Name = 
REMARK  11 active torsions:
REMARK  status: ('A' for Active; 'I' for Inactive)
REMARK    1  A    between atoms: C_1  and  C_2
REMARK    2  A    between atoms: C_2  and  C_3
REMARK    3  A    between atoms: C_5  and  C_6
REMARK    4  A    between atoms: C_6  and  N_7
REMARK    5  A    between atoms: C_11  and  N_12
REMARK    6  A    between atoms: N_12  and  C_13
REMARK    7  A    between atoms: C_13  and  C_14
REMARK    8  A    between atoms: C_17  and  C_18
REMARK    9  A    between atoms: C_18  and  C_19
REMARK   10  A    between atoms: C_18  and  C_20
REMARK   11  A    between atoms: C_18  and  C_21
REMARK                            x       y       z     vdW  Elec       q    Type
REMARK                         _______ _______ _______ _____ _____    ______ ____
ROOT
ATOM      1  N   UNL     1       5.472   4.753  17.138  0.00  0.00    +0.000 NA
ATOM      2  C   UNL     1       6.006   4.173  18.374  0.00  0.00    +0.000 C 
ATOM      3  C   UNL     1       4.930   3.392  19.130  0.00  0.00    +0.000 C 
ATOM      4  C   UNL     1       3.721   4.272  19.440  0.00  0.00    +0.000 C 
ATOM      5  C   UNL     1       3.158   4.887  18.148  0.00  0.00    +0.000 C 
ATOM      6  C   UNL     1       4.301   5.605  17.381  0.00  0.00    +0.000 C 
ENDROOT
BRANCH   5   7
ATOM      7  N   UNL     1       2.039   5.780  18.503  0.00  0.00    +0.000 NA
ATOM      8  H   UNL     1       1.280   5.242  18.927  0.00  0.00    +0.000 HD
BRANCH   7   9
ATOM      9  C   UNL     1       2.435   6.829  19.458  0.00  0.00    +0.000 C 
BRANCH   9  10
ATOM     10  C   UNL     1       2.086   8.201  18.976  0.00  0.00    +0.000 A 
ATOM     11  N   UNL     1       2.361   8.759  17.810  0.00  0.00    +0.000 NA
ATOM     12  C   UNL     1       1.725   9.972  17.876  0.00  0.00    +0.000 A 
ATOM     13  C   UNL     1       1.075  10.111  19.083  0.00  0.00    +0.000 A 
ATOM     14  O   UNL     1       1.300   8.962  19.797  0.00  0.00    +0.000 OA
BRANCH  13  15
ATOM     15  C   UNL     1       0.243  11.176  19.735  0.00  0.00    +0.000 C 
ATOM     16  C   UNL     1      -0.695  11.835  18.708  0.00  0.00    +0.000 C 
ATOM     17  C   UNL     1      -0.613  10.567  20.860  0.00  0.00    +0.000 C 
ATOM     18  C   UNL     1       1.165  12.258  20.325  0.00  0.00    +0.000 C 
ENDBRANCH  13  15
ENDBRANCH   9  10
ENDBRANCH   7   9
ENDBRANCH   5   7
BRANCH   1  19
ATOM     19  C   UNL     1       6.507   5.460  16.344  0.00  0.00    +0.000 C 
BRANCH  19  22
ATOM     20  C   UNL     1       6.357   3.882  13.174  0.00  0.00    +0.000 A 
ATOM     21  N   UNL     1       5.886   3.975  14.399  0.00  0.00    +0.000 NA
ATOM     22  C   UNL     1       6.682   4.958  14.939  0.00  0.00    +0.000 A 
ATOM     23  N   UNL     1       7.619   5.438  14.109  0.00  0.00    +0.000 NA
ATOM     24  O   UNL     1       7.400   4.725  12.929  0.00  0.00    +0.000 OA
BRANCH  20  26
ATOM     25  C   UNL     1       4.497   3.317  11.631  0.00  0.00    +0.000 C 
ATOM     26  C   UNL     1       5.922   3.008  12.060  0.00  0.00    +0.000 C 
ENDBRANCH  20  26
ENDBRANCH  19  22
ENDBRANCH   1  19
TORSDOF 7
ENDMDL
MODEL 4
REMARK VINA RESULT:      -7.3      1.155      1.525
REMARK  Name = 
REMARK  11 active torsions:
REMARK  status: ('A' for Active; 'I' for Inactive)
REMARK    1  A    between atoms: C_1  and  C_2
REMARK    2  A    between atoms: C_2  and  C_3
REMARK    3  A    between atoms: C_5  and  C_6
REMARK    4  A    between atoms: C_6  and  N_7
REMARK    5  A    between atoms: C_11  and  N_12
REMARK    6  A    between atoms: N_12  and  C_13
REMARK    7  A    between atoms: C_13  and  C_14
REMARK    8  A    between atoms: C_17  and  C_18
REMARK    9  A    between atoms: C_18  and  C_19
REMARK   10  A    between atoms: C_18  and  C_20
REMARK   11  A    between atoms: C_18  and  C_21
REMARK                            x       y       z     vdW  Elec       q    Type
REMARK                         _______ _______ _______ _____ _____    ______ ____
ROOT
ATOM      1  N   UNL     1       4.888   4.549  18.303  0.00  0.00    +0.000 NA
ATOM      2  C   UNL     1       4.693   3.272  18.995  0.00  0.00    +0.000 C 
ATOM      3  C   UNL     1       3.231   3.080  19.401  0.00  0.00    +0.000 C 
ATOM      4  C   UNL     1       2.742   4.233  20.275  0.00  0.00    +0.000 C 
ATOM      5  C   UNL     1       2.949   5.577  19.557  0.00  0.00    +0.000 C 
ATOM      6  C   UNL     1       4.428   5.693  19.100  0.00  0.00    +0.000 C 
ENDROOT
BRANCH   5   7
ATOM      7  N   UNL     1       2.528   6.662  20.463  0.00  0.00    +0.000 NA
ATOM      8  H   UNL     1       3.331   7.013  20.990  0.00  0.00    +0.000 HD
BRANCH   7   9
ATOM      9  C   UNL     1       1.930   7.799  19.743  0.00  0.00    +0.000 C 
BRANCH   9  10
ATOM     10  C   UNL     1       1.214   8.741  20.657  0.00  0.00    +0.000 A 
ATOM     11  N   UNL     1       0.937   8.592  21.940  0.00  0.00    +0.000 NA
ATOM     12  C   UNL     1       0.365   9.788  22.287  0.00  0.00    +0.000 A 
ATOM     13  C   UNL     1       0.317  10.633  21.200  0.00  0.00    +0.000 A 
ATOM     14  O   UNL     1       0.872   9.961  20.142  0.00  0.00    +0.000 OA
BRANCH  13  15
ATOM     15  C   UNL     1      -0.186  12.024  20.945  0.00  0.00    +0.000 C 
ATOM     16  C   UNL     1      -0.794  12.623  22.226  0.00  0.00    +0.000 C 
ATOM     17  C   UNL     1       0.969  12.930  20.483  0.00  0.00    +0.000 C 
ATOM     18  C   UNL     1      -1.272  11.986  19.855  0.00  0.00    +0.000 C 
ENDBRANCH  13  15
ENDBRANCH   9  10
ENDBRANCH   7   9
ENDBRANCH   5   7
BRANCH   1  19
ATOM     19  C   UNL     1       6.283   4.738  17.833  0.00  0.00    +0.000 C 
BRANCH  19  22
ATOM     20  C   UNL     1       6.284   4.209  14.329  0.00  0.00    +0.000 A 
ATOM     21  N   UNL     1       5.940   3.779  15.523  0.00  0.00    +0.000 NA
ATOM     22  C   UNL     1       6.453   4.758  16.341  0.00  0.00    +0.000 A 
ATOM     23  N   UNL     1       7.109   5.736  15.698  0.00  0.00    +0.000 NA
ATOM     24  O   UNL     1       6.992   5.375  14.355  0.00  0.00    +0.000 OA
BRANCH  20  26
ATOM     25  C   UNL     1       7.115   3.958  12.004  0.00  0.00    +0.000 C 
ATOM     26  C   UNL     1       6.019   3.614  12.998  0.00  0.00    +0.000 C 
ENDBRANCH  20  26
ENDBRANCH  19  22
ENDBRANCH   1  19
TORSDOF 7
ENDMDL
MODEL 5
REMARK VINA RESULT:      -7.3      2.746      3.346
REMARK  Name = 
REMARK  11 active torsions:
REMARK  status: ('A' for Active; 'I' for Inactive)
REMARK    1  A    between atoms: C_1  and  C_2
REMARK    2  A    between atoms: C_2  and  C_3
REMARK    3  A    between atoms: C_5  and  C_6
REMARK    4  A    between atoms: C_6  and  N_7
REMARK    5  A    between atoms: C_11  and  N_12
REMARK    6  A    between atoms: N_12  and  C_13
REMARK    7  A    between atoms: C_13  and  C_14
REMARK    8  A    between atoms: C_17  and  C_18
REMARK    9  A    between atoms: C_18  and  C_19
REMARK   10  A    between atoms: C_18  and  C_20
REMARK   11  A    between atoms: C_18  and  C_21
REMARK                            x       y       z     vdW  Elec       q    Type
REMARK                         _______ _______ _______ _____ _____    ______ ____
ROOT
ATOM      1  N   UNL     1       3.589   4.242  18.955  0.00  0.00    +0.000 NA
ATOM      2  C   UNL     1       2.735   3.178  19.491  0.00  0.00    +0.000 C 
ATOM      3  C   UNL     1       1.288   3.651  19.638  0.00  0.00    +0.000 C 
ATOM      4  C   UNL     1       1.198   4.894  20.522  0.00  0.00    +0.000 C 
ATOM      5  C   UNL     1       2.096   6.013  19.968  0.00  0.00    +0.000 C 
ATOM      6  C   UNL     1       3.534   5.465  19.766  0.00  0.00    +0.000 C 
ENDROOT
BRANCH   5   7
ATOM      7  N   UNL     1       2.030   7.164  20.888  0.00  0.00    +0.000 NA
ATOM      8  H   UNL     1       2.973   7.462  21.146  0.00  0.00    +0.000 HD
BRANCH   7   9
ATOM      9  C   UNL     1       1.338   8.321  20.294  0.00  0.00    +0.000 C 
BRANCH   9  10
ATOM     10  C   UNL     1       0.559   9.100  21.306  0.00  0.00    +0.000 A 
ATOM     11  N   UNL     1       0.405   8.853  22.594  0.00  0.00    +0.000 NA
ATOM     12  C   UNL     1      -0.315   9.930  23.044  0.00  0.00    +0.000 A 
ATOM     13  C   UNL     1      -0.571  10.805  22.011  0.00  0.00    +0.000 A 
ATOM     14  O   UNL     1      -0.000  10.274  20.882  0.00  0.00    +0.000 OA
BRANCH  13  15
ATOM     15  C   UNL     1      -1.295  12.111  21.868  0.00  0.00    +0.000 C 
ATOM     16  C   UNL     1      -2.440  12.210  22.892  0.00  0.00    +0.000 C 
ATOM     17  C   UNL     1      -0.326  13.284  22.103  0.00  0.00    +0.000 C 
ATOM     18  C   UNL     1      -1.889  12.217  20.452  0.00  0.00    +0.000 C 
ENDBRANCH  13  15
ENDBRANCH   9  10
ENDBRANCH   7   9
ENDBRANCH   5   7
BRANCH   1  19
ATOM     19  C   UNL     1       4.987   3.796  18.733  0.00  0.00    +0.000 C 
BRANCH  19  22
ATOM     20  C   UNL     1       7.067   6.550  17.926  0.00  0.00    +0.000 A 
ATOM     21  N   UNL     1       6.104   5.732  17.559  0.00  0.00    +0.000 NA
ATOM     22  C   UNL     1       6.000   4.902  18.651  0.00  0.00    +0.000 A 
ATOM     23  N   UNL     1       6.870   5.165  19.638  0.00  0.00    +0.000 NA
ATOM     24  O   UNL     1       7.578   6.268  19.158  0.00  0.00    +0.000 OA
BRANCH  20  26
ATOM     25  C   UNL     1       8.276   8.705  18.155  0.00  0.00    +0.000 C 
ATOM     26  C   UNL     1       7.658   7.698  17.200  0.00  0.00    +0.000 C 
ENDBRANCH  20  26
ENDBRANCH  19  22
ENDBRANCH   1  19
TORSDOF 7
ENDMDL
MODEL 6
REMARK VINA RESULT:      -7.3      1.232      1.611
REMARK  Name = 
REMARK  11 active torsions:
REMARK  status: ('A' for Active; 'I' for Inactive)
REMARK    1  A    between atoms: C_1  and  C_2
REMARK    2  A    between atoms: C_2  and  C_3
REMARK    3  A    between atoms: C_5  and  C_6
REMARK    4  A    between atoms: C_6  and  N_7
REMARK    5  A    between atoms: C_11  and  N_12
REMARK    6  A    between atoms: N_12  and  C_13
REMARK    7  A    between atoms: C_13  and  C_14
REMARK    8  A    between atoms: C_17  and  C_18
REMARK    9  A    between atoms: C_18  and  C_19
REMARK   10  A    between atoms: C_18  and  C_20
REMARK   11  A    between atoms: C_18  and  C_21
REMARK                            x       y       z     vdW  Elec       q    Type
REMARK                         _______ _______ _______ _____ _____    ______ ____
ROOT
ATOM      1  N   UNL     1       4.256   4.426  18.907  0.00  0.00    +0.000 NA
ATOM      2  C   UNL     1       3.579   3.356  19.645  0.00  0.00    +0.000 C 
ATOM      3  C   UNL     1       2.068   3.592  19.701  0.00  0.00    +0.000 C 
ATOM      4  C   UNL     1       1.742   4.948  20.322  0.00  0.00    +0.000 C 
ATOM      5  C   UNL     1       2.453   6.076  19.555  0.00  0.00    +0.000 C 
ATOM      6  C   UNL     1       3.969   5.756  19.461  0.00  0.00    +0.000 C 
ENDROOT
BRANCH   5   7
ATOM      7  N   UNL     1       2.164   7.355  20.230  0.00  0.00    +0.000 NA
ATOM      8  H   UNL     1       2.971   7.651  20.784  0.00  0.00    +0.000 HD
BRANCH   7   9
ATOM      9  C   UNL     1       1.849   8.436  19.280  0.00  0.00    +0.000 C 
BRANCH   9  10
ATOM     10  C   UNL     1       0.822   9.383  19.813  0.00  0.00    +0.000 A 
ATOM     11  N   UNL     1       0.492   9.617  21.070  0.00  0.00    +0.000 NA
ATOM     12  C   UNL     1      -0.422  10.634  20.979  0.00  0.00    +0.000 A 
ATOM     13  C   UNL     1      -0.615  10.993  19.663  0.00  0.00    +0.000 A 
ATOM     14  O   UNL     1       0.195  10.189  18.903  0.00  0.00    +0.000 OA
BRANCH  13  15
ATOM     15  C   UNL     1      -1.466  11.995  18.939  0.00  0.00    +0.000 C 
ATOM     16  C   UNL     1      -2.470  12.650  19.905  0.00  0.00    +0.000 C 
ATOM     17  C   UNL     1      -0.585  13.098  18.328  0.00  0.00    +0.000 C 
ATOM     18  C   UNL     1      -2.250  11.289  17.818  0.00  0.00    +0.000 C 
ENDBRANCH  13  15
ENDBRANCH   9  10
ENDBRANCH   7   9
ENDBRANCH   5   7
BRANCH   1  19
ATOM     19  C   UNL     1       5.715   4.195  18.773  0.00  0.00    +0.000 C 
BRANCH  19  22
ATOM     20  C   UNL     1       6.764   4.945  15.472  0.00  0.00    +0.000 A 
ATOM     21  N   UNL     1       6.067   4.168  16.273  0.00  0.00    +0.000 NA
ATOM     22  C   UNL     1       6.328   4.720  17.506  0.00  0.00    +0.000 A 
ATOM     23  N   UNL     1       7.165   5.768  17.484  0.00  0.00    +0.000 NA
ATOM     24  O   UNL     1       7.452   5.923  16.127  0.00  0.00    +0.000 OA
BRANCH  20  26
ATOM     25  C   UNL     1       6.129   3.735  13.400  0.00  0.00    +0.000 C 
ATOM     26  C   UNL     1       6.902   4.899  13.998  0.00  0.00    +0.000 C 
ENDBRANCH  20  26
ENDBRANCH  19  22
ENDBRANCH   1  19
TORSDOF 7
ENDMDL
MODEL 7
REMARK VINA RESULT:      -7.2      1.167      1.618
REMARK  Name = 
REMARK  11 active torsions:
REMARK  status: ('A' for Active; 'I' for Inactive)
REMARK    1  A    between atoms: C_1  and  C_2
REMARK    2  A    between atoms: C_2  and  C_3
REMARK    3  A    between atoms: C_5  and  C_6
REMARK    4  A    between atoms: C_6  and  N_7
REMARK    5  A    between atoms: C_11  and  N_12
REMARK    6  A    between atoms: N_12  and  C_13
REMARK    7  A    between atoms: C_13  and  C_14
REMARK    8  A    between atoms: C_17  and  C_18
REMARK    9  A    between atoms: C_18  and  C_19
REMARK   10  A    between atoms: C_18  and  C_20
REMARK   11  A    between atoms: C_18  and  C_21
REMARK                            x       y       z     vdW  Elec       q    Type
REMARK                         _______ _______ _______ _____ _____    ______ ____
ROOT
ATOM      1  N   UNL     1       5.352   4.864  17.429  0.00  0.00    +0.000 NA
ATOM      2  C   UNL     1       5.344   3.907  18.539  0.00  0.00    +0.000 C 
ATOM      3  C   UNL     1       3.925   3.680  19.064  0.00  0.00    +0.000 C 
ATOM      4  C   UNL     1       3.277   4.994  19.496  0.00  0.00    +0.000 C 
ATOM      5  C   UNL     1       3.287   6.005  18.337  0.00  0.00    +0.000 C 
ATOM      6  C   UNL     1       4.733   6.146  17.791  0.00  0.00    +0.000 C 
ENDROOT
BRANCH   5   7
ATOM      7  N   UNL     1       2.716   7.276  18.820  0.00  0.00    +0.000 NA
ATOM      8  H   UNL     1       2.043   7.640  18.142  0.00  0.00    +0.000 HD
BRANCH   7   9
ATOM      9  C   UNL     1       2.020   7.128  20.110  0.00  0.00    +0.000 C 
BRANCH   9  10
ATOM     10  C   UNL     1       1.366   8.397  20.554  0.00  0.00    +0.000 A 
ATOM     11  N   UNL     1       0.900   8.709  21.750  0.00  0.00    +0.000 NA
ATOM     12  C   UNL     1       0.504  10.014  21.612  0.00  0.00    +0.000 A 
ATOM     13  C   UNL     1       0.749  10.459  20.332  0.00  0.00    +0.000 A 
ATOM     14  O   UNL     1       1.314   9.416  19.643  0.00  0.00    +0.000 OA
BRANCH  13  15
ATOM     15  C   UNL     1       0.537  11.743  19.584  0.00  0.00    +0.000 C 
ATOM     16  C   UNL     1      -0.772  11.688  18.776  0.00  0.00    +0.000 C 
ATOM     17  C   UNL     1       0.455  12.923  20.569  0.00  0.00    +0.000 C 
ATOM     18  C   UNL     1       1.708  11.971  18.611  0.00  0.00    +0.000 C 
ENDBRANCH  13  15
ENDBRANCH   9  10
ENDBRANCH   7   9
ENDBRANCH   5   7
BRANCH   1  19
ATOM     19  C   UNL     1       6.705   5.056  16.849  0.00  0.00    +0.000 C 
BRANCH  19  22
ATOM     20  C   UNL     1       6.464   3.922  13.500  0.00  0.00    +0.000 A 
ATOM     21  N   UNL     1       6.109   3.773  14.759  0.00  0.00    +0.000 NA
ATOM     22  C   UNL     1       6.808   4.784  15.376  0.00  0.00    +0.000 A 
ATOM     23  N   UNL     1       7.582   5.511  14.556  0.00  0.00    +0.000 NA
ATOM     24  O   UNL     1       7.348   4.941  13.303  0.00  0.00    +0.000 OA
BRANCH  20  26
ATOM     25  C   UNL     1       4.647   3.533  11.856  0.00  0.00    +0.000 C 
ATOM     26  C   UNL     1       6.048   3.153  12.305  0.00  0.00    +0.000 C 
ENDBRANCH  20  26
ENDBRANCH  19  22
ENDBRANCH   1  19
TORSDOF 7
ENDMDL
MODEL 8
REMARK VINA RESULT:      -7.2      1.429      1.708
REMARK  Name = 
REMARK  11 active torsions:
REMARK  status: ('A' for Active; 'I' for Inactive)
REMARK    1  A    between atoms: C_1  and  C_2
REMARK    2  A    between atoms: C_2  and  C_3
REMARK    3  A    between atoms: C_5  and  C_6
REMARK    4  A    between atoms: C_6  and  N_7
REMARK    5  A    between atoms: C_11  and  N_12
REMARK    6  A    between atoms: N_12  and  C_13
REMARK    7  A    between atoms: C_13  and  C_14
REMARK    8  A    between atoms: C_17  and  C_18
REMARK    9  A    between atoms: C_18  and  C_19
REMARK   10  A    between atoms: C_18  and  C_20
REMARK   11  A    between atoms: C_18  and  C_21
REMARK                            x       y       z     vdW  Elec       q    Type
REMARK                         _______ _______ _______ _____ _____    ______ ____
ROOT
ATOM      1  N   UNL     1       5.154   4.149  17.851  0.00  0.00    +0.000 NA
ATOM      2  C   UNL     1       5.047   3.493  19.157  0.00  0.00    +0.000 C 
ATOM      3  C   UNL     1       3.598   3.116  19.470  0.00  0.00    +0.000 C 
ATOM      4  C   UNL     1       2.683   4.338  19.417  0.00  0.00    +0.000 C 
ATOM      5  C   UNL     1       2.794   5.033  18.050  0.00  0.00    +0.000 C 
ATOM      6  C   UNL     1       4.287   5.329  17.744  0.00  0.00    +0.000 C 
ENDROOT
BRANCH   5   7
ATOM      7  N   UNL     1       1.948   6.242  18.069  0.00  0.00    +0.000 NA
ATOM      8  H   UNL     1       0.972   5.985  18.228  0.00  0.00    +0.000 HD
BRANCH   7   9
ATOM      9  C   UNL     1       2.343   7.190  19.125  0.00  0.00    +0.000 C 
BRANCH   9  10
ATOM     10  C   UNL     1       1.980   8.601  18.790  0.00  0.00    +0.000 A 
ATOM     11  N   UNL     1       2.276   9.292  17.703  0.00  0.00    +0.000 NA
ATOM     12  C   UNL     1       1.615  10.478  17.885  0.00  0.00    +0.000 A 
ATOM     13  C   UNL     1       0.928  10.469  19.080  0.00  0.00    +0.000 A 
ATOM     14  O   UNL     1       1.157   9.251  19.667  0.00  0.00    +0.000 OA
BRANCH  13  15
ATOM     15  C   UNL     1       0.058  11.441  19.823  0.00  0.00    +0.000 C 
ATOM     16  C   UNL     1       0.463  12.889  19.496  0.00  0.00    +0.000 C 
ATOM     17  C   UNL     1      -1.416  11.244  19.426  0.00  0.00    +0.000 C 
ATOM     18  C   UNL     1       0.213  11.215  21.338  0.00  0.00    +0.000 C 
ENDBRANCH  13  15
ENDBRANCH   9  10
ENDBRANCH   7   9
ENDBRANCH   5   7
BRANCH   1  19
ATOM     19  C   UNL     1       6.556   4.467  17.483  0.00  0.00    +0.000 C 
BRANCH  19  22
ATOM     20  C   UNL     1       6.724   4.233  13.951  0.00  0.00    +0.000 A 
ATOM     21  N   UNL     1       6.286   3.728  15.084  0.00  0.00    +0.000 NA
ATOM     22  C   UNL     1       6.811   4.600  16.009  0.00  0.00    +0.000 A 
ATOM     23  N   UNL     1       7.562   5.583  15.489  0.00  0.00    +0.000 NA
ATOM     24  O   UNL     1       7.499   5.342  14.115  0.00  0.00    +0.000 OA
BRANCH  20  26
ATOM     25  C   UNL     1       5.051   3.366  12.335  0.00  0.00    +0.000 C 
ATOM     26  C   UNL     1       6.499   3.769  12.562  0.00  0.00    +0.000 C 
ENDBRANCH  20  26
ENDBRANCH  19  22
ENDBRANCH   1  19
TORSDOF 7
ENDMDL
MODEL 9
REMARK VINA RESULT:      -7.2      0.926      1.351
REMARK  Name = 
REMARK  11 active torsions:
REMARK  status: ('A' for Active; 'I' for Inactive)
REMARK    1  A    between atoms: C_1  and  C_2
REMARK    2  A    between atoms: C_2  and  C_3
REMARK    3  A    between atoms: C_5  and  C_6
REMARK    4  A    between atoms: C_6  and  N_7
REMARK    5  A    between atoms: C_11  and  N_12
REMARK    6  A    between atoms: N_12  and  C_13
REMARK    7  A    between atoms: C_13  and  C_14
REMARK    8  A    between atoms: C_17  and  C_18
REMARK    9  A    between atoms: C_18  and  C_19
REMARK   10  A    between atoms: C_18  and  C_20
REMARK   11  A    between atoms: C_18  and  C_21
REMARK                            x       y       z     vdW  Elec       q    Type
REMARK                         _______ _______ _______ _____ _____    ______ ____
ROOT
ATOM      1  N   UNL     1       4.920   4.254  18.067  0.00  0.00    +0.000 NA
ATOM      2  C   UNL     1       4.711   3.609  19.366  0.00  0.00    +0.000 C 
ATOM      3  C   UNL     1       3.222   3.397  19.646  0.00  0.00    +0.000 C 
ATOM      4  C   UNL     1       2.452   4.714  19.581  0.00  0.00    +0.000 C 
ATOM      5  C   UNL     1       2.671   5.398  18.221  0.00  0.00    +0.000 C 
ATOM      6  C   UNL     1       4.194   5.525  17.950  0.00  0.00    +0.000 C 
ENDROOT
BRANCH   5   7
ATOM      7  N   UNL     1       1.967   6.694  18.230  0.00  0.00    +0.000 NA
ATOM      8  H   UNL     1       0.974   6.554  18.429  0.00  0.00    +0.000 HD
BRANCH   7   9
ATOM      9  C   UNL     1       2.503   7.621  19.243  0.00  0.00    +0.000 C 
BRANCH   9  10
ATOM     10  C   UNL     1       1.432   8.442  19.887  0.00  0.00    +0.000 A 
ATOM     11  N   UNL     1       0.995   8.395  21.133  0.00  0.00    +0.000 NA
ATOM     12  C   UNL     1       0.091   9.422  21.196  0.00  0.00    +0.000 A 
ATOM     13  C   UNL     1       0.011  10.070  19.983  0.00  0.00    +0.000 A 
ATOM     14  O   UNL     1       0.884   9.442  19.132  0.00  0.00    +0.000 OA
BRANCH  13  15
ATOM     15  C   UNL     1      -0.777  11.223  19.434  0.00  0.00    +0.000 C 
ATOM     16  C   UNL     1      -1.778  10.737  18.370  0.00  0.00    +0.000 C 
ATOM     17  C   UNL     1      -1.561  11.916  20.562  0.00  0.00    +0.000 C 
ATOM     18  C   UNL     1       0.181  12.236  18.782  0.00  0.00    +0.000 C 
ENDBRANCH  13  15
ENDBRANCH   9  10
ENDBRANCH   7   9
ENDBRANCH   5   7
BRANCH   1  19
ATOM     19  C   UNL     1       6.357   4.413  17.732  0.00  0.00    +0.000 C 
BRANCH  19  22
ATOM     20  C   UNL     1       6.584   4.191  14.202  0.00  0.00    +0.000 A 
ATOM     21  N   UNL     1       6.076   3.720  15.320  0.00  0.00    +0.000 NA
ATOM     22  C   UNL     1       6.657   4.533  16.265  0.00  0.00    +0.000 A 
ATOM     23  N   UNL     1       7.506   5.447  15.771  0.00  0.00    +0.000 NA
ATOM     24  O   UNL     1       7.453   5.224  14.394  0.00  0.00    +0.000 OA
BRANCH  20  26
ATOM     25  C   UNL     1       7.300   4.451  11.840  0.00  0.00    +0.000 C 
ATOM     26  C   UNL     1       6.349   3.761  12.804  0.00  0.00    +0.000 C 
ENDBRANCH  20  26
ENDBRANCH  19  22
ENDBRANCH   1  19
TORSDOF 7
ENDMDL
