MODEL 1
REMARK VINA RESULT:      -8.5      0.000      0.000
REMARK  Name = 
REMARK  6 active torsions:
REMARK  status: ('A' for Active; 'I' for Inactive)
REMARK    1  A    between atoms: C_12  and  N_13
REMARK    2  A    between atoms: N_13  and  C_14
REMARK    3  A    between atoms: C_14  and  C_15
REMARK    4  A    between atoms: C_15  and  C_16
REMARK    5  A    between atoms: C_16  and  N_17
REMARK    6  A    between atoms: N_17  and  C_18
REMARK                            x       y       z     vdW  Elec       q    Type
REMARK                         _______ _______ _______ _____ _____    ______ ____
ROOT
ATOM      1  C   UNL     1       2.377   3.467  18.581  0.00  0.00    +0.000 C 
ENDROOT
BRANCH   1   2
ATOM      2  N   UNL     1       3.771   3.074  18.532  0.00  0.00    +0.000 N 
ATOM      3  H   UNL     1       3.922   2.075  18.456  0.00  0.00    +0.000 HD
BRANCH   2  15
ATOM      4  O   UNL     1       7.119   5.408  19.932  0.00  0.00    +0.000 OA
ATOM      5  C   UNL     1       6.915   5.192  18.752  0.00  0.00    +0.000 C 
ATOM      6  N   UNL     1       7.665   5.633  17.673  0.00  0.00    +0.000 N 
ATOM      7  C   UNL     1       7.127   5.195  16.467  0.00  0.00    +0.000 A 
ATOM      8  C   UNL     1       7.623   5.457  15.205  0.00  0.00    +0.000 A 
ATOM      9  C   UNL     1       6.925   4.923  14.118  0.00  0.00    +0.000 A 
ATOM     10  C   UNL     1       5.766   4.155  14.325  0.00  0.00    +0.000 A 
ATOM     11 CL   UNL     1       4.920   3.516  12.967  0.00  0.00    +0.000 Cl
ATOM     12  C   UNL     1       5.279   3.903  15.612  0.00  0.00    +0.000 A 
ATOM     13  C   UNL     1       5.976   4.427  16.686  0.00  0.00    +0.000 A 
ATOM     14  C   UNL     1       5.793   4.392  18.140  0.00  0.00    +0.000 C 
ATOM     15  C   UNL     1       4.856   3.826  18.908  0.00  0.00    +0.000 C 
ATOM     16  H   UNL     1       8.489   6.204  17.786  0.00  0.00    +0.000 HD
ENDBRANCH   2  15
ENDBRANCH   1   2
BRANCH   1  17
ATOM     17  C   UNL     1       1.889   3.489  20.031  0.00  0.00    +0.000 C 
BRANCH  17  18
ATOM     18  C   UNL     1       1.349   4.851  20.477  0.00  0.00    +0.000 C 
BRANCH  18  19
ATOM     19  N   UNL     1       2.419   5.852  20.478  0.00  0.00    +0.000 N 
ATOM     20  H   UNL     1       3.306   5.424  20.236  0.00  0.00    +0.000 HD
BRANCH  19  21
ATOM     21  C   UNL     1       2.223   7.053  19.753  0.00  0.00    +0.000 A 
ATOM     22  C   UNL     1       2.565   7.139  18.400  0.00  0.00    +0.000 A 
ATOM     23  C   UNL     1       2.311   8.308  17.709  0.00  0.00    +0.000 A 
ATOM     24  N   UNL     1       1.717   9.384  18.254  0.00  0.00    +0.000 NA
ATOM     25  C   UNL     1       1.328   9.307  19.532  0.00  0.00    +0.000 A 
ATOM     26  C   UNL     1       0.687  10.416  20.059  0.00  0.00    +0.000 A 
ATOM     27  C   UNL     1       0.235  10.434  21.374  0.00  0.00    +0.000 A 
ATOM     28 CL   UNL     1      -0.556  11.832  21.989  0.00  0.00    +0.000 Cl
ATOM     29  C   UNL     1       0.417   9.328  22.189  0.00  0.00    +0.000 A 
ATOM     30  C   UNL     1       1.057   8.199  21.676  0.00  0.00    +0.000 A 
ATOM     31  C   UNL     1       1.537   8.160  20.340  0.00  0.00    +0.000 A 
ENDBRANCH  19  21
ENDBRANCH  18  19
ENDBRANCH  17  18
ENDBRANCH   1  17
TORSDOF 6
ENDMDL
MODEL 2
REMARK VINA RESULT:      -8.2      3.373      4.822
REMARK  Name = 
REMARK  6 active torsions:
REMARK  status: ('A' for Active; 'I' for Inactive)
REMARK    1  A    between atoms: C_12  and  N_13
REMARK    2  A    between atoms: N_13  and  C_14
REMARK    3  A    between atoms: C_14  and  C_15
REMARK    4  A    between atoms: C_15  and  C_16
REMARK    5  A    between atoms: C_16  and  N_17
REMARK    6  A    between atoms: N_17  and  C_18
REMARK                            x       y       z     vdW  Elec       q    Type
REMARK                         _______ _______ _______ _____ _____    ______ ____
ROOT
ATOM      1  C   UNL     1       2.011   7.954  19.615  0.00  0.00    +0.000 C 
ENDROOT
BRANCH   1   2
ATOM      2  N   UNL     1       2.574   6.642  19.864  0.00  0.00    +0.000 N 
ATOM      3  H   UNL     1       3.430   6.649  20.406  0.00  0.00    +0.000 HD
BRANCH   2  15
ATOM      4  O   UNL     1       1.481   2.977  17.866  0.00  0.00    +0.000 OA
ATOM      5  C   UNL     1       2.528   3.557  17.650  0.00  0.00    +0.000 C 
ATOM      6  N   UNL     1       3.535   3.179  16.776  0.00  0.00    +0.000 N 
ATOM      7  C   UNL     1       4.590   4.084  16.794  0.00  0.00    +0.000 A 
ATOM      8  C   UNL     1       5.751   4.007  16.048  0.00  0.00    +0.000 A 
ATOM      9  C   UNL     1       6.693   5.025  16.220  0.00  0.00    +0.000 A 
ATOM     10  C   UNL     1       6.450   6.074  17.124  0.00  0.00    +0.000 A 
ATOM     11 CL   UNL     1       7.632   7.311  17.323  0.00  0.00    +0.000 Cl
ATOM     12  C   UNL     1       5.269   6.133  17.871  0.00  0.00    +0.000 A 
ATOM     13  C   UNL     1       4.335   5.128  17.694  0.00  0.00    +0.000 A 
ATOM     14  C   UNL     1       3.020   4.839  18.272  0.00  0.00    +0.000 C 
ATOM     15  C   UNL     1       2.290   5.479  19.193  0.00  0.00    +0.000 C 
ATOM     16  H   UNL     1       3.477   2.342  16.216  0.00  0.00    +0.000 HD
ENDBRANCH   2  15
ENDBRANCH   1   2
BRANCH   1  17
ATOM     17  C   UNL     1       2.481   8.478  18.257  0.00  0.00    +0.000 C 
BRANCH  17  18
ATOM     18  C   UNL     1       1.937   9.866  17.912  0.00  0.00    +0.000 C 
BRANCH  18  19
ATOM     19  N   UNL     1       0.482   9.821  17.745  0.00  0.00    +0.000 N 
ATOM     20  H   UNL     1       0.152   8.861  17.769  0.00  0.00    +0.000 HD
BRANCH  19  21
ATOM     21  C   UNL     1      -0.320  10.651  18.566  0.00  0.00    +0.000 A 
ATOM     22  C   UNL     1       0.251  11.415  19.589  0.00  0.00    +0.000 A 
ATOM     23  C   UNL     1      -0.553  12.255  20.337  0.00  0.00    +0.000 A 
ATOM     24  N   UNL     1      -1.871  12.413  20.125  0.00  0.00    +0.000 NA
ATOM     25  C   UNL     1      -2.430  11.736  19.115  0.00  0.00    +0.000 A 
ATOM     26  C   UNL     1      -3.782  11.943  18.894  0.00  0.00    +0.000 A 
ATOM     27  C   UNL     1      -4.456  11.296  17.865  0.00  0.00    +0.000 A 
ATOM     28 CL   UNL     1      -6.135  11.581  17.626  0.00  0.00    +0.000 Cl
ATOM     29  C   UNL     1      -3.778  10.423  17.028  0.00  0.00    +0.000 A 
ATOM     30  C   UNL     1      -2.414  10.203  17.231  0.00  0.00    +0.000 A 
ATOM     31  C   UNL     1      -1.706  10.845  18.281  0.00  0.00    +0.000 A 
ENDBRANCH  19  21
ENDBRANCH  18  19
ENDBRANCH  17  18
ENDBRANCH   1  17
TORSDOF 6
ENDMDL
MODEL 3
REMARK VINA RESULT:      -8.1      1.363      1.670
REMARK  Name = 
REMARK  6 active torsions:
REMARK  status: ('A' for Active; 'I' for Inactive)
REMARK    1  A    between atoms: C_12  and  N_13
REMARK    2  A    between atoms: N_13  and  C_14
REMARK    3  A    between atoms: C_14  and  C_15
REMARK    4  A    between atoms: C_15  and  C_16
REMARK    5  A    between atoms: C_16  and  N_17
REMARK    6  A    between atoms: N_17  and  C_18
REMARK                            x       y       z     vdW  Elec       q    Type
REMARK                         _______ _______ _______ _____ _____    ______ ____
ROOT
ATOM      1  C   UNL     1       2.815   3.463  17.808  0.00  0.00    +0.000 C 
ENDROOT
BRANCH   1   2
ATOM      2  N   UNL     1       3.604   4.067  16.753  0.00  0.00    +0.000 N 
ATOM      3  H   UNL     1       3.387   3.729  15.822  0.00  0.00    +0.000 HD
BRANCH   2  15
ATOM      4  O   UNL     1       7.264   6.257  17.405  0.00  0.00    +0.000 OA
ATOM      5  C   UNL     1       6.998   5.720  16.346  0.00  0.00    +0.000 C 
ATOM      6  N   UNL     1       7.766   5.707  15.193  0.00  0.00    +0.000 N 
ATOM      7  C   UNL     1       7.142   4.996  14.173  0.00  0.00    +0.000 A 
ATOM      8  C   UNL     1       7.629   4.792  12.897  0.00  0.00    +0.000 A 
ATOM      9  C   UNL     1       6.836   4.048  12.019  0.00  0.00    +0.000 A 
ATOM     10  C   UNL     1       5.595   3.539  12.439  0.00  0.00    +0.000 A 
ATOM     11 CL   UNL     1       4.634   2.631  11.333  0.00  0.00    +0.000 Cl
ATOM     12  C   UNL     1       5.118   3.758  13.735  0.00  0.00    +0.000 A 
ATOM     13  C   UNL     1       5.908   4.490  14.604  0.00  0.00    +0.000 A 
ATOM     14  C   UNL     1       5.766   4.925  15.997  0.00  0.00    +0.000 C 
ATOM     15  C   UNL     1       4.787   4.749  16.892  0.00  0.00    +0.000 C 
ATOM     16  H   UNL     1       8.660   6.172  15.134  0.00  0.00    +0.000 HD
ENDBRANCH   2  15
ENDBRANCH   1   2
BRANCH   1  17
ATOM     17  C   UNL     1       2.084   4.548  18.602  0.00  0.00    +0.000 C 
BRANCH  17  18
ATOM     18  C   UNL     1       2.997   5.345  19.537  0.00  0.00    +0.000 C 
BRANCH  18  19
ATOM     19  N   UNL     1       2.218   6.314  20.313  0.00  0.00    +0.000 N 
ATOM     20  H   UNL     1       2.586   6.391  21.255  0.00  0.00    +0.000 HD
BRANCH  19  21
ATOM     21  C   UNL     1       1.982   7.595  19.756  0.00  0.00    +0.000 A 
ATOM     22  C   UNL     1       2.338   7.879  18.434  0.00  0.00    +0.000 A 
ATOM     23  C   UNL     1       2.045   9.122  17.905  0.00  0.00    +0.000 A 
ATOM     24  N   UNL     1       1.401  10.089  18.582  0.00  0.00    +0.000 NA
ATOM     25  C   UNL     1       1.000   9.821  19.830  0.00  0.00    +0.000 A 
ATOM     26  C   UNL     1       0.307  10.821  20.493  0.00  0.00    +0.000 A 
ATOM     27  C   UNL     1      -0.162  10.641  21.789  0.00  0.00    +0.000 A 
ATOM     28 CL   UNL     1      -1.017  11.909  22.576  0.00  0.00    +0.000 Cl
ATOM     29  C   UNL     1       0.055   9.441  22.448  0.00  0.00    +0.000 A 
ATOM     30  C   UNL     1       0.747   8.419  21.797  0.00  0.00    +0.000 A 
ATOM     31  C   UNL     1       1.244   8.583  20.477  0.00  0.00    +0.000 A 
ENDBRANCH  19  21
ENDBRANCH  18  19
ENDBRANCH  17  18
ENDBRANCH   1  17
TORSDOF 6
ENDMDL
MODEL 4
REMARK VINA RESULT:      -8.0      1.542      8.037
REMARK  Name = 
REMARK  6 active torsions:
REMARK  status: ('A' for Active; 'I' for Inactive)
REMARK    1  A    between atoms: C_12  and  N_13
REMARK    2  A    between atoms: N_13  and  C_14
REMARK    3  A    between atoms: C_14  and  C_15
REMARK    4  A    between atoms: C_15  and  C_16
REMARK    5  A    between atoms: C_16  and  N_17
REMARK    6  A    between atoms: N_17  and  C_18
REMARK                            x       y       z     vdW  Elec       q    Type
REMARK                         _______ _______ _______ _____ _____    ______ ____
ROOT
ATOM      1  C   UNL     1       2.418   5.063  20.999  0.00  0.00    +0.000 C 
ENDROOT
BRANCH   1   2
ATOM      2  N   UNL     1       1.958   6.412  20.733  0.00  0.00    +0.000 N 
ATOM      3  H   UNL     1       1.191   6.716  21.322  0.00  0.00    +0.000 HD
BRANCH   2  15
ATOM      4  O   UNL     1       2.820   8.588  17.108  0.00  0.00    +0.000 OA
ATOM      5  C   UNL     1       2.141   9.048  18.007  0.00  0.00    +0.000 C 
ATOM      6  N   UNL     1       1.546  10.299  18.055  0.00  0.00    +0.000 N 
ATOM      7  C   UNL     1       0.847  10.484  19.244  0.00  0.00    +0.000 A 
ATOM      8  C   UNL     1       0.144  11.613  19.616  0.00  0.00    +0.000 A 
ATOM      9  C   UNL     1      -0.487  11.595  20.862  0.00  0.00    +0.000 A 
ATOM     10  C   UNL     1      -0.393  10.462  21.690  0.00  0.00    +0.000 A 
ATOM     11 CL   UNL     1      -1.174  10.470  23.226  0.00  0.00    +0.000 Cl
ATOM     12  C   UNL     1       0.325   9.329  21.296  0.00  0.00    +0.000 A 
ATOM     13  C   UNL     1       0.943   9.347  20.058  0.00  0.00    +0.000 A 
ATOM     14  C   UNL     1       1.764   8.391  19.310  0.00  0.00    +0.000 C 
ATOM     15  C   UNL     1       2.193   7.160  19.606  0.00  0.00    +0.000 C 
ATOM     16  H   UNL     1       1.633  10.968  17.306  0.00  0.00    +0.000 HD
ENDBRANCH   2  15
ENDBRANCH   1   2
BRANCH   1  17
ATOM     17  C   UNL     1       1.792   4.090  19.997  0.00  0.00    +0.000 C 
BRANCH  17  18
ATOM     18  C   UNL     1       2.390   4.187  18.591  0.00  0.00    +0.000 C 
BRANCH  18  19
ATOM     19  N   UNL     1       3.689   3.510  18.537  0.00  0.00    +0.000 N 
ATOM     20  H   UNL     1       3.660   2.740  17.876  0.00  0.00    +0.000 HD
BRANCH  19  21
ATOM     21  C   UNL     1       4.853   4.294  18.349  0.00  0.00    +0.000 A 
ATOM     22  C   UNL     1       5.530   4.849  19.440  0.00  0.00    +0.000 A 
ATOM     23  C   UNL     1       6.693   5.564  19.225  0.00  0.00    +0.000 A 
ATOM     24  N   UNL     1       7.247   5.743  18.014  0.00  0.00    +0.000 NA
ATOM     25  C   UNL     1       6.649   5.174  16.960  0.00  0.00    +0.000 A 
ATOM     26  C   UNL     1       7.259   5.343  15.728  0.00  0.00    +0.000 A 
ATOM     27  C   UNL     1       6.725   4.785  14.572  0.00  0.00    +0.000 A 
ATOM     28 CL   UNL     1       7.514   5.020  13.062  0.00  0.00    +0.000 Cl
ATOM     29  C   UNL     1       5.560   4.037  14.633  0.00  0.00    +0.000 A 
ATOM     30  C   UNL     1       4.932   3.851  15.866  0.00  0.00    +0.000 A 
ATOM     31  C   UNL     1       5.452   4.419  17.058  0.00  0.00    +0.000 A 
ENDBRANCH  19  21
ENDBRANCH  18  19
ENDBRANCH  17  18
ENDBRANCH   1  17
TORSDOF 6
ENDMDL
MODEL 5
REMARK VINA RESULT:      -7.9      1.389      7.912
REMARK  Name = 
REMARK  6 active torsions:
REMARK  status: ('A' for Active; 'I' for Inactive)
REMARK    1  A    between atoms: C_12  and  N_13
REMARK    2  A    between atoms: N_13  and  C_14
REMARK    3  A    between atoms: C_14  and  C_15
REMARK    4  A    between atoms: C_15  and  C_16
REMARK    5  A    between atoms: C_16  and  N_17
REMARK    6  A    between atoms: N_17  and  C_18
REMARK                            x       y       z     vdW  Elec       q    Type
REMARK                         _______ _______ _______ _____ _____    ______ ____
ROOT
ATOM      1  C   UNL     1       2.214   3.991  21.036  0.00  0.00    +0.000 C 
ENDROOT
BRANCH   1   2
ATOM      2  N   UNL     1       2.429   5.420  20.920  0.00  0.00    +0.000 N 
ATOM      3  H   UNL     1       2.108   5.958  21.716  0.00  0.00    +0.000 HD
BRANCH   2  15
ATOM      4  O   UNL     1       3.357   7.466  17.236  0.00  0.00    +0.000 OA
ATOM      5  C   UNL     1       2.665   7.960  18.106  0.00  0.00    +0.000 C 
ATOM      6  N   UNL     1       2.073   9.213  18.102  0.00  0.00    +0.000 N 
ATOM      7  C   UNL     1       1.356   9.441  19.272  0.00  0.00    +0.000 A 
ATOM      8  C   UNL     1       0.651  10.584  19.593  0.00  0.00    +0.000 A 
ATOM      9  C   UNL     1       0.000  10.611  20.829  0.00  0.00    +0.000 A 
ATOM     10  C   UNL     1       0.076   9.508  21.697  0.00  0.00    +0.000 A 
ATOM     11 CL   UNL     1      -0.729   9.571  23.219  0.00  0.00    +0.000 Cl
ATOM     12  C   UNL     1       0.797   8.359  21.354  0.00  0.00    +0.000 A 
ATOM     13  C   UNL     1       1.435   8.333  20.127  0.00  0.00    +0.000 A 
ATOM     14  C   UNL     1       2.265   7.349  19.425  0.00  0.00    +0.000 C 
ATOM     15  C   UNL     1       2.685   6.128  19.772  0.00  0.00    +0.000 C 
ATOM     16  H   UNL     1       2.175   9.855  17.331  0.00  0.00    +0.000 HD
ENDBRANCH   2  15
ENDBRANCH   1   2
BRANCH   1  17
ATOM     17  C   UNL     1       2.985   3.255  19.939  0.00  0.00    +0.000 C 
BRANCH  17  18
ATOM     18  C   UNL     1       4.435   3.722  19.788  0.00  0.00    +0.000 C 
BRANCH  18  19
ATOM     19  N   UNL     1       4.912   3.485  18.423  0.00  0.00    +0.000 N 
ATOM     20  H   UNL     1       4.134   3.271  17.807  0.00  0.00    +0.000 HD
BRANCH  19  21
ATOM     21  C   UNL     1       5.775   4.440  17.832  0.00  0.00    +0.000 A 
ATOM     22  C   UNL     1       6.464   5.368  18.618  0.00  0.00    +0.000 A 
ATOM     23  C   UNL     1       7.340   6.251  18.015  0.00  0.00    +0.000 A 
ATOM     24  N   UNL     1       7.601   6.261  16.696  0.00  0.00    +0.000 NA
ATOM     25  C   UNL     1       6.997   5.345  15.930  0.00  0.00    +0.000 A 
ATOM     26  C   UNL     1       7.310   5.352  14.580  0.00  0.00    +0.000 A 
ATOM     27  C   UNL     1       6.745   4.437  13.700  0.00  0.00    +0.000 A 
ATOM     28 CL   UNL     1       7.161   4.481  12.032  0.00  0.00    +0.000 Cl
ATOM     29  C   UNL     1       5.849   3.486  14.164  0.00  0.00    +0.000 A 
ATOM     30  C   UNL     1       5.523   3.458  15.521  0.00  0.00    +0.000 A 
ATOM     31  C   UNL     1       6.079   4.389  16.437  0.00  0.00    +0.000 A 
ENDBRANCH  19  21
ENDBRANCH  18  19
ENDBRANCH  17  18
ENDBRANCH   1  17
TORSDOF 6
ENDMDL
MODEL 6
REMARK VINA RESULT:      -7.9      2.795      4.828
REMARK  Name = 
REMARK  6 active torsions:
REMARK  status: ('A' for Active; 'I' for Inactive)
REMARK    1  A    between atoms: C_12  and  N_13
REMARK    2  A    between atoms: N_13  and  C_14
REMARK    3  A    between atoms: C_14  and  C_15
REMARK    4  A    between atoms: C_15  and  C_16
REMARK    5  A    between atoms: C_16  and  N_17
REMARK    6  A    between atoms: N_17  and  C_18
REMARK                            x       y       z     vdW  Elec       q    Type
REMARK                         _______ _______ _______ _____ _____    ______ ____
ROOT
ATOM      1  C   UNL     1       2.693   8.315  18.291  0.00  0.00    +0.000 C 
ENDROOT
BRANCH   1   2
ATOM      2  N   UNL     1       3.322   7.487  17.280  0.00  0.00    +0.000 N 
ATOM      3  H   UNL     1       2.692   7.156  16.559  0.00  0.00    +0.000 HD
BRANCH   2  15
ATOM      4  O   UNL     1       7.221   5.647  17.446  0.00  0.00    +0.000 OA
ATOM      5  C   UNL     1       6.237   5.152  17.963  0.00  0.00    +0.000 C 
ATOM      6  N   UNL     1       6.165   3.959  18.664  0.00  0.00    +0.000 N 
ATOM      7  C   UNL     1       4.871   3.707  19.109  0.00  0.00    +0.000 A 
ATOM      8  C   UNL     1       4.451   2.609  19.832  0.00  0.00    +0.000 A 
ATOM      9  C   UNL     1       3.098   2.547  20.178  0.00  0.00    +0.000 A 
ATOM     10  C   UNL     1       2.218   3.572  19.790  0.00  0.00    +0.000 A 
ATOM     11 CL   UNL     1       0.553   3.466  20.222  0.00  0.00    +0.000 Cl
ATOM     12  C   UNL     1       2.662   4.676  19.057  0.00  0.00    +0.000 A 
ATOM     13  C   UNL     1       4.004   4.738  18.722  0.00  0.00    +0.000 A 
ATOM     14  C   UNL     1       4.831   5.695  17.982  0.00  0.00    +0.000 C 
ATOM     15  C   UNL     1       4.533   6.847  17.371  0.00  0.00    +0.000 C 
ATOM     16  H   UNL     1       6.970   3.369  18.810  0.00  0.00    +0.000 HD
ENDBRANCH   2  15
ENDBRANCH   1   2
BRANCH   1  17
ATOM     17  C   UNL     1       1.617   9.195  17.652  0.00  0.00    +0.000 C 
BRANCH  17  18
ATOM     18  C   UNL     1       1.101  10.302  18.575  0.00  0.00    +0.000 C 
BRANCH  18  19
ATOM     19  N   UNL     1      -0.146   9.889  19.225  0.00  0.00    +0.000 N 
ATOM     20  H   UNL     1      -0.394   8.945  18.949  0.00  0.00    +0.000 HD
BRANCH  19  21
ATOM     21  C   UNL     1      -0.265  10.053  20.627  0.00  0.00    +0.000 A 
ATOM     22  C   UNL     1       0.355   9.163  21.509  0.00  0.00    +0.000 A 
ATOM     23  C   UNL     1       0.263   9.383  22.871  0.00  0.00    +0.000 A 
ATOM     24  N   UNL     1      -0.372  10.435  23.417  0.00  0.00    +0.000 NA
ATOM     25  C   UNL     1      -0.924  11.332  22.592  0.00  0.00    +0.000 A 
ATOM     26  C   UNL     1      -1.541  12.425  23.178  0.00  0.00    +0.000 A 
ATOM     27  C   UNL     1      -2.137  13.419  22.410  0.00  0.00    +0.000 A 
ATOM     28 CL   UNL     1      -2.892  14.760  23.178  0.00  0.00    +0.000 Cl
ATOM     29  C   UNL     1      -2.120  13.335  21.027  0.00  0.00    +0.000 A 
ATOM     30  C   UNL     1      -1.500  12.244  20.416  0.00  0.00    +0.000 A 
ATOM     31  C   UNL     1      -0.894  11.211  21.178  0.00  0.00    +0.000 A 
ENDBRANCH  19  21
ENDBRANCH  18  19
ENDBRANCH  17  18
ENDBRANCH   1  17
TORSDOF 6
ENDMDL
MODEL 7
REMARK VINA RESULT:      -7.9      4.072      9.100
REMARK  Name = 
REMARK  6 active torsions:
REMARK  status: ('A' for Active; 'I' for Inactive)
REMARK    1  A    between atoms: C_12  and  N_13
REMARK    2  A    between atoms: N_13  and  C_14
REMARK    3  A    between atoms: C_14  and  C_15
REMARK    4  A    between atoms: C_15  and  C_16
REMARK    5  A    between atoms: C_16  and  N_17
REMARK    6  A    between atoms: N_17  and  C_18
REMARK                            x       y       z     vdW  Elec       q    Type
REMARK                         _______ _______ _______ _____ _____    ______ ____
ROOT
ATOM      1  C   UNL     1       0.813   9.440  17.868  0.00  0.00    +0.000 C 
ENDROOT
BRANCH   1   2
ATOM      2  N   UNL     1       0.853  10.809  18.344  0.00  0.00    +0.000 N 
ATOM      3  H   UNL     1       1.739  11.278  18.198  0.00  0.00    +0.000 HD
BRANCH   2  15
ATOM      4  O   UNL     1      -1.679  12.693  21.287  0.00  0.00    +0.000 OA
ATOM      5  C   UNL     1      -2.091  12.324  20.204  0.00  0.00    +0.000 C 
ATOM      6  N   UNL     1      -3.387  12.416  19.721  0.00  0.00    +0.000 N 
ATOM      7  C   UNL     1      -3.491  11.884  18.440  0.00  0.00    +0.000 A 
ATOM      8  C   UNL     1      -4.636  11.814  17.671  0.00  0.00    +0.000 A 
ATOM      9  C   UNL     1      -4.524  11.234  16.404  0.00  0.00    +0.000 A 
ATOM     10  C   UNL     1      -3.286  10.745  15.953  0.00  0.00    +0.000 A 
ATOM     11 CL   UNL     1      -3.178  10.027  14.390  0.00  0.00    +0.000 Cl
ATOM     12  C   UNL     1      -2.138  10.824  16.747  0.00  0.00    +0.000 A 
ATOM     13  C   UNL     1      -2.250  11.405  17.998  0.00  0.00    +0.000 A 
ATOM     14  C   UNL     1      -1.313  11.664  19.094  0.00  0.00    +0.000 C 
ATOM     15  C   UNL     1      -0.008  11.401  19.234  0.00  0.00    +0.000 C 
ATOM     16  H   UNL     1      -4.137  12.820  20.260  0.00  0.00    +0.000 HD
ENDBRANCH   2  15
ENDBRANCH   1   2
BRANCH   1  17
ATOM     17  C   UNL     1       2.054   8.684  18.345  0.00  0.00    +0.000 C 
BRANCH  17  18
ATOM     18  C   UNL     1       1.809   7.817  19.582  0.00  0.00    +0.000 C 
BRANCH  18  19
ATOM     19  N   UNL     1       2.909   6.868  19.771  0.00  0.00    +0.000 N 
ATOM     20  H   UNL     1       3.027   6.653  20.756  0.00  0.00    +0.000 HD
BRANCH  19  21
ATOM     21  C   UNL     1       2.923   5.685  18.992  0.00  0.00    +0.000 A 
ATOM     22  C   UNL     1       1.918   4.723  19.128  0.00  0.00    +0.000 A 
ATOM     23  C   UNL     1       1.932   3.606  18.314  0.00  0.00    +0.000 A 
ATOM     24  N   UNL     1       2.853   3.390  17.358  0.00  0.00    +0.000 NA
ATOM     25  C   UNL     1       3.792   4.324  17.169  0.00  0.00    +0.000 A 
ATOM     26  C   UNL     1       4.707   4.095  16.155  0.00  0.00    +0.000 A 
ATOM     27  C   UNL     1       5.717   5.007  15.870  0.00  0.00    +0.000 A 
ATOM     28 CL   UNL     1       6.833   4.684  14.602  0.00  0.00    +0.000 Cl
ATOM     29  C   UNL     1       5.826   6.179  16.604  0.00  0.00    +0.000 A 
ATOM     30  C   UNL     1       4.911   6.431  17.628  0.00  0.00    +0.000 A 
ATOM     31  C   UNL     1       3.878   5.510  17.944  0.00  0.00    +0.000 A 
ENDBRANCH  19  21
ENDBRANCH  18  19
ENDBRANCH  17  18
ENDBRANCH   1  17
TORSDOF 6
ENDMDL
MODEL 8
REMARK VINA RESULT:      -7.8      2.957      4.933
REMARK  Name = 
REMARK  6 active torsions:
REMARK  status: ('A' for Active; 'I' for Inactive)
REMARK    1  A    between atoms: C_12  and  N_13
REMARK    2  A    between atoms: N_13  and  C_14
REMARK    3  A    between atoms: C_14  and  C_15
REMARK    4  A    between atoms: C_15  and  C_16
REMARK    5  A    between atoms: C_16  and  N_17
REMARK    6  A    between atoms: N_17  and  C_18
REMARK                            x       y       z     vdW  Elec       q    Type
REMARK                         _______ _______ _______ _____ _____    ______ ____
ROOT
ATOM      1  C   UNL     1       2.028   7.820  18.238  0.00  0.00    +0.000 C 
ENDROOT
BRANCH   1   2
ATOM      2  N   UNL     1       3.439   7.501  18.329  0.00  0.00    +0.000 N 
ATOM      3  H   UNL     1       3.970   8.116  18.935  0.00  0.00    +0.000 HD
BRANCH   2  15
ATOM      4  O   UNL     1       5.817   5.240  15.526  0.00  0.00    +0.000 OA
ATOM      5  C   UNL     1       5.094   4.714  16.351  0.00  0.00    +0.000 C 
ATOM      6  N   UNL     1       4.887   3.357  16.545  0.00  0.00    +0.000 N 
ATOM      7  C   UNL     1       3.986   3.122  17.578  0.00  0.00    +0.000 A 
ATOM      8  C   UNL     1       3.556   1.889  18.029  0.00  0.00    +0.000 A 
ATOM      9  C   UNL     1       2.639   1.875  19.083  0.00  0.00    +0.000 A 
ATOM     10  C   UNL     1       2.183   3.080  19.645  0.00  0.00    +0.000 A 
ATOM     11 CL   UNL     1       1.046   3.034  20.938  0.00  0.00    +0.000 Cl
ATOM     12  C   UNL     1       2.629   4.319  19.174  0.00  0.00    +0.000 A 
ATOM     13  C   UNL     1       3.542   4.330  18.135  0.00  0.00    +0.000 A 
ATOM     14  C   UNL     1       4.225   5.387  17.383  0.00  0.00    +0.000 C 
ATOM     15  C   UNL     1       4.169   6.721  17.466  0.00  0.00    +0.000 C 
ATOM     16  H   UNL     1       5.345   2.655  15.984  0.00  0.00    +0.000 HD
ENDBRANCH   2  15
ENDBRANCH   1   2
BRANCH   1  17
ATOM     17  C   UNL     1       1.847   9.277  17.808  0.00  0.00    +0.000 C 
BRANCH  17  18
ATOM     18  C   UNL     1       0.621   9.952  18.428  0.00  0.00    +0.000 C 
BRANCH  18  19
ATOM     19  N   UNL     1       1.017  10.803  19.553  0.00  0.00    +0.000 N 
ATOM     20  H   UNL     1       0.913  11.783  19.310  0.00  0.00    +0.000 HD
BRANCH  19  21
ATOM     21  C   UNL     1       0.463  10.539  20.829  0.00  0.00    +0.000 A 
ATOM     22  C   UNL     1       1.044   9.595  21.683  0.00  0.00    +0.000 A 
ATOM     23  C   UNL     1       0.510   9.400  22.943  0.00  0.00    +0.000 A 
ATOM     24  N   UNL     1      -0.536  10.092  23.426  0.00  0.00    +0.000 NA
ATOM     25  C   UNL     1      -1.074  11.040  22.650  0.00  0.00    +0.000 A 
ATOM     26  C   UNL     1      -2.128  11.763  23.185  0.00  0.00    +0.000 A 
ATOM     27  C   UNL     1      -2.751  12.776  22.465  0.00  0.00    +0.000 A 
ATOM     28 CL   UNL     1      -4.056  13.649  23.166  0.00  0.00    +0.000 Cl
ATOM     29  C   UNL     1      -2.320  13.088  21.185  0.00  0.00    +0.000 A 
ATOM     30  C   UNL     1      -1.257  12.375  20.629  0.00  0.00    +0.000 A 
ATOM     31  C   UNL     1      -0.612  11.329  21.340  0.00  0.00    +0.000 A 
ENDBRANCH  19  21
ENDBRANCH  18  19
ENDBRANCH  17  18
ENDBRANCH   1  17
TORSDOF 6
ENDMDL
MODEL 9
REMARK VINA RESULT:      -7.8      4.250      5.496
REMARK  Name = 
REMARK  6 active torsions:
REMARK  status: ('A' for Active; 'I' for Inactive)
REMARK    1  A    between atoms: C_12  and  N_13
REMARK    2  A    between atoms: N_13  and  C_14
REMARK    3  A    between atoms: C_14  and  C_15
REMARK    4  A    between atoms: C_15  and  C_16
REMARK    5  A    between atoms: C_16  and  N_17
REMARK    6  A    between atoms: N_17  and  C_18
REMARK                            x       y       z     vdW  Elec       q    Type
REMARK                         _______ _______ _______ _____ _____    ______ ____
ROOT
ATOM      1  C   UNL     1       1.639   8.882  18.233  0.00  0.00    +0.000 C 
ENDROOT
BRANCH   1   2
ATOM      2  N   UNL     1       2.351   7.721  18.729  0.00  0.00    +0.000 N 
ATOM      3  H   UNL     1       3.198   7.937  19.243  0.00  0.00    +0.000 HD
BRANCH   2  15
ATOM      4  O   UNL     1       1.684   3.647  17.472  0.00  0.00    +0.000 OA
ATOM      5  C   UNL     1       2.767   4.194  17.384  0.00  0.00    +0.000 C 
ATOM      6  N   UNL     1       3.947   3.652  16.899  0.00  0.00    +0.000 N 
ATOM      7  C   UNL     1       4.990   4.571  16.955  0.00  0.00    +0.000 A 
ATOM      8  C   UNL     1       6.295   4.357  16.556  0.00  0.00    +0.000 A 
ATOM      9  C   UNL     1       7.192   5.418  16.702  0.00  0.00    +0.000 A 
ATOM     10  C   UNL     1       6.763   6.644  17.239  0.00  0.00    +0.000 A 
ATOM     11 CL   UNL     1       7.894   7.933  17.415  0.00  0.00    +0.000 Cl
ATOM     12  C   UNL     1       5.438   6.841  17.638  0.00  0.00    +0.000 A 
ATOM     13  C   UNL     1       4.550   5.791  17.486  0.00  0.00    +0.000 A 
ATOM     14  C   UNL     1       3.125   5.605  17.779  0.00  0.00    +0.000 C 
ATOM     15  C   UNL     1       2.209   6.421  18.310  0.00  0.00    +0.000 C 
ATOM     16  H   UNL     1       4.007   2.704  16.561  0.00  0.00    +0.000 HD
ENDBRANCH   2  15
ENDBRANCH   1   2
BRANCH   1  17
ATOM     17  C   UNL     1       0.967   9.619  19.392  0.00  0.00    +0.000 C 
BRANCH  17  18
ATOM     18  C   UNL     1       0.197  10.870  18.960  0.00  0.00    +0.000 C 
BRANCH  18  19
ATOM     19  N   UNL     1      -1.238  10.699  19.201  0.00  0.00    +0.000 N 
ATOM     20  H   UNL     1      -1.551  11.323  19.939  0.00  0.00    +0.000 HD
BRANCH  19  21
ATOM     21  C   UNL     1      -2.121  10.746  18.094  0.00  0.00    +0.000 A 
ATOM     22  C   UNL     1      -1.831  10.051  16.916  0.00  0.00    +0.000 A 
ATOM     23  C   UNL     1      -2.740  10.073  15.874  0.00  0.00    +0.000 A 
ATOM     24  N   UNL     1      -3.923  10.709  15.929  0.00  0.00    +0.000 NA
ATOM     25  C   UNL     1      -4.248  11.334  17.066  0.00  0.00    +0.000 A 
ATOM     26  C   UNL     1      -5.488  11.951  17.109  0.00  0.00    +0.000 A 
ATOM     27  C   UNL     1      -5.926  12.619  18.247  0.00  0.00    +0.000 A 
ATOM     28 CL   UNL     1      -7.472  13.372  18.258  0.00  0.00    +0.000 Cl
ATOM     29  C   UNL     1      -5.121  12.677  19.375  0.00  0.00    +0.000 A 
ATOM     30  C   UNL     1      -3.870  12.058  19.354  0.00  0.00    +0.000 A 
ATOM     31  C   UNL     1      -3.397  11.379  18.200  0.00  0.00    +0.000 A 
ENDBRANCH  19  21
ENDBRANCH  18  19
ENDBRANCH  17  18
ENDBRANCH   1  17
TORSDOF 6
ENDMDL
