MODEL 1
REMARK VINA RESULT:      -6.4      0.000      0.000
REMARK  Name = 
REMARK  8 active torsions:
REMARK  status: ('A' for Active; 'I' for Inactive)
REMARK    1  A    between atoms: C_1  and  N_2
REMARK    2  A    between atoms: N_2  and  C_3
REMARK    3  A    between atoms: N_2  and  C_4
REMARK    4  A    between atoms: C_4  and  C_5
REMARK    5  A    between atoms: C_5  and  C_6
REMARK    6  A    between atoms: C_6  and  N_7
REMARK    7  A    between atoms: C_8  and  C_11
REMARK    8  A    between atoms: N_9  and  O_10
REMARK                            x       y       z     vdW  Elec       q    Type
REMARK                         _______ _______ _______ _____ _____    ______ ____
ROOT
ATOM      1  N   UNL     1       4.344   5.363  18.472  0.00  0.00    +0.000 NA
ATOM      2  C   UNL     1       5.209   4.434  18.199  0.00  0.00    +0.000 C 
ATOM      3  N   UNL     1       5.647   3.382  18.986  0.00  0.00    +0.000 N 
ATOM      4  H   UNL     1       6.060   2.607  18.444  0.00  0.00    +0.000 HD
ENDROOT
BRANCH   2   5
ATOM      5  C   UNL     1       5.859   4.572  16.843  0.00  0.00    +0.000 A 
ATOM      6  C   UNL     1       5.403   3.747  15.799  0.00  0.00    +0.000 A 
ATOM      7  C   UNL     1       5.929   3.874  14.516  0.00  0.00    +0.000 A 
ATOM      8  C   UNL     1       6.923   4.822  14.271  0.00  0.00    +0.000 A 
ATOM      9 CL   UNL     1       7.565   4.988  12.680  0.00  0.00    +0.000 Cl
ATOM     10  C   UNL     1       7.397   5.633  15.291  0.00  0.00    +0.000 A 
ATOM     11  C   UNL     1       6.874   5.515  16.576  0.00  0.00    +0.000 A 
ATOM     12 CL   UNL     1       7.561   6.558  17.774  0.00  0.00    +0.000 Cl
ENDBRANCH   2   5
BRANCH   3  13
ATOM     13  O   UNL     1       4.742   2.863  19.907  0.00  0.00    +0.000 OA
ATOM     14  H   UNL     1       5.147   3.124  20.762  0.00  0.00    +0.000 HD
ENDBRANCH   3  13
BRANCH   1  15
ATOM     15  C   UNL     1       3.683   5.349  19.767  0.00  0.00    +0.000 C 
BRANCH  15  16
ATOM     16  C   UNL     1       2.209   5.681  19.627  0.00  0.00    +0.000 C 
BRANCH  16  17
ATOM     17  C   UNL     1       1.361   4.708  20.470  0.00  0.00    +0.000 C 
BRANCH  17  19
ATOM     18  C   UNL     1       1.533   2.574  21.578  0.00  0.00    +0.000 C 
ATOM     19  N   UNL     1       1.755   3.292  20.321  0.00  0.00    +0.000 NA
ATOM     20  C   UNL     1       0.998   2.643  19.246  0.00  0.00    +0.000 C 
ENDBRANCH  17  19
ENDBRANCH  16  17
ENDBRANCH  15  16
ENDBRANCH   1  15
TORSDOF 6
ENDMDL
MODEL 2
REMARK VINA RESULT:      -6.4      0.939      1.284
REMARK  Name = 
REMARK  8 active torsions:
REMARK  status: ('A' for Active; 'I' for Inactive)
REMARK    1  A    between atoms: C_1  and  N_2
REMARK    2  A    between atoms: N_2  and  C_3
REMARK    3  A    between atoms: N_2  and  C_4
REMARK    4  A    between atoms: C_4  and  C_5
REMARK    5  A    between atoms: C_5  and  C_6
REMARK    6  A    between atoms: C_6  and  N_7
REMARK    7  A    between atoms: C_8  and  C_11
REMARK    8  A    between atoms: N_9  and  O_10
REMARK                            x       y       z     vdW  Elec       q    Type
REMARK                         _______ _______ _______ _____ _____    ______ ____
ROOT
ATOM      1  N   UNL     1       4.291   5.286  18.217  0.00  0.00    +0.000 NA
ATOM      2  C   UNL     1       5.273   4.463  18.009  0.00  0.00    +0.000 C 
ATOM      3  N   UNL     1       5.834   3.529  18.864  0.00  0.00    +0.000 N 
ATOM      4  H   UNL     1       6.352   2.782  18.375  0.00  0.00    +0.000 HD
ENDROOT
BRANCH   2   5
ATOM      5  C   UNL     1       5.916   4.598  16.650  0.00  0.00    +0.000 A 
ATOM      6  C   UNL     1       5.507   3.721  15.629  0.00  0.00    +0.000 A 
ATOM      7  C   UNL     1       6.027   3.841  14.343  0.00  0.00    +0.000 A 
ATOM      8  C   UNL     1       6.969   4.834  14.071  0.00  0.00    +0.000 A 
ATOM      9 CL   UNL     1       7.604   4.989  12.476  0.00  0.00    +0.000 Cl
ATOM     10  C   UNL     1       7.398   5.696  15.069  0.00  0.00    +0.000 A 
ATOM     11  C   UNL     1       6.881   5.585  16.357  0.00  0.00    +0.000 A 
ATOM     12 CL   UNL     1       7.509   6.697  17.525  0.00  0.00    +0.000 Cl
ENDBRANCH   2   5
BRANCH   3  13
ATOM     13  O   UNL     1       4.993   2.956  19.813  0.00  0.00    +0.000 OA
ATOM     14  H   UNL     1       4.180   2.788  19.291  0.00  0.00    +0.000 HD
ENDBRANCH   3  13
BRANCH   1  15
ATOM     15  C   UNL     1       3.621   5.268  19.508  0.00  0.00    +0.000 C 
BRANCH  15  16
ATOM     16  C   UNL     1       2.121   5.110  19.338  0.00  0.00    +0.000 C 
BRANCH  16  17
ATOM     17  C   UNL     1       1.802   4.504  17.957  0.00  0.00    +0.000 C 
BRANCH  17  19
ATOM     18  C   UNL     1       2.425   2.195  17.646  0.00  0.00    +0.000 C 
ATOM     19  N   UNL     1       1.336   3.103  18.015  0.00  0.00    +0.000 NA
ATOM     20  C   UNL     1       0.848   2.762  19.355  0.00  0.00    +0.000 C 
ENDBRANCH  17  19
ENDBRANCH  16  17
ENDBRANCH  15  16
ENDBRANCH   1  15
TORSDOF 6
ENDMDL
MODEL 3
REMARK VINA RESULT:      -6.3      2.509      3.075
REMARK  Name = 
REMARK  8 active torsions:
REMARK  status: ('A' for Active; 'I' for Inactive)
REMARK    1  A    between atoms: C_1  and  N_2
REMARK    2  A    between atoms: N_2  and  C_3
REMARK    3  A    between atoms: N_2  and  C_4
REMARK    4  A    between atoms: C_4  and  C_5
REMARK    5  A    between atoms: C_5  and  C_6
REMARK    6  A    between atoms: C_6  and  N_7
REMARK    7  A    between atoms: C_8  and  C_11
REMARK    8  A    between atoms: N_9  and  O_10
REMARK                            x       y       z     vdW  Elec       q    Type
REMARK                         _______ _______ _______ _____ _____    ______ ____
ROOT
ATOM      1  N   UNL     1       3.891   3.356  17.644  0.00  0.00    +0.000 NA
ATOM      2  C   UNL     1       4.800   3.610  18.535  0.00  0.00    +0.000 C 
ATOM      3  N   UNL     1       5.122   2.913  19.688  0.00  0.00    +0.000 N 
ATOM      4  H   UNL     1       6.074   3.109  20.035  0.00  0.00    +0.000 HD
ENDROOT
BRANCH   2   5
ATOM      5  C   UNL     1       5.570   4.885  18.287  0.00  0.00    +0.000 A 
ATOM      6  C   UNL     1       6.966   4.866  18.461  0.00  0.00    +0.000 A 
ATOM      7  C   UNL     1       7.728   5.999  18.190  0.00  0.00    +0.000 A 
ATOM      8  C   UNL     1       7.097   7.164  17.752  0.00  0.00    +0.000 A 
ATOM      9 CL   UNL     1       8.043   8.563  17.405  0.00  0.00    +0.000 Cl
ATOM     10  C   UNL     1       5.721   7.208  17.592  0.00  0.00    +0.000 A 
ATOM     11  C   UNL     1       4.951   6.079  17.857  0.00  0.00    +0.000 A 
ATOM     12 CL   UNL     1       3.242   6.258  17.649  0.00  0.00    +0.000 Cl
ENDBRANCH   2   5
BRANCH   3  13
ATOM     13  O   UNL     1       4.917   1.536  19.670  0.00  0.00    +0.000 OA
ATOM     14  H   UNL     1       4.002   1.461  20.015  0.00  0.00    +0.000 HD
ENDBRANCH   3  13
BRANCH   1  15
ATOM     15  C   UNL     1       3.064   2.170  17.804  0.00  0.00    +0.000 C 
BRANCH  15  16
ATOM     16  C   UNL     1       1.669   2.541  18.275  0.00  0.00    +0.000 C 
BRANCH  16  17
ATOM     17  C   UNL     1       1.427   2.003  19.699  0.00  0.00    +0.000 C 
BRANCH  17  19
ATOM     18  C   UNL     1       2.188   2.989  21.764  0.00  0.00    +0.000 C 
ATOM     19  N   UNL     1       1.181   3.059  20.702  0.00  0.00    +0.000 NA
ATOM     20  C   UNL     1       1.211   4.390  20.087  0.00  0.00    +0.000 C 
ENDBRANCH  17  19
ENDBRANCH  16  17
ENDBRANCH  15  16
ENDBRANCH   1  15
TORSDOF 6
ENDMDL
MODEL 4
REMARK VINA RESULT:      -6.2      3.538      6.441
REMARK  Name = 
REMARK  8 active torsions:
REMARK  status: ('A' for Active; 'I' for Inactive)
REMARK    1  A    between atoms: C_1  and  N_2
REMARK    2  A    between atoms: N_2  and  C_3
REMARK    3  A    between atoms: N_2  and  C_4
REMARK    4  A    between atoms: C_4  and  C_5
REMARK    5  A    between atoms: C_5  and  C_6
REMARK    6  A    between atoms: C_6  and  N_7
REMARK    7  A    between atoms: C_8  and  C_11
REMARK    8  A    between atoms: N_9  and  O_10
REMARK                            x       y       z     vdW  Elec       q    Type
REMARK                         _______ _______ _______ _____ _____    ______ ____
ROOT
ATOM      1  N   UNL     1       5.367   4.641  15.427  0.00  0.00    +0.000 NA
ATOM      2  C   UNL     1       5.512   4.303  16.672  0.00  0.00    +0.000 C 
ATOM      3  N   UNL     1       6.673   4.112  17.402  0.00  0.00    +0.000 N 
ATOM      4  H   UNL     1       6.534   4.186  18.422  0.00  0.00    +0.000 HD
ENDROOT
BRANCH   2   5
ATOM      5  C   UNL     1       4.214   4.033  17.394  0.00  0.00    +0.000 A 
ATOM      6  C   UNL     1       3.819   2.694  17.576  0.00  0.00    +0.000 A 
ATOM      7  C   UNL     1       2.661   2.389  18.285  0.00  0.00    +0.000 A 
ATOM      8  C   UNL     1       1.882   3.422  18.809  0.00  0.00    +0.000 A 
ATOM      9 CL   UNL     1       0.455   3.043  19.697  0.00  0.00    +0.000 Cl
ATOM     10  C   UNL     1       2.245   4.747  18.625  0.00  0.00    +0.000 A 
ATOM     11  C   UNL     1       3.404   5.061  17.920  0.00  0.00    +0.000 A 
ATOM     12 CL   UNL     1       3.742   6.748  17.730  0.00  0.00    +0.000 Cl
ENDBRANCH   2   5
BRANCH   3  13
ATOM     13  O   UNL     1       7.781   4.870  17.036  0.00  0.00    +0.000 OA
ATOM     14  H   UNL     1       7.419   5.781  17.046  0.00  0.00    +0.000 HD
ENDBRANCH   3  13
BRANCH   1  15
ATOM     15  C   UNL     1       6.554   4.890  14.624  0.00  0.00    +0.000 C 
BRANCH  15  16
ATOM     16  C   UNL     1       6.599   3.965  13.421  0.00  0.00    +0.000 C 
BRANCH  16  17
ATOM     17  C   UNL     1       5.171   3.658  12.931  0.00  0.00    +0.000 C 
BRANCH  17  19
ATOM     18  C   UNL     1       5.708   1.843  11.438  0.00  0.00    +0.000 C 
ATOM     19  N   UNL     1       5.110   3.176  11.536  0.00  0.00    +0.000 NA
ATOM     20  C   UNL     1       3.728   3.130  11.051  0.00  0.00    +0.000 C 
ENDBRANCH  17  19
ENDBRANCH  16  17
ENDBRANCH  15  16
ENDBRANCH   1  15
TORSDOF 6
ENDMDL
MODEL 5
REMARK VINA RESULT:      -6.1      2.409      3.211
REMARK  Name = 
REMARK  8 active torsions:
REMARK  status: ('A' for Active; 'I' for Inactive)
REMARK    1  A    between atoms: C_1  and  N_2
REMARK    2  A    between atoms: N_2  and  C_3
REMARK    3  A    between atoms: N_2  and  C_4
REMARK    4  A    between atoms: C_4  and  C_5
REMARK    5  A    between atoms: C_5  and  C_6
REMARK    6  A    between atoms: C_6  and  N_7
REMARK    7  A    between atoms: C_8  and  C_11
REMARK    8  A    between atoms: N_9  and  O_10
REMARK                            x       y       z     vdW  Elec       q    Type
REMARK                         _______ _______ _______ _____ _____    ______ ____
ROOT
ATOM      1  N   UNL     1       4.364   3.921  17.395  0.00  0.00    +0.000 NA
ATOM      2  C   UNL     1       5.152   4.152  18.400  0.00  0.00    +0.000 C 
ATOM      3  N   UNL     1       5.299   3.447  19.583  0.00  0.00    +0.000 N 
ATOM      4  H   UNL     1       6.200   3.618  20.056  0.00  0.00    +0.000 HD
ENDROOT
BRANCH   2   5
ATOM      5  C   UNL     1       5.981   5.406  18.261  0.00  0.00    +0.000 A 
ATOM      6  C   UNL     1       7.251   5.436  18.867  0.00  0.00    +0.000 A 
ATOM      7  C   UNL     1       8.078   6.546  18.720  0.00  0.00    +0.000 A 
ATOM      8  C   UNL     1       7.636   7.640  17.974  0.00  0.00    +0.000 A 
ATOM      9 CL   UNL     1       8.666   9.009  17.783  0.00  0.00    +0.000 Cl
ATOM     10  C   UNL     1       6.382   7.636  17.385  0.00  0.00    +0.000 A 
ATOM     11  C   UNL     1       5.549   6.528  17.523  0.00  0.00    +0.000 A 
ATOM     12 CL   UNL     1       3.997   6.647  16.768  0.00  0.00    +0.000 Cl
ENDBRANCH   2   5
BRANCH   3  13
ATOM     13  O   UNL     1       5.062   2.076  19.535  0.00  0.00    +0.000 OA
ATOM     14  H   UNL     1       4.920   1.926  18.576  0.00  0.00    +0.000 HD
ENDBRANCH   3  13
BRANCH   1  15
ATOM     15  C   UNL     1       3.492   2.758  17.439  0.00  0.00    +0.000 C 
BRANCH  15  16
ATOM     16  C   UNL     1       2.065   3.162  17.762  0.00  0.00    +0.000 C 
BRANCH  16  17
ATOM     17  C   UNL     1       1.629   2.547  19.106  0.00  0.00    +0.000 C 
BRANCH  17  19
ATOM     18  C   UNL     1       1.926   4.614  20.312  0.00  0.00    +0.000 C 
ATOM     19  N   UNL     1       2.251   3.186  20.284  0.00  0.00    +0.000 NA
ATOM     20  C   UNL     1       1.800   2.557  21.529  0.00  0.00    +0.000 C 
ENDBRANCH  17  19
ENDBRANCH  16  17
ENDBRANCH  15  16
ENDBRANCH   1  15
TORSDOF 6
ENDMDL
MODEL 6
REMARK VINA RESULT:      -6.0      3.284      6.552
REMARK  Name = 
REMARK  8 active torsions:
REMARK  status: ('A' for Active; 'I' for Inactive)
REMARK    1  A    between atoms: C_1  and  N_2
REMARK    2  A    between atoms: N_2  and  C_3
REMARK    3  A    between atoms: N_2  and  C_4
REMARK    4  A    between atoms: C_4  and  C_5
REMARK    5  A    between atoms: C_5  and  C_6
REMARK    6  A    between atoms: C_6  and  N_7
REMARK    7  A    between atoms: C_8  and  C_11
REMARK    8  A    between atoms: N_9  and  O_10
REMARK                            x       y       z     vdW  Elec       q    Type
REMARK                         _______ _______ _______ _____ _____    ______ ____
ROOT
ATOM      1  N   UNL     1       5.221   4.240  15.972  0.00  0.00    +0.000 NA
ATOM      2  C   UNL     1       5.637   4.445  17.185  0.00  0.00    +0.000 C 
ATOM      3  N   UNL     1       6.860   4.141  17.759  0.00  0.00    +0.000 N 
ATOM      4  H   UNL     1       7.067   4.695  18.604  0.00  0.00    +0.000 HD
ENDROOT
BRANCH   2   5
ATOM      5  C   UNL     1       4.601   5.055  18.099  0.00  0.00    +0.000 A 
ATOM      6  C   UNL     1       4.144   6.355  17.814  0.00  0.00    +0.000 A 
ATOM      7  C   UNL     1       3.149   6.941  18.592  0.00  0.00    +0.000 A 
ATOM      8  C   UNL     1       2.611   6.234  19.668  0.00  0.00    +0.000 A 
ATOM      9 CL   UNL     1       1.370   6.955  20.623  0.00  0.00    +0.000 Cl
ATOM     10  C   UNL     1       3.061   4.959  19.975  0.00  0.00    +0.000 A 
ATOM     11  C   UNL     1       4.053   4.364  19.200  0.00  0.00    +0.000 A 
ATOM     12 CL   UNL     1       4.555   2.783  19.693  0.00  0.00    +0.000 Cl
ENDBRANCH   2   5
BRANCH   3  13
ATOM     13  O   UNL     1       7.971   4.153  16.921  0.00  0.00    +0.000 OA
ATOM     14  H   UNL     1       8.525   4.855  17.325  0.00  0.00    +0.000 HD
ENDBRANCH   3  13
BRANCH   1  15
ATOM     15  C   UNL     1       6.125   3.622  15.015  0.00  0.00    +0.000 C 
BRANCH  15  16
ATOM     16  C   UNL     1       6.398   4.553  13.849  0.00  0.00    +0.000 C 
BRANCH  16  17
ATOM     17  C   UNL     1       6.617   3.741  12.558  0.00  0.00    +0.000 C 
BRANCH  17  19
ATOM     18  C   UNL     1       4.412   3.440  11.631  0.00  0.00    +0.000 C 
ATOM     19  N   UNL     1       5.541   2.768  12.277  0.00  0.00    +0.000 NA
ATOM     20  C   UNL     1       6.021   1.682  11.417  0.00  0.00    +0.000 C 
ENDBRANCH  17  19
ENDBRANCH  16  17
ENDBRANCH  15  16
ENDBRANCH   1  15
TORSDOF 6
ENDMDL
MODEL 7
REMARK VINA RESULT:      -6.0      1.812      3.156
REMARK  Name = 
REMARK  8 active torsions:
REMARK  status: ('A' for Active; 'I' for Inactive)
REMARK    1  A    between atoms: C_1  and  N_2
REMARK    2  A    between atoms: N_2  and  C_3
REMARK    3  A    between atoms: N_2  and  C_4
REMARK    4  A    between atoms: C_4  and  C_5
REMARK    5  A    between atoms: C_5  and  C_6
REMARK    6  A    between atoms: C_6  and  N_7
REMARK    7  A    between atoms: C_8  and  C_11
REMARK    8  A    between atoms: N_9  and  O_10
REMARK                            x       y       z     vdW  Elec       q    Type
REMARK                         _______ _______ _______ _____ _____    ______ ____
ROOT
ATOM      1  N   UNL     1       3.192   3.108  17.626  0.00  0.00    +0.000 NA
ATOM      2  C   UNL     1       4.316   3.037  18.272  0.00  0.00    +0.000 C 
ATOM      3  N   UNL     1       4.786   2.043  19.114  0.00  0.00    +0.000 N 
ATOM      4  H   UNL     1       5.812   2.049  19.226  0.00  0.00    +0.000 HD
ENDROOT
BRANCH   2   5
ATOM      5  C   UNL     1       5.200   4.250  18.110  0.00  0.00    +0.000 A 
ATOM      6  C   UNL     1       5.670   4.892  19.270  0.00  0.00    +0.000 A 
ATOM      7  C   UNL     1       6.534   5.979  19.177  0.00  0.00    +0.000 A 
ATOM      8  C   UNL     1       6.927   6.440  17.919  0.00  0.00    +0.000 A 
ATOM      9 CL   UNL     1       8.006   7.779  17.804  0.00  0.00    +0.000 Cl
ATOM     10  C   UNL     1       6.461   5.832  16.764  0.00  0.00    +0.000 A 
ATOM     11  C   UNL     1       5.599   4.742  16.849  0.00  0.00    +0.000 A 
ATOM     12 CL   UNL     1       5.060   4.082  15.342  0.00  0.00    +0.000 Cl
ENDBRANCH   2   5
BRANCH   3  13
ATOM     13  O   UNL     1       4.363   0.743  18.852  0.00  0.00    +0.000 OA
ATOM     14  H   UNL     1       4.594   0.281  19.686  0.00  0.00    +0.000 HD
ENDBRANCH   3  13
BRANCH   1  15
ATOM     15  C   UNL     1       2.246   2.009  17.739  0.00  0.00    +0.000 C 
BRANCH  15  16
ATOM     16  C   UNL     1       1.185   2.313  18.781  0.00  0.00    +0.000 C 
BRANCH  16  17
ATOM     17  C   UNL     1       1.155   3.824  19.086  0.00  0.00    +0.000 C 
BRANCH  17  19
ATOM     18  C   UNL     1       1.591   2.987  21.305  0.00  0.00    +0.000 C 
ATOM     19  N   UNL     1       1.126   4.139  20.529  0.00  0.00    +0.000 NA
ATOM     20  C   UNL     1       1.963   5.304  20.833  0.00  0.00    +0.000 C 
ENDBRANCH  17  19
ENDBRANCH  16  17
ENDBRANCH  15  16
ENDBRANCH   1  15
TORSDOF 6
ENDMDL
MODEL 8
REMARK VINA RESULT:      -5.9      3.206      6.490
REMARK  Name = 
REMARK  8 active torsions:
REMARK  status: ('A' for Active; 'I' for Inactive)
REMARK    1  A    between atoms: C_1  and  N_2
REMARK    2  A    between atoms: N_2  and  C_3
REMARK    3  A    between atoms: N_2  and  C_4
REMARK    4  A    between atoms: C_4  and  C_5
REMARK    5  A    between atoms: C_5  and  C_6
REMARK    6  A    between atoms: C_6  and  N_7
REMARK    7  A    between atoms: C_8  and  C_11
REMARK    8  A    between atoms: N_9  and  O_10
REMARK                            x       y       z     vdW  Elec       q    Type
REMARK                         _______ _______ _______ _____ _____    ______ ____
ROOT
ATOM      1  N   UNL     1       5.940   4.320  16.935  0.00  0.00    +0.000 NA
ATOM      2  C   UNL     1       5.943   4.570  18.209  0.00  0.00    +0.000 C 
ATOM      3  N   UNL     1       6.953   5.090  19.001  0.00  0.00    +0.000 N 
ATOM      4  H   UNL     1       6.613   5.506  19.882  0.00  0.00    +0.000 HD
ENDROOT
BRANCH   2   5
ATOM      5  C   UNL     1       4.670   4.178  18.920  0.00  0.00    +0.000 A 
ATOM      6  C   UNL     1       4.621   2.924  19.556  0.00  0.00    +0.000 A 
ATOM      7  C   UNL     1       3.491   2.539  20.273  0.00  0.00    +0.000 A 
ATOM      8  C   UNL     1       2.397   3.402  20.350  0.00  0.00    +0.000 A 
ATOM      9 CL   UNL     1       1.004   2.929  21.248  0.00  0.00    +0.000 Cl
ATOM     10  C   UNL     1       2.420   4.634  19.715  0.00  0.00    +0.000 A 
ATOM     11  C   UNL     1       3.547   5.029  18.999  0.00  0.00    +0.000 A 
ATOM     12 CL   UNL     1       3.452   6.575  18.226  0.00  0.00    +0.000 Cl
ENDBRANCH   2   5
BRANCH   3  13
ATOM     13  O   UNL     1       7.841   5.973  18.393  0.00  0.00    +0.000 OA
ATOM     14  H   UNL     1       8.490   5.361  17.984  0.00  0.00    +0.000 HD
ENDBRANCH   3  13
BRANCH   1  15
ATOM     15  C   UNL     1       7.131   4.624  16.157  0.00  0.00    +0.000 C 
BRANCH  15  16
ATOM     16  C   UNL     1       6.768   4.966  14.724  0.00  0.00    +0.000 C 
BRANCH  16  17
ATOM     17  C   UNL     1       5.809   3.906  14.149  0.00  0.00    +0.000 C 
BRANCH  17  19
ATOM     18  C   UNL     1       5.022   3.290  11.955  0.00  0.00    +0.000 C 
ATOM     19  N   UNL     1       6.202   3.409  12.814  0.00  0.00    +0.000 NA
ATOM     20  C   UNL     1       7.179   4.301  12.183  0.00  0.00    +0.000 C 
ENDBRANCH  17  19
ENDBRANCH  16  17
ENDBRANCH  15  16
ENDBRANCH   1  15
TORSDOF 6
ENDMDL
MODEL 9
REMARK VINA RESULT:      -5.9      3.236      6.323
REMARK  Name = 
REMARK  8 active torsions:
REMARK  status: ('A' for Active; 'I' for Inactive)
REMARK    1  A    between atoms: C_1  and  N_2
REMARK    2  A    between atoms: N_2  and  C_3
REMARK    3  A    between atoms: N_2  and  C_4
REMARK    4  A    between atoms: C_4  and  C_5
REMARK    5  A    between atoms: C_5  and  C_6
REMARK    6  A    between atoms: C_6  and  N_7
REMARK    7  A    between atoms: C_8  and  C_11
REMARK    8  A    between atoms: N_9  and  O_10
REMARK                            x       y       z     vdW  Elec       q    Type
REMARK                         _______ _______ _______ _____ _____    ______ ____
ROOT
ATOM      1  N   UNL     1       5.576   5.095  16.314  0.00  0.00    +0.000 NA
ATOM      2  C   UNL     1       5.532   4.431  17.429  0.00  0.00    +0.000 C 
ATOM      3  N   UNL     1       6.568   4.033  18.257  0.00  0.00    +0.000 N 
ATOM      4  H   UNL     1       6.268   3.830  19.224  0.00  0.00    +0.000 HD
ENDROOT
BRANCH   2   5
ATOM      5  C   UNL     1       4.145   3.994  17.834  0.00  0.00    +0.000 A 
ATOM      6  C   UNL     1       3.844   2.620  17.802  0.00  0.00    +0.000 A 
ATOM      7  C   UNL     1       2.598   2.159  18.221  0.00  0.00    +0.000 A 
ATOM      8  C   UNL     1       1.640   3.072  18.665  0.00  0.00    +0.000 A 
ATOM      9 CL   UNL     1       0.103   2.499  19.194  0.00  0.00    +0.000 Cl
ATOM     10  C   UNL     1       1.912   4.431  18.687  0.00  0.00    +0.000 A 
ATOM     11  C   UNL     1       3.157   4.900  18.273  0.00  0.00    +0.000 A 
ATOM     12 CL   UNL     1       3.373   6.616  18.318  0.00  0.00    +0.000 Cl
ENDBRANCH   2   5
BRANCH   3  13
ATOM     13  O   UNL     1       7.698   4.845  18.290  0.00  0.00    +0.000 OA
ATOM     14  H   UNL     1       8.414   4.210  18.075  0.00  0.00    +0.000 HD
ENDBRANCH   3  13
BRANCH   1  15
ATOM     15  C   UNL     1       6.867   5.534  15.809  0.00  0.00    +0.000 C 
BRANCH  15  16
ATOM     16  C   UNL     1       7.262   4.748  14.572  0.00  0.00    +0.000 C 
BRANCH  16  17
ATOM     17  C   UNL     1       6.025   4.061  13.960  0.00  0.00    +0.000 C 
BRANCH  17  19
ATOM     18  C   UNL     1       5.018   3.244  11.928  0.00  0.00    +0.000 C 
ATOM     19  N   UNL     1       6.280   3.437  12.645  0.00  0.00    +0.000 NA
ATOM     20  C   UNL     1       7.183   4.260  11.835  0.00  0.00    +0.000 C 
ENDBRANCH  17  19
ENDBRANCH  16  17
ENDBRANCH  15  16
ENDBRANCH   1  15
TORSDOF 6
ENDMDL
