MODEL 1
REMARK VINA RESULT:      -7.8      0.000      0.000
REMARK  Name = 
REMARK  3 active torsions:
REMARK  status: ('A' for Active; 'I' for Inactive)
REMARK    1  A    between atoms: C_1  and  C_2
REMARK    2  A    between atoms: C_4  and  O_5
REMARK    3  A    between atoms: C_13  and  N_14
REMARK                            x       y       z     vdW  Elec       q    Type
REMARK                         _______ _______ _______ _____ _____    ______ ____
ROOT
ATOM      1  C   UNL     1       1.253   3.453  21.065  0.00  0.00    +0.000 C 
ATOM      2  C   UNL     1       2.193   3.631  19.914  0.00  0.00    +0.000 A 
ATOM      3  N   UNL     1       2.725   2.542  19.352  0.00  0.00    +0.000 NA
ATOM      4  C   UNL     1       3.561   2.767  18.323  0.00  0.00    +0.000 A 
ATOM      5  C   UNL     1       3.921   3.999  17.793  0.00  0.00    +0.000 A 
ATOM      6  C   UNL     1       3.299   5.046  18.462  0.00  0.00    +0.000 A 
ATOM      7  N   UNL     1       2.446   4.882  19.509  0.00  0.00    +0.000 NA
ATOM      8  C   UNL     1       3.512   6.482  18.085  0.00  0.00    +0.000 C 
ATOM      9  C   UNL     1       4.446   6.770  16.918  0.00  0.00    +0.000 C 
ATOM     10  C   UNL     1       5.098   5.587  16.251  0.00  0.00    +0.000 A 
ATOM     11  C   UNL     1       5.975   5.866  15.180  0.00  0.00    +0.000 A 
ATOM     12  C   UNL     1       6.606   4.826  14.497  0.00  0.00    +0.000 A 
ATOM     13  C   UNL     1       6.372   3.508  14.875  0.00  0.00    +0.000 A 
ATOM     14  C   UNL     1       5.504   3.240  15.942  0.00  0.00    +0.000 A 
ATOM     15  C   UNL     1       4.843   4.259  16.660  0.00  0.00    +0.000 A 
ENDROOT
BRANCH  12  16
ATOM     16  N   UNL     1       7.511   5.122  13.380  0.00  0.00    +0.000 N 
ATOM     17  O   UNL     1       7.248   4.624  12.277  0.00  0.00    +0.000 OA
ATOM     18  O   UNL     1       8.487   5.852  13.607  0.00  0.00    +0.000 OA
ENDBRANCH  12  16
BRANCH   4  19
ATOM     19  O   UNL     1       4.028   1.588  17.844  0.00  0.00    +0.000 OA
ATOM     20  H   UNL     1       3.785   0.998  18.581  0.00  0.00    +0.000 HD
ENDBRANCH   4  19
TORSDOF 2
ENDMDL
MODEL 2
REMARK VINA RESULT:      -7.7      1.407      1.654
REMARK  Name = 
REMARK  3 active torsions:
REMARK  status: ('A' for Active; 'I' for Inactive)
REMARK    1  A    between atoms: C_1  and  C_2
REMARK    2  A    between atoms: C_4  and  O_5
REMARK    3  A    between atoms: C_13  and  N_14
REMARK                            x       y       z     vdW  Elec       q    Type
REMARK                         _______ _______ _______ _____ _____    ______ ____
ROOT
ATOM      1  C   UNL     1       1.967   3.614  21.290  0.00  0.00    +0.000 C 
ATOM      2  C   UNL     1       2.768   3.805  20.041  0.00  0.00    +0.000 A 
ATOM      3  N   UNL     1       2.245   3.400  18.881  0.00  0.00    +0.000 NA
ATOM      4  C   UNL     1       3.012   3.599  17.795  0.00  0.00    +0.000 A 
ATOM      5  C   UNL     1       4.276   4.175  17.758  0.00  0.00    +0.000 A 
ATOM      6  C   UNL     1       4.702   4.554  19.025  0.00  0.00    +0.000 A 
ATOM      7  N   UNL     1       3.973   4.378  20.160  0.00  0.00    +0.000 NA
ATOM      8  C   UNL     1       6.031   5.206  19.265  0.00  0.00    +0.000 C 
ATOM      9  C   UNL     1       6.920   5.453  18.054  0.00  0.00    +0.000 C 
ATOM     10  C   UNL     1       6.400   5.001  16.715  0.00  0.00    +0.000 A 
ATOM     11  C   UNL     1       7.239   5.220  15.601  0.00  0.00    +0.000 A 
ATOM     12  C   UNL     1       6.824   4.847  14.322  0.00  0.00    +0.000 A 
ATOM     13  C   UNL     1       5.579   4.252  14.144  0.00  0.00    +0.000 A 
ATOM     14  C   UNL     1       4.755   4.034  15.256  0.00  0.00    +0.000 A 
ATOM     15  C   UNL     1       5.132   4.396  16.567  0.00  0.00    +0.000 A 
ENDROOT
BRANCH  12  16
ATOM     16  N   UNL     1       7.699   5.084  13.167  0.00  0.00    +0.000 N 
ATOM     17  O   UNL     1       8.623   5.897  13.302  0.00  0.00    +0.000 OA
ATOM     18  O   UNL     1       7.458   4.460  12.124  0.00  0.00    +0.000 OA
ENDBRANCH  12  16
BRANCH   4  19
ATOM     19  O   UNL     1       2.370   3.148  16.689  0.00  0.00    +0.000 OA
ATOM     20  H   UNL     1       2.542   2.192  16.772  0.00  0.00    +0.000 HD
ENDBRANCH   4  19
TORSDOF 2
ENDMDL
MODEL 3
REMARK VINA RESULT:      -7.2      2.884      3.877
REMARK  Name = 
REMARK  3 active torsions:
REMARK  status: ('A' for Active; 'I' for Inactive)
REMARK    1  A    between atoms: C_1  and  C_2
REMARK    2  A    between atoms: C_4  and  O_5
REMARK    3  A    between atoms: C_13  and  N_14
REMARK                            x       y       z     vdW  Elec       q    Type
REMARK                         _______ _______ _______ _____ _____    ______ ____
ROOT
ATOM      1  C   UNL     1       0.118   8.626  21.559  0.00  0.00    +0.000 C 
ATOM      2  C   UNL     1       1.077   8.098  20.539  0.00  0.00    +0.000 A 
ATOM      3  N   UNL     1       1.378   8.867  19.490  0.00  0.00    +0.000 NA
ATOM      4  C   UNL     1       2.244   8.338  18.608  0.00  0.00    +0.000 A 
ATOM      5  C   UNL     1       2.849   7.089  18.677  0.00  0.00    +0.000 A 
ATOM      6  C   UNL     1       2.455   6.393  19.814  0.00  0.00    +0.000 A 
ATOM      7  N   UNL     1       1.583   6.875  20.739  0.00  0.00    +0.000 NA
ATOM      8  C   UNL     1       2.966   5.020  20.133  0.00  0.00    +0.000 C 
ATOM      9  C   UNL     1       3.956   4.396  19.159  0.00  0.00    +0.000 C 
ATOM     10  C   UNL     1       4.324   5.202  17.941  0.00  0.00    +0.000 A 
ATOM     11  C   UNL     1       5.230   4.608  17.036  0.00  0.00    +0.000 A 
ATOM     12  C   UNL     1       5.636   5.295  15.891  0.00  0.00    +0.000 A 
ATOM     13  C   UNL     1       5.143   6.571  15.639  0.00  0.00    +0.000 A 
ATOM     14  C   UNL     1       4.240   7.151  16.540  0.00  0.00    +0.000 A 
ATOM     15  C   UNL     1       3.803   6.495  17.710  0.00  0.00    +0.000 A 
ENDROOT
BRANCH  12  16
ATOM     16  N   UNL     1       6.583   4.674  14.958  0.00  0.00    +0.000 N 
ATOM     17  O   UNL     1       6.263   3.593  14.446  0.00  0.00    +0.000 OA
ATOM     18  O   UNL     1       7.650   5.266  14.740  0.00  0.00    +0.000 OA
ENDBRANCH  12  16
BRANCH   4  19
ATOM     19  O   UNL     1       2.465   9.215  17.597  0.00  0.00    +0.000 OA
ATOM     20  H   UNL     1       1.600   9.663  17.570  0.00  0.00    +0.000 HD
ENDBRANCH   4  19
TORSDOF 2
ENDMDL
MODEL 4
REMARK VINA RESULT:      -6.9      5.323      7.777
REMARK  Name = 
REMARK  3 active torsions:
REMARK  status: ('A' for Active; 'I' for Inactive)
REMARK    1  A    between atoms: C_1  and  C_2
REMARK    2  A    between atoms: C_4  and  O_5
REMARK    3  A    between atoms: C_13  and  N_14
REMARK                            x       y       z     vdW  Elec       q    Type
REMARK                         _______ _______ _______ _____ _____    ______ ____
ROOT
ATOM      1  C   UNL     1       4.619   3.791  17.580  0.00  0.00    +0.000 C 
ATOM      2  C   UNL     1       3.828   4.849  18.281  0.00  0.00    +0.000 A 
ATOM      3  N   UNL     1       3.391   4.603  19.519  0.00  0.00    +0.000 NA
ATOM      4  C   UNL     1       2.685   5.592  20.096  0.00  0.00    +0.000 A 
ATOM      5  C   UNL     1       2.370   6.826  19.542  0.00  0.00    +0.000 A 
ATOM      6  C   UNL     1       2.885   6.957  18.257  0.00  0.00    +0.000 A 
ATOM      7  N   UNL     1       3.603   5.993  17.622  0.00  0.00    +0.000 NA
ATOM      8  C   UNL     1       2.693   8.197  17.437  0.00  0.00    +0.000 C 
ATOM      9  C   UNL     1       1.907   9.340  18.065  0.00  0.00    +0.000 C 
ATOM     10  C   UNL     1       1.366   9.120  19.453  0.00  0.00    +0.000 A 
ATOM     11  C   UNL     1       0.624  10.180  20.020  0.00  0.00    +0.000 A 
ATOM     12  C   UNL     1       0.103  10.064  21.309  0.00  0.00    +0.000 A 
ATOM     13  C   UNL     1       0.312   8.899  22.038  0.00  0.00    +0.000 A 
ATOM     14  C   UNL     1       1.045   7.850  21.466  0.00  0.00    +0.000 A 
ATOM     15  C   UNL     1       1.592   7.923  20.167  0.00  0.00    +0.000 A 
ENDROOT
BRANCH  12  16
ATOM     16  N   UNL     1      -0.661  11.172  21.895  0.00  0.00    +0.000 N 
ATOM     17  O   UNL     1      -1.368  11.850  21.136  0.00  0.00    +0.000 OA
ATOM     18  O   UNL     1      -0.552  11.367  23.114  0.00  0.00    +0.000 OA
ENDBRANCH  12  16
BRANCH   4  19
ATOM     19  O   UNL     1       2.303   5.218  21.342  0.00  0.00    +0.000 OA
ATOM     20  H   UNL     1       1.730   4.461  21.123  0.00  0.00    +0.000 HD
ENDBRANCH   4  19
TORSDOF 2
ENDMDL
MODEL 5
REMARK VINA RESULT:      -6.7      4.411      6.385
REMARK  Name = 
REMARK  3 active torsions:
REMARK  status: ('A' for Active; 'I' for Inactive)
REMARK    1  A    between atoms: C_1  and  C_2
REMARK    2  A    between atoms: C_4  and  O_5
REMARK    3  A    between atoms: C_13  and  N_14
REMARK                            x       y       z     vdW  Elec       q    Type
REMARK                         _______ _______ _______ _____ _____    ______ ____
ROOT
ATOM      1  C   UNL     1      -0.935  12.409  20.112  0.00  0.00    +0.000 C 
ATOM      2  C   UNL     1      -0.068  11.239  19.766  0.00  0.00    +0.000 A 
ATOM      3  N   UNL     1       0.656  11.293  18.645  0.00  0.00    +0.000 NA
ATOM      4  C   UNL     1       1.413  10.212  18.388  0.00  0.00    +0.000 A 
ATOM      5  C   UNL     1       1.518   9.062  19.161  0.00  0.00    +0.000 A 
ATOM      6  C   UNL     1       0.720   9.134  20.296  0.00  0.00    +0.000 A 
ATOM      7  N   UNL     1      -0.068  10.198  20.609  0.00  0.00    +0.000 NA
ATOM      8  C   UNL     1       0.653   8.026  21.304  0.00  0.00    +0.000 C 
ATOM      9  C   UNL     1       1.506   6.791  21.047  0.00  0.00    +0.000 C 
ATOM     10  C   UNL     1       2.332   6.776  19.788  0.00  0.00    +0.000 A 
ATOM     11  C   UNL     1       3.107   5.620  19.551  0.00  0.00    +0.000 A 
ATOM     12  C   UNL     1       3.915   5.533  18.416  0.00  0.00    +0.000 A 
ATOM     13  C   UNL     1       3.953   6.589  17.512  0.00  0.00    +0.000 A 
ATOM     14  C   UNL     1       3.177   7.731  17.753  0.00  0.00    +0.000 A 
ATOM     15  C   UNL     1       2.348   7.864  18.887  0.00  0.00    +0.000 A 
ENDROOT
BRANCH  12  16
ATOM     16  N   UNL     1       4.724   4.331  18.180  0.00  0.00    +0.000 N 
ATOM     17  O   UNL     1       5.489   3.965  19.083  0.00  0.00    +0.000 OA
ATOM     18  O   UNL     1       4.596   3.756  17.090  0.00  0.00    +0.000 OA
ENDBRANCH  12  16
BRANCH   4  19
ATOM     19  O   UNL     1       2.095  10.392  17.230  0.00  0.00    +0.000 OA
ATOM     20  H   UNL     1       1.395  10.794  16.683  0.00  0.00    +0.000 HD
ENDBRANCH   4  19
TORSDOF 2
ENDMDL
MODEL 6
REMARK VINA RESULT:      -6.7      6.246      8.878
REMARK  Name = 
REMARK  3 active torsions:
REMARK  status: ('A' for Active; 'I' for Inactive)
REMARK    1  A    between atoms: C_1  and  C_2
REMARK    2  A    between atoms: C_4  and  O_5
REMARK    3  A    between atoms: C_13  and  N_14
REMARK                            x       y       z     vdW  Elec       q    Type
REMARK                         _______ _______ _______ _____ _____    ______ ____
ROOT
ATOM      1  C   UNL     1       4.085   5.562  17.190  0.00  0.00    +0.000 C 
ATOM      2  C   UNL     1       3.287   6.435  18.105  0.00  0.00    +0.000 A 
ATOM      3  N   UNL     1       2.960   5.962  19.311  0.00  0.00    +0.000 NA
ATOM      4  C   UNL     1       2.242   6.793  20.088  0.00  0.00    +0.000 A 
ATOM      5  C   UNL     1       1.812   8.074  19.767  0.00  0.00    +0.000 A 
ATOM      6  C   UNL     1       2.219   8.446  18.491  0.00  0.00    +0.000 A 
ATOM      7  N   UNL     1       2.944   7.650  17.660  0.00  0.00    +0.000 NA
ATOM      8  C   UNL     1       1.891   9.785  17.901  0.00  0.00    +0.000 C 
ATOM      9  C   UNL     1       1.087  10.752  18.758  0.00  0.00    +0.000 C 
ATOM     10  C   UNL     1       0.667  10.275  20.123  0.00  0.00    +0.000 A 
ATOM     11  C   UNL     1      -0.093  11.173  20.904  0.00  0.00    +0.000 A 
ATOM     12  C   UNL     1      -0.507  10.816  22.188  0.00  0.00    +0.000 A 
ATOM     13  C   UNL     1      -0.173   9.566  22.699  0.00  0.00    +0.000 A 
ATOM     14  C   UNL     1       0.577   8.678  21.916  0.00  0.00    +0.000 A 
ATOM     15  C   UNL     1       1.018   8.998  20.614  0.00  0.00    +0.000 A 
ENDROOT
BRANCH  12  16
ATOM     16  N   UNL     1      -1.290  11.757  22.997  0.00  0.00    +0.000 N 
ATOM     17  O   UNL     1      -0.802  12.876  23.212  0.00  0.00    +0.000 OA
ATOM     18  O   UNL     1      -2.391  11.377  23.420  0.00  0.00    +0.000 OA
ENDBRANCH  12  16
BRANCH   4  19
ATOM     19  O   UNL     1       1.978   6.198  21.278  0.00  0.00    +0.000 OA
ATOM     20  H   UNL     1       1.225   6.741  21.574  0.00  0.00    +0.000 HD
ENDBRANCH   4  19
TORSDOF 2
ENDMDL
MODEL 7
REMARK VINA RESULT:      -6.6      2.025      6.237
REMARK  Name = 
REMARK  3 active torsions:
REMARK  status: ('A' for Active; 'I' for Inactive)
REMARK    1  A    between atoms: C_1  and  C_2
REMARK    2  A    between atoms: C_4  and  O_5
REMARK    3  A    between atoms: C_13  and  N_14
REMARK                            x       y       z     vdW  Elec       q    Type
REMARK                         _______ _______ _______ _____ _____    ______ ____
ROOT
ATOM      1  C   UNL     1       7.497   5.423  13.170  0.00  0.00    +0.000 C 
ATOM      2  C   UNL     1       6.663   5.026  14.347  0.00  0.00    +0.000 A 
ATOM      3  N   UNL     1       6.465   3.725  14.577  0.00  0.00    +0.000 NA
ATOM      4  C   UNL     1       5.706   3.431  15.648  0.00  0.00    +0.000 A 
ATOM      5  C   UNL     1       5.117   4.331  16.527  0.00  0.00    +0.000 A 
ATOM      6  C   UNL     1       5.402   5.646  16.179  0.00  0.00    +0.000 A 
ATOM      7  N   UNL     1       6.160   6.005  15.109  0.00  0.00    +0.000 NA
ATOM      8  C   UNL     1       4.892   6.815  16.968  0.00  0.00    +0.000 C 
ATOM      9  C   UNL     1       4.038   6.516  18.193  0.00  0.00    +0.000 C 
ATOM     10  C   UNL     1       3.757   5.069  18.498  0.00  0.00    +0.000 A 
ATOM     11  C   UNL     1       2.951   4.803  19.627  0.00  0.00    +0.000 A 
ATOM     12  C   UNL     1       2.658   3.487  19.990  0.00  0.00    +0.000 A 
ATOM     13  C   UNL     1       3.159   2.433  19.234  0.00  0.00    +0.000 A 
ATOM     14  C   UNL     1       3.955   2.706  18.113  0.00  0.00    +0.000 A 
ATOM     15  C   UNL     1       4.278   4.019  17.710  0.00  0.00    +0.000 A 
ENDROOT
BRANCH  12  16
ATOM     16  N   UNL     1       1.825   3.218  21.168  0.00  0.00    +0.000 N 
ATOM     17  O   UNL     1       2.366   3.271  22.280  0.00  0.00    +0.000 OA
ATOM     18  O   UNL     1       0.629   2.951  20.980  0.00  0.00    +0.000 OA
ENDBRANCH  12  16
BRANCH   4  19
ATOM     19  O   UNL     1       5.584   2.086  15.770  0.00  0.00    +0.000 OA
ATOM     20  H   UNL     1       5.238   1.867  14.885  0.00  0.00    +0.000 HD
ENDBRANCH   4  19
TORSDOF 2
ENDMDL
MODEL 8
REMARK VINA RESULT:      -6.6      3.838      5.991
REMARK  Name = 
REMARK  3 active torsions:
REMARK  status: ('A' for Active; 'I' for Inactive)
REMARK    1  A    between atoms: C_1  and  C_2
REMARK    2  A    between atoms: C_4  and  O_5
REMARK    3  A    between atoms: C_13  and  N_14
REMARK                            x       y       z     vdW  Elec       q    Type
REMARK                         _______ _______ _______ _____ _____    ______ ____
ROOT
ATOM      1  C   UNL     1       0.937  11.491  18.760  0.00  0.00    +0.000 C 
ATOM      2  C   UNL     1       1.386  10.077  18.956  0.00  0.00    +0.000 A 
ATOM      3  N   UNL     1       0.942   9.411  20.025  0.00  0.00    +0.000 NA
ATOM      4  C   UNL     1       1.381   8.145  20.146  0.00  0.00    +0.000 A 
ATOM      5  C   UNL     1       2.237   7.471  19.284  0.00  0.00    +0.000 A 
ATOM      6  C   UNL     1       2.621   8.272  18.216  0.00  0.00    +0.000 A 
ATOM      7  N   UNL     1       2.213   9.557  18.040  0.00  0.00    +0.000 NA
ATOM      8  C   UNL     1       3.539   7.784  17.135  0.00  0.00    +0.000 C 
ATOM      9  C   UNL     1       4.046   6.352  17.238  0.00  0.00    +0.000 C 
ATOM     10  C   UNL     1       3.601   5.550  18.432  0.00  0.00    +0.000 A 
ATOM     11  C   UNL     1       4.090   4.228  18.527  0.00  0.00    +0.000 A 
ATOM     12  C   UNL     1       3.711   3.411  19.593  0.00  0.00    +0.000 A 
ATOM     13  C   UNL     1       2.851   3.902  20.569  0.00  0.00    +0.000 A 
ATOM     14  C   UNL     1       2.374   5.216  20.470  0.00  0.00    +0.000 A 
ATOM     15  C   UNL     1       2.728   6.077  19.409  0.00  0.00    +0.000 A 
ENDROOT
BRANCH  12  16
ATOM     16  N   UNL     1       4.218   2.036  19.681  0.00  0.00    +0.000 N 
ATOM     17  O   UNL     1       5.000   1.769  20.603  0.00  0.00    +0.000 OA
ATOM     18  O   UNL     1       3.835   1.225  18.826  0.00  0.00    +0.000 OA
ENDBRANCH  12  16
BRANCH   4  19
ATOM     19  O   UNL     1       0.859   7.583  21.265  0.00  0.00    +0.000 OA
ATOM     20  H   UNL     1       1.651   7.574  21.833  0.00  0.00    +0.000 HD
ENDBRANCH   4  19
TORSDOF 2
ENDMDL
MODEL 9
REMARK VINA RESULT:      -6.5      3.511      5.953
REMARK  Name = 
REMARK  3 active torsions:
REMARK  status: ('A' for Active; 'I' for Inactive)
REMARK    1  A    between atoms: C_1  and  C_2
REMARK    2  A    between atoms: C_4  and  O_5
REMARK    3  A    between atoms: C_13  and  N_14
REMARK                            x       y       z     vdW  Elec       q    Type
REMARK                         _______ _______ _______ _____ _____    ______ ____
ROOT
ATOM      1  C   UNL     1       0.806  11.603  18.659  0.00  0.00    +0.000 C 
ATOM      2  C   UNL     1       1.328  10.201  18.689  0.00  0.00    +0.000 A 
ATOM      3  N   UNL     1       2.054   9.770  17.654  0.00  0.00    +0.000 NA
ATOM      4  C   UNL     1       2.494   8.502  17.739  0.00  0.00    +0.000 A 
ATOM      5  C   UNL     1       2.274   7.609  18.780  0.00  0.00    +0.000 A 
ATOM      6  C   UNL     1       1.511   8.180  19.791  0.00  0.00    +0.000 A 
ATOM      7  N   UNL     1       1.036   9.455  19.761  0.00  0.00    +0.000 NA
ATOM      8  C   UNL     1       1.133   7.432  21.034  0.00  0.00    +0.000 C 
ATOM      9  C   UNL     1       1.624   5.997  21.166  0.00  0.00    +0.000 C 
ATOM     10  C   UNL     1       2.431   5.439  20.024  0.00  0.00    +0.000 A 
ATOM     11  C   UNL     1       2.868   4.102  20.148  0.00  0.00    +0.000 A 
ATOM     12  C   UNL     1       3.637   3.515  19.142  0.00  0.00    +0.000 A 
ATOM     13  C   UNL     1       3.972   4.249  18.010  0.00  0.00    +0.000 A 
ATOM     14  C   UNL     1       3.530   5.574  17.892  0.00  0.00    +0.000 A 
ATOM     15  C   UNL     1       2.753   6.209  18.884  0.00  0.00    +0.000 A 
ENDROOT
BRANCH  12  16
ATOM     16  N   UNL     1       4.094   2.127  19.282  0.00  0.00    +0.000 N 
ATOM     17  O   UNL     1       3.635   1.288  18.494  0.00  0.00    +0.000 OA
ATOM     18  O   UNL     1       4.908   1.876  20.181  0.00  0.00    +0.000 OA
ENDBRANCH  12  16
BRANCH   4  19
ATOM     19  O   UNL     1       3.215   8.190  16.633  0.00  0.00    +0.000 OA
ATOM     20  H   UNL     1       2.555   7.663  16.146  0.00  0.00    +0.000 HD
ENDBRANCH   4  19
TORSDOF 2
ENDMDL
