MODEL 1
REMARK VINA RESULT:      -7.8      0.000      0.000
REMARK  Name = 
REMARK  5 active torsions:
REMARK  status: ('A' for Active; 'I' for Inactive)
REMARK    1  A    between atoms: C_2  and  C_3
REMARK    2  A    between atoms: C_2  and  C_6
REMARK    3  A    between atoms: C_9  and  C_11
REMARK    4  A    between atoms: C_13  and  C_14
REMARK    5  A    between atoms: C_19  and  C_20
REMARK                            x       y       z     vdW  Elec       q    Type
REMARK                         _______ _______ _______ _____ _____    ______ ____
ROOT
ATOM      1  C   UNL     1       4.475   4.856  16.949  0.00  0.00    +0.000 C 
ATOM      2  C   UNL     1       4.501   5.804  18.161  0.00  0.00    +0.000 C 
ATOM      3  N   UNL     1       3.445   5.449  19.110  0.00  0.00    +0.000 N 
ATOM      4  C   UNL     1       2.501   6.305  19.663  0.00  0.00    +0.000 C 
ATOM      5  O   UNL     1       1.675   5.921  20.487  0.00  0.00    +0.000 OA
ATOM      6  C   UNL     1       3.475   4.033  19.501  0.00  0.00    +0.000 C 
ATOM      7  C   UNL     1       3.516   3.136  18.254  0.00  0.00    +0.000 C 
ATOM      8  O   UNL     1       4.609   3.498  17.382  0.00  0.00    +0.000 OA
ENDROOT
BRANCH   4   9
ATOM      9  C   UNL     1       2.506   7.750  19.254  0.00  0.00    +0.000 C 
ATOM     10  C   UNL     1       2.134   8.167  17.855  0.00  0.00    +0.000 C 
ATOM     11  C   UNL     1       1.163   8.430  18.974  0.00  0.00    +0.000 C 
BRANCH  11  12
ATOM     12  C   UNL     1       0.896   9.826  19.517  0.00  0.00    +0.000 A 
ATOM     13  C   UNL     1       1.097  10.930  18.656  0.00  0.00    +0.000 A 
ATOM     14  C   UNL     1       1.005  12.254  19.090  0.00  0.00    +0.000 A 
ATOM     15  C   UNL     1       0.720  12.526  20.418  0.00  0.00    +0.000 A 
ATOM     16  C   UNL     1       0.486  11.468  21.291  0.00  0.00    +0.000 A 
ATOM     17  C   UNL     1       0.553  10.120  20.861  0.00  0.00    +0.000 A 
BRANCH  17  18
ATOM     18  C   UNL     1       0.236   9.083  21.916  0.00  0.00    +0.000 C 
ATOM     19  F   UNL     1      -0.674   8.135  21.579  0.00  0.00    +0.000 F 
ATOM     20  F   UNL     1       1.349   8.397  22.310  0.00  0.00    +0.000 F 
ATOM     21  F   UNL     1      -0.248   9.663  23.056  0.00  0.00    +0.000 F 
ENDBRANCH  17  18
ENDBRANCH  11  12
ENDBRANCH   4   9
BRANCH   1  23
ATOM     22  O   UNL     1       5.764   6.575  15.868  0.00  0.00    +0.000 OA
ATOM     23  C   UNL     1       5.532   5.374  15.976  0.00  0.00    +0.000 C 
BRANCH  23  24
ATOM     24  C   UNL     1       6.362   4.384  15.231  0.00  0.00    +0.000 C 
ATOM     25  C   UNL     1       5.915   3.896  13.873  0.00  0.00    +0.000 C 
ATOM     26  C   UNL     1       7.093   4.817  13.983  0.00  0.00    +0.000 C 
ENDBRANCH  23  24
ENDBRANCH   1  23
TORSDOF 5
ENDMDL
MODEL 2
REMARK VINA RESULT:      -7.6      1.069      1.229
REMARK  Name = 
REMARK  5 active torsions:
REMARK  status: ('A' for Active; 'I' for Inactive)
REMARK    1  A    between atoms: C_2  and  C_3
REMARK    2  A    between atoms: C_2  and  C_6
REMARK    3  A    between atoms: C_9  and  C_11
REMARK    4  A    between atoms: C_13  and  C_14
REMARK    5  A    between atoms: C_19  and  C_20
REMARK                            x       y       z     vdW  Elec       q    Type
REMARK                         _______ _______ _______ _____ _____    ______ ____
ROOT
ATOM      1  C   UNL     1       5.091   4.270  18.243  0.00  0.00    +0.000 C 
ATOM      2  C   UNL     1       4.717   5.294  19.329  0.00  0.00    +0.000 C 
ATOM      3  N   UNL     1       3.367   5.035  19.832  0.00  0.00    +0.000 N 
ATOM      4  C   UNL     1       2.332   5.955  19.950  0.00  0.00    +0.000 C 
ATOM      5  O   UNL     1       1.241   5.652  20.424  0.00  0.00    +0.000 OA
ATOM      6  C   UNL     1       3.175   3.648  20.275  0.00  0.00    +0.000 C 
ATOM      7  C   UNL     1       3.628   2.670  19.181  0.00  0.00    +0.000 C 
ATOM      8  O   UNL     1       4.984   2.940  18.762  0.00  0.00    +0.000 OA
ENDROOT
BRANCH   4   9
ATOM      9  C   UNL     1       2.564   7.369  19.500  0.00  0.00    +0.000 C 
ATOM     10  C   UNL     1       2.512   7.743  18.043  0.00  0.00    +0.000 C 
ATOM     11  C   UNL     1       1.378   8.158  18.940  0.00  0.00    +0.000 C 
BRANCH  11  12
ATOM     12  C   UNL     1       1.158   9.600  19.373  0.00  0.00    +0.000 A 
ATOM     13  C   UNL     1       1.489  10.630  18.462  0.00  0.00    +0.000 A 
ATOM     14  C   UNL     1       1.446  11.983  18.805  0.00  0.00    +0.000 A 
ATOM     15  C   UNL     1       1.083  12.359  20.087  0.00  0.00    +0.000 A 
ATOM     16  C   UNL     1       0.721  11.377  21.004  0.00  0.00    +0.000 A 
ATOM     17  C   UNL     1       0.736  10.002  20.665  0.00  0.00    +0.000 A 
BRANCH  17  18
ATOM     18  C   UNL     1       0.280   9.057  21.756  0.00  0.00    +0.000 C 
ATOM     19  F   UNL     1      -0.639   8.124  21.402  0.00  0.00    +0.000 F 
ATOM     20  F   UNL     1       1.321   8.357  22.296  0.00  0.00    +0.000 F 
ATOM     21  F   UNL     1      -0.276   9.737  22.804  0.00  0.00    +0.000 F 
ENDBRANCH  17  18
ENDBRANCH  11  12
ENDBRANCH   4   9
BRANCH   1  23
ATOM     22  O   UNL     1       7.488   4.449  18.334  0.00  0.00    +0.000 OA
ATOM     23  C   UNL     1       6.459   4.691  17.710  0.00  0.00    +0.000 C 
BRANCH  23  24
ATOM     24  C   UNL     1       6.536   5.308  16.354  0.00  0.00    +0.000 C 
ATOM     25  C   UNL     1       6.619   4.429  15.128  0.00  0.00    +0.000 C 
ATOM     26  C   UNL     1       5.359   5.189  15.415  0.00  0.00    +0.000 C 
ENDBRANCH  23  24
ENDBRANCH   1  23
TORSDOF 5
ENDMDL
MODEL 3
REMARK VINA RESULT:      -7.4      1.564      1.754
REMARK  Name = 
REMARK  5 active torsions:
REMARK  status: ('A' for Active; 'I' for Inactive)
REMARK    1  A    between atoms: C_2  and  C_3
REMARK    2  A    between atoms: C_2  and  C_6
REMARK    3  A    between atoms: C_9  and  C_11
REMARK    4  A    between atoms: C_13  and  C_14
REMARK    5  A    between atoms: C_19  and  C_20
REMARK                            x       y       z     vdW  Elec       q    Type
REMARK                         _______ _______ _______ _____ _____    ______ ____
ROOT
ATOM      1  C   UNL     1       5.343   4.398  18.467  0.00  0.00    +0.000 C 
ATOM      2  C   UNL     1       4.814   5.398  19.511  0.00  0.00    +0.000 C 
ATOM      3  N   UNL     1       3.437   5.068  19.881  0.00  0.00    +0.000 N 
ATOM      4  C   UNL     1       2.350   5.934  19.897  0.00  0.00    +0.000 C 
ATOM      5  O   UNL     1       1.235   5.574  20.263  0.00  0.00    +0.000 OA
ATOM      6  C   UNL     1       3.274   3.671  20.304  0.00  0.00    +0.000 C 
ATOM      7  C   UNL     1       3.879   2.722  19.259  0.00  0.00    +0.000 C 
ATOM      8  O   UNL     1       5.254   3.062  18.974  0.00  0.00    +0.000 OA
ENDROOT
BRANCH   4   9
ATOM      9  C   UNL     1       2.553   7.360  19.471  0.00  0.00    +0.000 C 
ATOM     10  C   UNL     1       2.485   7.758  18.020  0.00  0.00    +0.000 C 
ATOM     11  C   UNL     1       1.348   8.135  18.931  0.00  0.00    +0.000 C 
BRANCH  11  12
ATOM     12  C   UNL     1       1.104   9.565  19.389  0.00  0.00    +0.000 A 
ATOM     13  C   UNL     1       1.407  10.617  18.494  0.00  0.00    +0.000 A 
ATOM     14  C   UNL     1       1.340  11.963  18.861  0.00  0.00    +0.000 A 
ATOM     15  C   UNL     1       0.979  12.310  20.152  0.00  0.00    +0.000 A 
ATOM     16  C   UNL     1       0.644  11.305  21.054  0.00  0.00    +0.000 A 
ATOM     17  C   UNL     1       0.683   9.936  20.691  0.00  0.00    +0.000 A 
BRANCH  17  18
ATOM     18  C   UNL     1       0.254   8.964  21.769  0.00  0.00    +0.000 C 
ATOM     19  F   UNL     1      -0.674   8.040  21.415  0.00  0.00    +0.000 F 
ATOM     20  F   UNL     1       1.308   8.252  22.265  0.00  0.00    +0.000 F 
ATOM     21  F   UNL     1      -0.275   9.618  22.847  0.00  0.00    +0.000 F 
ENDBRANCH  17  18
ENDBRANCH  11  12
ENDBRANCH   4   9
BRANCH   1  23
ATOM     22  O   UNL     1       7.748   4.386  18.543  0.00  0.00    +0.000 OA
ATOM     23  C   UNL     1       6.733   4.889  18.069  0.00  0.00    +0.000 C 
BRANCH  23  24
ATOM     24  C   UNL     1       6.844   5.927  17.003  0.00  0.00    +0.000 C 
ATOM     25  C   UNL     1       6.064   7.216  17.121  0.00  0.00    +0.000 C 
ATOM     26  C   UNL     1       7.552   7.227  17.303  0.00  0.00    +0.000 C 
ENDBRANCH  23  24
ENDBRANCH   1  23
TORSDOF 5
ENDMDL
MODEL 4
REMARK VINA RESULT:      -7.2      3.286      7.493
REMARK  Name = 
REMARK  5 active torsions:
REMARK  status: ('A' for Active; 'I' for Inactive)
REMARK    1  A    between atoms: C_2  and  C_3
REMARK    2  A    between atoms: C_2  and  C_6
REMARK    3  A    between atoms: C_9  and  C_11
REMARK    4  A    between atoms: C_13  and  C_14
REMARK    5  A    between atoms: C_19  and  C_20
REMARK                            x       y       z     vdW  Elec       q    Type
REMARK                         _______ _______ _______ _____ _____    ______ ____
ROOT
ATOM      1  C   UNL     1      -0.470  11.044  19.346  0.00  0.00    +0.000 C 
ATOM      2  C   UNL     1      -0.491   9.524  19.585  0.00  0.00    +0.000 C 
ATOM      3  N   UNL     1       0.382   9.170  20.705  0.00  0.00    +0.000 N 
ATOM      4  C   UNL     1       1.376   8.199  20.710  0.00  0.00    +0.000 C 
ATOM      5  O   UNL     1       2.033   7.944  21.716  0.00  0.00    +0.000 OA
ATOM      6  C   UNL     1       0.092   9.936  21.924  0.00  0.00    +0.000 C 
ATOM      7  C   UNL     1       0.059  11.440  21.614  0.00  0.00    +0.000 C 
ATOM      8  O   UNL     1      -0.859  11.735  20.538  0.00  0.00    +0.000 OA
ENDROOT
BRANCH   4   9
ATOM      9  C   UNL     1       1.639   7.423  19.451  0.00  0.00    +0.000 C 
ATOM     10  C   UNL     1       2.738   7.823  18.503  0.00  0.00    +0.000 C 
ATOM     11  C   UNL     1       2.927   6.601  19.360  0.00  0.00    +0.000 C 
BRANCH  11  12
ATOM     12  C   UNL     1       2.882   5.189  18.795  0.00  0.00    +0.000 A 
ATOM     13  C   UNL     1       3.466   4.954  17.529  0.00  0.00    +0.000 A 
ATOM     14  C   UNL     1       3.367   3.729  16.867  0.00  0.00    +0.000 A 
ATOM     15  C   UNL     1       2.662   2.687  17.445  0.00  0.00    +0.000 A 
ATOM     16  C   UNL     1       2.098   2.867  18.705  0.00  0.00    +0.000 A 
ATOM     17  C   UNL     1       2.210   4.096  19.400  0.00  0.00    +0.000 A 
BRANCH  17  18
ATOM     18  C   UNL     1       1.578   4.127  20.775  0.00  0.00    +0.000 C 
ATOM     19  F   UNL     1       2.349   4.605  21.783  0.00  0.00    +0.000 F 
ATOM     20  F   UNL     1       0.438   4.878  20.798  0.00  0.00    +0.000 F 
ATOM     21  F   UNL     1       1.191   2.877  21.173  0.00  0.00    +0.000 F 
ENDBRANCH  17  18
ENDBRANCH  11  12
ENDBRANCH   4   9
BRANCH   1  23
ATOM     22  O   UNL     1      -1.418  12.418  17.614  0.00  0.00    +0.000 OA
ATOM     23  C   UNL     1      -1.316  11.295  18.100  0.00  0.00    +0.000 C 
BRANCH  23  24
ATOM     24  C   UNL     1      -1.936  10.125  17.413  0.00  0.00    +0.000 C 
ATOM     25  C   UNL     1      -3.438   9.959  17.413  0.00  0.00    +0.000 C 
ATOM     26  C   UNL     1      -2.732  10.343  16.148  0.00  0.00    +0.000 C 
ENDBRANCH  23  24
ENDBRANCH   1  23
TORSDOF 5
ENDMDL
MODEL 5
REMARK VINA RESULT:      -7.2      1.095      1.232
REMARK  Name = 
REMARK  5 active torsions:
REMARK  status: ('A' for Active; 'I' for Inactive)
REMARK    1  A    between atoms: C_2  and  C_3
REMARK    2  A    between atoms: C_2  and  C_6
REMARK    3  A    between atoms: C_9  and  C_11
REMARK    4  A    between atoms: C_13  and  C_14
REMARK    5  A    between atoms: C_19  and  C_20
REMARK                            x       y       z     vdW  Elec       q    Type
REMARK                         _______ _______ _______ _____ _____    ______ ____
ROOT
ATOM      1  C   UNL     1       3.911   4.079  17.357  0.00  0.00    +0.000 C 
ATOM      2  C   UNL     1       4.105   5.064  18.524  0.00  0.00    +0.000 C 
ATOM      3  N   UNL     1       3.008   4.940  19.485  0.00  0.00    +0.000 N 
ATOM      4  C   UNL     1       2.228   5.971  19.994  0.00  0.00    +0.000 C 
ATOM      5  O   UNL     1       1.353   5.773  20.832  0.00  0.00    +0.000 OA
ATOM      6  C   UNL     1       2.797   3.560  19.941  0.00  0.00    +0.000 C 
ATOM      7  C   UNL     1       2.679   2.612  18.739  0.00  0.00    +0.000 C 
ATOM      8  O   UNL     1       3.813   2.740  17.854  0.00  0.00    +0.000 OA
ENDROOT
BRANCH   4   9
ATOM      9  C   UNL     1       2.478   7.373  19.517  0.00  0.00    +0.000 C 
ATOM     10  C   UNL     1       2.394   7.727  18.056  0.00  0.00    +0.000 C 
ATOM     11  C   UNL     1       1.293   8.178  18.978  0.00  0.00    +0.000 C 
BRANCH  11  12
ATOM     12  C   UNL     1       1.116   9.631  19.394  0.00  0.00    +0.000 A 
ATOM     13  C   UNL     1       1.458  10.641  18.465  0.00  0.00    +0.000 A 
ATOM     14  C   UNL     1       1.454  11.999  18.790  0.00  0.00    +0.000 A 
ATOM     15  C   UNL     1       1.120  12.401  20.073  0.00  0.00    +0.000 A 
ATOM     16  C   UNL     1       0.749  11.440  21.008  0.00  0.00    +0.000 A 
ATOM     17  C   UNL     1       0.724  10.060  20.687  0.00  0.00    +0.000 A 
BRANCH  17  18
ATOM     18  C   UNL     1       0.262   9.141  21.797  0.00  0.00    +0.000 C 
ATOM     19  F   UNL     1      -0.639   8.186  21.456  0.00  0.00    +0.000 F 
ATOM     20  F   UNL     1       1.303   8.471  22.374  0.00  0.00    +0.000 F 
ATOM     21  F   UNL     1      -0.320   9.843  22.816  0.00  0.00    +0.000 F 
ENDBRANCH  17  18
ENDBRANCH  11  12
ENDBRANCH   4   9
BRANCH   1  23
ATOM     22  O   UNL     1       4.971   3.980  15.200  0.00  0.00    +0.000 OA
ATOM     23  C   UNL     1       5.037   4.363  16.365  0.00  0.00    +0.000 C 
BRANCH  23  24
ATOM     24  C   UNL     1       6.179   5.215  16.806  0.00  0.00    +0.000 C 
ATOM     25  C   UNL     1       7.469   4.571  17.257  0.00  0.00    +0.000 C 
ATOM     26  C   UNL     1       7.418   5.299  15.947  0.00  0.00    +0.000 C 
ENDBRANCH  23  24
ENDBRANCH   1  23
TORSDOF 5
ENDMDL
MODEL 6
REMARK VINA RESULT:      -7.2      2.230      2.937
REMARK  Name = 
REMARK  5 active torsions:
REMARK  status: ('A' for Active; 'I' for Inactive)
REMARK    1  A    between atoms: C_2  and  C_3
REMARK    2  A    between atoms: C_2  and  C_6
REMARK    3  A    between atoms: C_9  and  C_11
REMARK    4  A    between atoms: C_13  and  C_14
REMARK    5  A    between atoms: C_19  and  C_20
REMARK                            x       y       z     vdW  Elec       q    Type
REMARK                         _______ _______ _______ _____ _____    ______ ____
ROOT
ATOM      1  C   UNL     1       4.420   4.155  17.676  0.00  0.00    +0.000 C 
ATOM      2  C   UNL     1       4.179   4.564  19.141  0.00  0.00    +0.000 C 
ATOM      3  N   UNL     1       2.838   4.161  19.569  0.00  0.00    +0.000 N 
ATOM      4  C   UNL     1       1.886   4.965  20.184  0.00  0.00    +0.000 C 
ATOM      5  O   UNL     1       0.798   4.525  20.546  0.00  0.00    +0.000 OA
ATOM      6  C   UNL     1       2.560   2.740  19.327  0.00  0.00    +0.000 C 
ATOM      7  C   UNL     1       2.882   2.373  17.871  0.00  0.00    +0.000 C 
ATOM      8  O   UNL     1       4.233   2.744  17.521  0.00  0.00    +0.000 OA
ENDROOT
BRANCH   4   9
ATOM      9  C   UNL     1       2.206   6.411  20.430  0.00  0.00    +0.000 C 
ATOM     10  C   UNL     1       2.722   7.295  19.325  0.00  0.00    +0.000 C 
ATOM     11  C   UNL     1       1.304   7.473  19.796  0.00  0.00    +0.000 C 
BRANCH  11  12
ATOM     12  C   UNL     1       0.858   8.673  20.618  0.00  0.00    +0.000 A 
ATOM     13  C   UNL     1       0.635   8.491  22.003  0.00  0.00    +0.000 A 
ATOM     14  C   UNL     1       0.104   9.491  22.820  0.00  0.00    +0.000 A 
ATOM     15  C   UNL     1      -0.243  10.716  22.275  0.00  0.00    +0.000 A 
ATOM     16  C   UNL     1      -0.012  10.945  20.922  0.00  0.00    +0.000 A 
ATOM     17  C   UNL     1       0.549   9.949  20.085  0.00  0.00    +0.000 A 
BRANCH  17  18
ATOM     18  C   UNL     1       0.775  10.361  18.646  0.00  0.00    +0.000 C 
ATOM     19  F   UNL     1       2.045  10.257  18.180  0.00  0.00    +0.000 F 
ATOM     20  F   UNL     1       0.009   9.636  17.779  0.00  0.00    +0.000 F 
ATOM     21  F   UNL     1       0.416  11.663  18.437  0.00  0.00    +0.000 F 
ENDBRANCH  17  18
ENDBRANCH  11  12
ENDBRANCH   4   9
BRANCH   1  23
ATOM     22  O   UNL     1       6.452   4.213  16.390  0.00  0.00    +0.000 OA
ATOM     23  C   UNL     1       5.789   4.713  17.295  0.00  0.00    +0.000 C 
BRANCH  23  24
ATOM     24  C   UNL     1       6.267   5.953  17.972  0.00  0.00    +0.000 C 
ATOM     25  C   UNL     1       7.620   5.971  18.646  0.00  0.00    +0.000 C 
ATOM     26  C   UNL     1       7.413   6.733  17.371  0.00  0.00    +0.000 C 
ENDBRANCH  23  24
ENDBRANCH   1  23
TORSDOF 5
ENDMDL
MODEL 7
REMARK VINA RESULT:      -7.2      1.984      2.557
REMARK  Name = 
REMARK  5 active torsions:
REMARK  status: ('A' for Active; 'I' for Inactive)
REMARK    1  A    between atoms: C_2  and  C_3
REMARK    2  A    between atoms: C_2  and  C_6
REMARK    3  A    between atoms: C_9  and  C_11
REMARK    4  A    between atoms: C_13  and  C_14
REMARK    5  A    between atoms: C_19  and  C_20
REMARK                            x       y       z     vdW  Elec       q    Type
REMARK                         _______ _______ _______ _____ _____    ______ ____
ROOT
ATOM      1  C   UNL     1       4.213   3.963  17.470  0.00  0.00    +0.000 C 
ATOM      2  C   UNL     1       4.116   4.457  18.924  0.00  0.00    +0.000 C 
ATOM      3  N   UNL     1       2.825   4.084  19.505  0.00  0.00    +0.000 N 
ATOM      4  C   UNL     1       1.935   4.924  20.163  0.00  0.00    +0.000 C 
ATOM      5  O   UNL     1       0.889   4.509  20.655  0.00  0.00    +0.000 OA
ATOM      6  C   UNL     1       2.529   2.651  19.375  0.00  0.00    +0.000 C 
ATOM      7  C   UNL     1       2.708   2.199  17.918  0.00  0.00    +0.000 C 
ATOM      8  O   UNL     1       4.017   2.546  17.416  0.00  0.00    +0.000 OA
ENDROOT
BRANCH   4   9
ATOM      9  C   UNL     1       2.273   6.381  20.291  0.00  0.00    +0.000 C 
ATOM     10  C   UNL     1       2.643   7.206  19.086  0.00  0.00    +0.000 C 
ATOM     11  C   UNL     1       1.292   7.408  19.719  0.00  0.00    +0.000 C 
BRANCH  11  12
ATOM     12  C   UNL     1       0.943   8.649  20.526  0.00  0.00    +0.000 A 
ATOM     13  C   UNL     1       0.736   8.507  21.918  0.00  0.00    +0.000 A 
ATOM     14  C   UNL     1       0.288   9.555  22.726  0.00  0.00    +0.000 A 
ATOM     15  C   UNL     1       0.013  10.790  22.164  0.00  0.00    +0.000 A 
ATOM     16  C   UNL     1       0.232  10.979  20.803  0.00  0.00    +0.000 A 
ATOM     17  C   UNL     1       0.709   9.934  19.975  0.00  0.00    +0.000 A 
BRANCH  17  18
ATOM     18  C   UNL     1       0.933  10.303  18.524  0.00  0.00    +0.000 C 
ATOM     19  F   UNL     1       2.203  10.189  18.061  0.00  0.00    +0.000 F 
ATOM     20  F   UNL     1       0.167   9.552  17.680  0.00  0.00    +0.000 F 
ATOM     21  F   UNL     1       0.572  11.599  18.278  0.00  0.00    +0.000 F 
ENDBRANCH  17  18
ENDBRANCH  11  12
ENDBRANCH   4   9
BRANCH   1  23
ATOM     22  O   UNL     1       6.189   5.333  17.540  0.00  0.00    +0.000 OA
ATOM     23  C   UNL     1       5.537   4.494  16.924  0.00  0.00    +0.000 C 
BRANCH  23  24
ATOM     24  C   UNL     1       6.085   3.893  15.674  0.00  0.00    +0.000 C 
ATOM     25  C   UNL     1       5.601   4.381  14.328  0.00  0.00    +0.000 C 
ATOM     26  C   UNL     1       6.988   4.717  14.787  0.00  0.00    +0.000 C 
ENDBRANCH  23  24
ENDBRANCH   1  23
TORSDOF 5
ENDMDL
MODEL 8
REMARK VINA RESULT:      -7.1      1.579      2.029
REMARK  Name = 
REMARK  5 active torsions:
REMARK  status: ('A' for Active; 'I' for Inactive)
REMARK    1  A    between atoms: C_2  and  C_3
REMARK    2  A    between atoms: C_2  and  C_6
REMARK    3  A    between atoms: C_9  and  C_11
REMARK    4  A    between atoms: C_13  and  C_14
REMARK    5  A    between atoms: C_19  and  C_20
REMARK                            x       y       z     vdW  Elec       q    Type
REMARK                         _______ _______ _______ _____ _____    ______ ____
ROOT
ATOM      1  C   UNL     1       4.375   4.281  18.377  0.00  0.00    +0.000 C 
ATOM      2  C   UNL     1       4.315   5.545  19.252  0.00  0.00    +0.000 C 
ATOM      3  N   UNL     1       3.018   5.641  19.924  0.00  0.00    +0.000 N 
ATOM      4  C   UNL     1       2.170   6.741  19.942  0.00  0.00    +0.000 C 
ATOM      5  O   UNL     1       1.115   6.741  20.570  0.00  0.00    +0.000 OA
ATOM      6  C   UNL     1       2.664   4.424  20.666  0.00  0.00    +0.000 C 
ATOM      7  C   UNL     1       2.807   3.188  19.765  0.00  0.00    +0.000 C 
ATOM      8  O   UNL     1       4.122   3.118  19.173  0.00  0.00    +0.000 OA
ENDROOT
BRANCH   4   9
ATOM      9  C   UNL     1       2.567   7.975  19.183  0.00  0.00    +0.000 C 
ATOM     10  C   UNL     1       2.581   7.995  17.678  0.00  0.00    +0.000 C 
ATOM     11  C   UNL     1       1.485   8.728  18.404  0.00  0.00    +0.000 C 
BRANCH  11  12
ATOM     12  C   UNL     1       1.422  10.246  18.476  0.00  0.00    +0.000 A 
ATOM     13  C   UNL     1       2.462  10.990  17.872  0.00  0.00    +0.000 A 
ATOM     14  C   UNL     1       2.566  12.378  17.991  0.00  0.00    +0.000 A 
ATOM     15  C   UNL     1       1.633  13.078  18.737  0.00  0.00    +0.000 A 
ATOM     16  C   UNL     1       0.577  12.386  19.323  0.00  0.00    +0.000 A 
ATOM     17  C   UNL     1       0.444  10.982  19.192  0.00  0.00    +0.000 A 
BRANCH  17  18
ATOM     18  C   UNL     1      -0.776  10.379  19.852  0.00  0.00    +0.000 C 
ATOM     19  F   UNL     1      -0.548   9.405  20.769  0.00  0.00    +0.000 F 
ATOM     20  F   UNL     1      -1.528  11.319  20.497  0.00  0.00    +0.000 F 
ATOM     21  F   UNL     1      -1.617   9.820  18.930  0.00  0.00    +0.000 F 
ENDBRANCH  17  18
ENDBRANCH  11  12
ENDBRANCH   4   9
BRANCH   1  23
ATOM     22  O   UNL     1       6.776   4.353  18.251  0.00  0.00    +0.000 OA
ATOM     23  C   UNL     1       5.711   4.332  17.640  0.00  0.00    +0.000 C 
BRANCH  23  24
ATOM     24  C   UNL     1       5.708   4.245  16.150  0.00  0.00    +0.000 C 
ATOM     25  C   UNL     1       5.572   5.501  15.322  0.00  0.00    +0.000 C 
ATOM     26  C   UNL     1       6.886   4.782  15.373  0.00  0.00    +0.000 C 
ENDBRANCH  23  24
ENDBRANCH   1  23
TORSDOF 5
ENDMDL
MODEL 9
REMARK VINA RESULT:      -7.1      1.437      1.853
REMARK  Name = 
REMARK  5 active torsions:
REMARK  status: ('A' for Active; 'I' for Inactive)
REMARK    1  A    between atoms: C_2  and  C_3
REMARK    2  A    between atoms: C_2  and  C_6
REMARK    3  A    between atoms: C_9  and  C_11
REMARK    4  A    between atoms: C_13  and  C_14
REMARK    5  A    between atoms: C_19  and  C_20
REMARK                            x       y       z     vdW  Elec       q    Type
REMARK                         _______ _______ _______ _____ _____    ______ ____
ROOT
ATOM      1  C   UNL     1       4.647   4.556  18.163  0.00  0.00    +0.000 C 
ATOM      2  C   UNL     1       4.376   5.521  19.331  0.00  0.00    +0.000 C 
ATOM      3  N   UNL     1       3.073   5.240  19.934  0.00  0.00    +0.000 N 
ATOM      4  C   UNL     1       2.060   6.157  20.190  0.00  0.00    +0.000 C 
ATOM      5  O   UNL     1       1.011   5.833  20.740  0.00  0.00    +0.000 OA
ATOM      6  C   UNL     1       2.907   3.832  20.316  0.00  0.00    +0.000 C 
ATOM      7  C   UNL     1       3.255   2.913  19.135  0.00  0.00    +0.000 C 
ATOM      8  O   UNL     1       4.572   3.199  18.616  0.00  0.00    +0.000 OA
ENDROOT
BRANCH   4   9
ATOM      9  C   UNL     1       2.266   7.592  19.799  0.00  0.00    +0.000 C 
ATOM     10  C   UNL     1       2.275   8.014  18.354  0.00  0.00    +0.000 C 
ATOM     11  C   UNL     1       1.082   8.360  19.204  0.00  0.00    +0.000 C 
BRANCH  11  12
ATOM     12  C   UNL     1       0.791   9.778  19.671  0.00  0.00    +0.000 A 
ATOM     13  C   UNL     1       1.066  10.845  18.784  0.00  0.00    +0.000 A 
ATOM     14  C   UNL     1       0.956  12.186  19.159  0.00  0.00    +0.000 A 
ATOM     15  C   UNL     1       0.578  12.513  20.451  0.00  0.00    +0.000 A 
ATOM     16  C   UNL     1       0.270  11.492  21.345  0.00  0.00    +0.000 A 
ATOM     17  C   UNL     1       0.353  10.128  20.973  0.00  0.00    +0.000 A 
BRANCH  17  18
ATOM     18  C   UNL     1      -0.050   9.135  22.042  0.00  0.00    +0.000 C 
ATOM     19  F   UNL     1      -0.728   9.635  23.106  0.00  0.00    +0.000 F 
ATOM     20  F   UNL     1      -0.837   8.137  21.544  0.00  0.00    +0.000 F 
ATOM     21  F   UNL     1       1.040   8.502  22.571  0.00  0.00    +0.000 F 
ENDBRANCH  17  18
ENDBRANCH  11  12
ENDBRANCH   4   9
BRANCH   1  23
ATOM     22  O   UNL     1       6.551   4.297  16.716  0.00  0.00    +0.000 OA
ATOM     23  C   UNL     1       5.968   4.999  17.537  0.00  0.00    +0.000 C 
BRANCH  23  24
ATOM     24  C   UNL     1       6.488   6.359  17.861  0.00  0.00    +0.000 C 
ATOM     25  C   UNL     1       7.841   6.512  18.516  0.00  0.00    +0.000 C 
ATOM     26  C   UNL     1       7.659   6.910  17.082  0.00  0.00    +0.000 C 
ENDBRANCH  23  24
ENDBRANCH   1  23
TORSDOF 5
ENDMDL
