MODEL 1
REMARK VINA RESULT:      -6.5      0.000      0.000
REMARK  Name = 
REMARK  15 active torsions:
REMARK  status: ('A' for Active; 'I' for Inactive)
REMARK    1  A    between atoms: C_1  and  C_2
REMARK    2  A    between atoms: C_2  and  C_3
REMARK    3  A    between atoms: C_3  and  C_4
REMARK    4  A    between atoms: C_4  and  C_5
REMARK    5  A    between atoms: N_7  and  C_8
REMARK    6  A    between atoms: C_9  and  C_10
REMARK    7  A    between atoms: N_12  and  C_13
REMARK    8  A    between atoms: C_13  and  C_14
REMARK    9  A    between atoms: C_13  and  C_17
REMARK   10  A    between atoms: C_14  and  C_15
REMARK   11  A    between atoms: C_19  and  S_20
REMARK   12  A    between atoms: S_20  and  C_21
REMARK   13  A    between atoms: C_22  and  O_23
REMARK   14  A    between atoms: C_24  and  O_25
REMARK   15  A    between atoms: C_26  and  O_27
REMARK                            x       y       z     vdW  Elec       q    Type
REMARK                         _______ _______ _______ _____ _____    ______ ____
ROOT
ATOM      1  C   UNL     1       5.989   4.769  17.833  0.00  0.00    +0.000 C 
ENDROOT
BRANCH   1   2
ATOM      2  C   UNL     1       4.574   4.368  18.383  0.00  0.00    +0.000 C 
ATOM      3  O   UNL     1       3.563   5.067  17.610  0.00  0.00    +0.000 OA
ATOM      4  C   UNL     1       2.224   4.927  18.127  0.00  0.00    +0.000 C 
ATOM      5  C   UNL     1       1.805   3.442  18.138  0.00  0.00    +0.000 C 
ATOM      6  C   UNL     1       2.847   2.594  18.873  0.00  0.00    +0.000 C 
ATOM      7  C   UNL     1       4.259   2.858  18.329  0.00  0.00    +0.000 C 
BRANCH   4   8
ATOM      8  S   UNL     1       2.015   5.765  19.749  0.00  0.00    +0.000 S 
ATOM      9  C   UNL     1       2.365   7.457  19.229  0.00  0.00    +0.000 C 
ENDBRANCH   4   8
BRANCH   5  10
ATOM     10  O   UNL     1       0.501   3.224  18.689  0.00  0.00    +0.000 OA
ATOM     11  H   UNL     1      -0.132   3.499  17.996  0.00  0.00    +0.000 HD
ENDBRANCH   5  10
BRANCH   6  12
ATOM     12  O   UNL     1       2.499   1.207  18.720  0.00  0.00    +0.000 OA
ATOM     13  H   UNL     1       2.520   1.024  17.759  0.00  0.00    +0.000 HD
ENDBRANCH   6  12
BRANCH   7  14
ATOM     14  O   UNL     1       4.337   2.359  16.983  0.00  0.00    +0.000 OA
ATOM     15  H   UNL     1       4.237   1.386  17.014  0.00  0.00    +0.000 HD
ENDBRANCH   7  14
ENDBRANCH   1   2
BRANCH   1  18
ATOM     16  C   UNL     1       6.916   4.768  15.449  0.00  0.00    +0.000 C 
ATOM     17  O   UNL     1       8.054   4.471  15.833  0.00  0.00    +0.000 OA
ATOM     18  N   UNL     1       5.896   4.972  16.357  0.00  0.00    +0.000 N 
ATOM     19  H   UNL     1       5.003   5.239  15.946  0.00  0.00    +0.000 HD
BRANCH  16  24
ATOM     20  C   UNL     1       5.842   3.620  13.243  0.00  0.00    +0.000 C 
ATOM     21  C   UNL     1       7.197   3.424  12.531  0.00  0.00    +0.000 C 
ATOM     22  N   UNL     1       7.650   4.760  12.957  0.00  0.00    +0.000 NA
ATOM     23  C   UNL     1       7.501   5.715  11.854  0.00  0.00    +0.000 C 
ATOM     24  C   UNL     1       6.499   4.873  13.912  0.00  0.00    +0.000 C 
BRANCH  20  25
ATOM     25  C   UNL     1       4.583   3.886  12.402  0.00  0.00    +0.000 C 
BRANCH  25  26
ATOM     26  C   UNL     1       4.431   2.951  11.196  0.00  0.00    +0.000 C 
BRANCH  26  28
ATOM     27  C   UNL     1       2.989   4.316   9.647  0.00  0.00    +0.000 C 
ATOM     28  C   UNL     1       3.081   3.054  10.493  0.00  0.00    +0.000 C 
ENDBRANCH  26  28
ENDBRANCH  25  26
ENDBRANCH  20  25
ENDBRANCH  16  24
ENDBRANCH   1  18
BRANCH   1  29
ATOM     29  C   UNL     1       6.546   6.021  18.574  0.00  0.00    +0.000 C 
ATOM     30  C   UNL     1       7.867   5.814  19.309  0.00  0.00    +0.000 C 
ATOM     31 CL   UNL     1       6.669   7.428  17.460  0.00  0.00    +0.000 Cl
ENDBRANCH   1  29
TORSDOF 11
ENDMDL
MODEL 2
REMARK VINA RESULT:      -6.2      4.036      7.885
REMARK  Name = 
REMARK  15 active torsions:
REMARK  status: ('A' for Active; 'I' for Inactive)
REMARK    1  A    between atoms: C_1  and  C_2
REMARK    2  A    between atoms: C_2  and  C_3
REMARK    3  A    between atoms: C_3  and  C_4
REMARK    4  A    between atoms: C_4  and  C_5
REMARK    5  A    between atoms: N_7  and  C_8
REMARK    6  A    between atoms: C_9  and  C_10
REMARK    7  A    between atoms: N_12  and  C_13
REMARK    8  A    between atoms: C_13  and  C_14
REMARK    9  A    between atoms: C_13  and  C_17
REMARK   10  A    between atoms: C_14  and  C_15
REMARK   11  A    between atoms: C_19  and  S_20
REMARK   12  A    between atoms: S_20  and  C_21
REMARK   13  A    between atoms: C_22  and  O_23
REMARK   14  A    between atoms: C_24  and  O_25
REMARK   15  A    between atoms: C_26  and  O_27
REMARK                            x       y       z     vdW  Elec       q    Type
REMARK                         _______ _______ _______ _____ _____    ______ ____
ROOT
ATOM      1  C   UNL     1       3.201   5.311  19.604  0.00  0.00    +0.000 C 
ENDROOT
BRANCH   1   2
ATOM      2  C   UNL     1       4.309   5.293  18.492  0.00  0.00    +0.000 C 
ATOM      3  O   UNL     1       5.594   5.553  19.116  0.00  0.00    +0.000 OA
ATOM      4  C   UNL     1       6.676   5.741  18.182  0.00  0.00    +0.000 C 
ATOM      5  C   UNL     1       6.867   4.478  17.317  0.00  0.00    +0.000 C 
ATOM      6  C   UNL     1       5.545   4.069  16.663  0.00  0.00    +0.000 C 
ATOM      7  C   UNL     1       4.418   3.972  17.703  0.00  0.00    +0.000 C 
BRANCH   4   8
ATOM      8  S   UNL     1       6.487   7.285  17.202  0.00  0.00    +0.000 S 
ATOM      9  C   UNL     1       7.965   8.151  17.768  0.00  0.00    +0.000 C 
ENDBRANCH   4   8
BRANCH   5  10
ATOM     10  O   UNL     1       7.895   4.614  16.330  0.00  0.00    +0.000 OA
ATOM     11  H   UNL     1       7.753   5.488  15.914  0.00  0.00    +0.000 HD
ENDBRANCH   5  10
BRANCH   6  12
ATOM     12  O   UNL     1       5.731   2.806  16.002  0.00  0.00    +0.000 OA
ATOM     13  H   UNL     1       5.102   2.183  16.419  0.00  0.00    +0.000 HD
ENDBRANCH   6  12
BRANCH   7  14
ATOM     14  O   UNL     1       4.693   2.865  18.579  0.00  0.00    +0.000 OA
ATOM     15  H   UNL     1       3.851   2.594  18.998  0.00  0.00    +0.000 HD
ENDBRANCH   7  14
ENDBRANCH   1   2
BRANCH   1  18
ATOM     16  C   UNL     1       2.557   7.645  18.781  0.00  0.00    +0.000 C 
ATOM     17  O   UNL     1       2.902   7.391  17.621  0.00  0.00    +0.000 OA
ATOM     18  N   UNL     1       2.719   6.712  19.786  0.00  0.00    +0.000 N 
ATOM     19  H   UNL     1       2.431   7.023  20.711  0.00  0.00    +0.000 HD
BRANCH  16  24
ATOM     20  C   UNL     1       0.298   8.984  19.446  0.00  0.00    +0.000 C 
ATOM     21  C   UNL     1       0.197   9.736  18.102  0.00  0.00    +0.000 C 
ATOM     22  N   UNL     1       1.650   9.981  18.093  0.00  0.00    +0.000 NA
ATOM     23  C   UNL     1       1.930  11.349  18.542  0.00  0.00    +0.000 C 
ATOM     24  C   UNL     1       1.846   9.006  19.217  0.00  0.00    +0.000 C 
BRANCH  20  25
ATOM     25  C   UNL     1      -0.205   9.668  20.728  0.00  0.00    +0.000 C 
BRANCH  25  26
ATOM     26  C   UNL     1       0.473   9.165  22.009  0.00  0.00    +0.000 C 
BRANCH  26  28
ATOM     27  C   UNL     1      -1.107  10.822  23.058  0.00  0.00    +0.000 C 
ATOM     28  C   UNL     1      -0.216   9.611  23.295  0.00  0.00    +0.000 C 
ENDBRANCH  26  28
ENDBRANCH  25  26
ENDBRANCH  20  25
ENDBRANCH  16  24
ENDBRANCH   1  18
BRANCH   1  29
ATOM     29  C   UNL     1       2.047   4.321  19.264  0.00  0.00    +0.000 C 
ATOM     30  C   UNL     1       0.931   4.233  20.302  0.00  0.00    +0.000 C 
ATOM     31 CL   UNL     1       1.358   4.669  17.639  0.00  0.00    +0.000 Cl
ENDBRANCH   1  29
TORSDOF 11
ENDMDL
MODEL 3
REMARK VINA RESULT:      -5.9      1.917      2.672
REMARK  Name = 
REMARK  15 active torsions:
REMARK  status: ('A' for Active; 'I' for Inactive)
REMARK    1  A    between atoms: C_1  and  C_2
REMARK    2  A    between atoms: C_2  and  C_3
REMARK    3  A    between atoms: C_3  and  C_4
REMARK    4  A    between atoms: C_4  and  C_5
REMARK    5  A    between atoms: N_7  and  C_8
REMARK    6  A    between atoms: C_9  and  C_10
REMARK    7  A    between atoms: N_12  and  C_13
REMARK    8  A    between atoms: C_13  and  C_14
REMARK    9  A    between atoms: C_13  and  C_17
REMARK   10  A    between atoms: C_14  and  C_15
REMARK   11  A    between atoms: C_19  and  S_20
REMARK   12  A    between atoms: S_20  and  C_21
REMARK   13  A    between atoms: C_22  and  O_23
REMARK   14  A    between atoms: C_24  and  O_25
REMARK   15  A    between atoms: C_26  and  O_27
REMARK                            x       y       z     vdW  Elec       q    Type
REMARK                         _______ _______ _______ _____ _____    ______ ____
ROOT
ATOM      1  C   UNL     1       3.918   5.926  18.165  0.00  0.00    +0.000 C 
ENDROOT
BRANCH   1   2
ATOM      2  C   UNL     1       3.556   4.484  18.669  0.00  0.00    +0.000 C 
ATOM      3  O   UNL     1       3.150   3.684  17.527  0.00  0.00    +0.000 OA
ATOM      4  C   UNL     1       2.619   2.389  17.872  0.00  0.00    +0.000 C 
ATOM      5  C   UNL     1       3.678   1.556  18.624  0.00  0.00    +0.000 C 
ATOM      6  C   UNL     1       4.231   2.340  19.817  0.00  0.00    +0.000 C 
ATOM      7  C   UNL     1       4.698   3.740  19.392  0.00  0.00    +0.000 C 
BRANCH   4   8
ATOM      8  S   UNL     1       1.012   2.510  18.757  0.00  0.00    +0.000 S 
ATOM      9  C   UNL     1       1.630   2.467  20.452  0.00  0.00    +0.000 C 
ENDBRANCH   4   8
BRANCH   5  10
ATOM     10  O   UNL     1       3.200   0.274  19.043  0.00  0.00    +0.000 OA
ATOM     11  H   UNL     1       3.831  -0.380  18.682  0.00  0.00    +0.000 HD
ENDBRANCH   5  10
BRANCH   6  12
ATOM     12  O   UNL     1       5.321   1.596  20.388  0.00  0.00    +0.000 OA
ATOM     13  H   UNL     1       5.538   2.035  21.236  0.00  0.00    +0.000 HD
ENDBRANCH   6  12
BRANCH   7  14
ATOM     14  O   UNL     1       5.849   3.605  18.542  0.00  0.00    +0.000 OA
ATOM     15  H   UNL     1       6.069   2.653  18.477  0.00  0.00    +0.000 HD
ENDBRANCH   7  14
ENDBRANCH   1   2
BRANCH   1  18
ATOM     16  C   UNL     1       5.741   5.931  16.372  0.00  0.00    +0.000 C 
ATOM     17  O   UNL     1       6.627   6.192  17.195  0.00  0.00    +0.000 OA
ATOM     18  N   UNL     1       4.420   5.838  16.763  0.00  0.00    +0.000 N 
ATOM     19  H   UNL     1       3.762   5.646  16.009  0.00  0.00    +0.000 HD
BRANCH  16  24
ATOM     20  C   UNL     1       5.455   4.281  14.243  0.00  0.00    +0.000 C 
ATOM     21  C   UNL     1       6.907   3.762  14.289  0.00  0.00    +0.000 C 
ATOM     22  N   UNL     1       7.416   5.118  14.560  0.00  0.00    +0.000 NA
ATOM     23  C   UNL     1       7.941   5.712  13.325  0.00  0.00    +0.000 C 
ATOM     24  C   UNL     1       6.026   5.612  14.834  0.00  0.00    +0.000 C 
BRANCH  20  25
ATOM     25  C   UNL     1       4.741   4.396  12.886  0.00  0.00    +0.000 C 
BRANCH  25  26
ATOM     26  C   UNL     1       5.074   3.262  11.909  0.00  0.00    +0.000 C 
BRANCH  26  28
ATOM     27  C   UNL     1       3.352   3.958  10.208  0.00  0.00    +0.000 C 
ATOM     28  C   UNL     1       3.897   2.813  11.050  0.00  0.00    +0.000 C 
ENDBRANCH  26  28
ENDBRANCH  25  26
ENDBRANCH  20  25
ENDBRANCH  16  24
ENDBRANCH   1  18
BRANCH   1  29
ATOM     29  C   UNL     1       2.704   6.892  18.306  0.00  0.00    +0.000 C 
ATOM     30  C   UNL     1       2.203   7.114  19.731  0.00  0.00    +0.000 C 
ATOM     31 CL   UNL     1       3.043   8.471  17.514  0.00  0.00    +0.000 Cl
ENDBRANCH   1  29
TORSDOF 11
ENDMDL
MODEL 4
REMARK VINA RESULT:      -5.9      2.920      5.096
REMARK  Name = 
REMARK  15 active torsions:
REMARK  status: ('A' for Active; 'I' for Inactive)
REMARK    1  A    between atoms: C_1  and  C_2
REMARK    2  A    between atoms: C_2  and  C_3
REMARK    3  A    between atoms: C_3  and  C_4
REMARK    4  A    between atoms: C_4  and  C_5
REMARK    5  A    between atoms: N_7  and  C_8
REMARK    6  A    between atoms: C_9  and  C_10
REMARK    7  A    between atoms: N_12  and  C_13
REMARK    8  A    between atoms: C_13  and  C_14
REMARK    9  A    between atoms: C_13  and  C_17
REMARK   10  A    between atoms: C_14  and  C_15
REMARK   11  A    between atoms: C_19  and  S_20
REMARK   12  A    between atoms: S_20  and  C_21
REMARK   13  A    between atoms: C_22  and  O_23
REMARK   14  A    between atoms: C_24  and  O_25
REMARK   15  A    between atoms: C_26  and  O_27
REMARK                            x       y       z     vdW  Elec       q    Type
REMARK                         _______ _______ _______ _____ _____    ______ ____
ROOT
ATOM      1  C   UNL     1       2.332   5.458  18.967  0.00  0.00    +0.000 C 
ENDROOT
BRANCH   1   2
ATOM      2  C   UNL     1       1.682   6.870  19.180  0.00  0.00    +0.000 C 
ATOM      3  O   UNL     1       2.191   7.430  20.419  0.00  0.00    +0.000 OA
ATOM      4  C   UNL     1       1.539   8.650  20.827  0.00  0.00    +0.000 C 
ATOM      5  C   UNL     1       1.724   9.744  19.754  0.00  0.00    +0.000 C 
ATOM      6  C   UNL     1       1.282   9.232  18.382  0.00  0.00    +0.000 C 
ATOM      7  C   UNL     1       1.948   7.888  18.050  0.00  0.00    +0.000 C 
BRANCH   4   8
ATOM      8  S   UNL     1      -0.215   8.375  21.304  0.00  0.00    +0.000 S 
ATOM      9  C   UNL     1      -0.240   9.350  22.823  0.00  0.00    +0.000 C 
ENDBRANCH   4   8
BRANCH   5  10
ATOM     10  O   UNL     1       1.057  10.970  20.072  0.00  0.00    +0.000 OA
ATOM     11  H   UNL     1       1.748  11.571  20.415  0.00  0.00    +0.000 HD
ENDBRANCH   5  10
BRANCH   6  12
ATOM     12  O   UNL     1       1.620  10.219  17.393  0.00  0.00    +0.000 OA
ATOM     13  H   UNL     1       1.923   9.725  16.604  0.00  0.00    +0.000 HD
ENDBRANCH   6  12
BRANCH   7  14
ATOM     14  O   UNL     1       3.358   8.103  17.868  0.00  0.00    +0.000 OA
ATOM     15  H   UNL     1       3.594   7.819  16.962  0.00  0.00    +0.000 HD
ENDBRANCH   7  14
ENDBRANCH   1   2
BRANCH   1  18
ATOM     16  C   UNL     1       4.183   4.864  17.305  0.00  0.00    +0.000 C 
ATOM     17  O   UNL     1       3.563   3.880  16.882  0.00  0.00    +0.000 OA
ATOM     18  N   UNL     1       3.672   5.631  18.334  0.00  0.00    +0.000 N 
ATOM     19  H   UNL     1       4.267   6.402  18.630  0.00  0.00    +0.000 HD
BRANCH  16  24
ATOM     20  C   UNL     1       6.551   4.311  16.113  0.00  0.00    +0.000 C 
ATOM     21  C   UNL     1       7.394   4.576  17.378  0.00  0.00    +0.000 C 
ATOM     22  N   UNL     1       6.587   5.764  17.706  0.00  0.00    +0.000 NA
ATOM     23  C   UNL     1       7.295   6.981  17.293  0.00  0.00    +0.000 C 
ATOM     24  C   UNL     1       5.559   5.379  16.683  0.00  0.00    +0.000 C 
BRANCH  20  25
ATOM     25  C   UNL     1       7.153   4.618  14.732  0.00  0.00    +0.000 C 
BRANCH  25  26
ATOM     26  C   UNL     1       6.129   4.611  13.590  0.00  0.00    +0.000 C 
BRANCH  26  28
ATOM     27  C   UNL     1       5.070   3.162  11.823  0.00  0.00    +0.000 C 
ATOM     28  C   UNL     1       6.358   3.516  12.553  0.00  0.00    +0.000 C 
ENDBRANCH  26  28
ENDBRANCH  25  26
ENDBRANCH  20  25
ENDBRANCH  16  24
ENDBRANCH   1  18
BRANCH   1  29
ATOM     29  C   UNL     1       2.401   4.663  20.305  0.00  0.00    +0.000 C 
ATOM     30  C   UNL     1       1.092   4.021  20.756  0.00  0.00    +0.000 C 
ATOM     31 CL   UNL     1       3.711   3.431  20.255  0.00  0.00    +0.000 Cl
ENDBRANCH   1  29
TORSDOF 11
ENDMDL
MODEL 5
REMARK VINA RESULT:      -5.9      4.009      8.291
REMARK  Name = 
REMARK  15 active torsions:
REMARK  status: ('A' for Active; 'I' for Inactive)
REMARK    1  A    between atoms: C_1  and  C_2
REMARK    2  A    between atoms: C_2  and  C_3
REMARK    3  A    between atoms: C_3  and  C_4
REMARK    4  A    between atoms: C_4  and  C_5
REMARK    5  A    between atoms: N_7  and  C_8
REMARK    6  A    between atoms: C_9  and  C_10
REMARK    7  A    between atoms: N_12  and  C_13
REMARK    8  A    between atoms: C_13  and  C_14
REMARK    9  A    between atoms: C_13  and  C_17
REMARK   10  A    between atoms: C_14  and  C_15
REMARK   11  A    between atoms: C_19  and  S_20
REMARK   12  A    between atoms: S_20  and  C_21
REMARK   13  A    between atoms: C_22  and  O_23
REMARK   14  A    between atoms: C_24  and  O_25
REMARK   15  A    between atoms: C_26  and  O_27
REMARK                            x       y       z     vdW  Elec       q    Type
REMARK                         _______ _______ _______ _____ _____    ______ ____
ROOT
ATOM      1  C   UNL     1       3.054   5.619  19.240  0.00  0.00    +0.000 C 
ENDROOT
BRANCH   1   2
ATOM      2  C   UNL     1       4.292   5.493  18.283  0.00  0.00    +0.000 C 
ATOM      3  O   UNL     1       5.502   5.651  19.069  0.00  0.00    +0.000 OA
ATOM      4  C   UNL     1       6.709   5.736  18.284  0.00  0.00    +0.000 C 
ATOM      5  C   UNL     1       6.902   4.449  17.454  0.00  0.00    +0.000 C 
ATOM      6  C   UNL     1       5.646   4.145  16.633  0.00  0.00    +0.000 C 
ATOM      7  C   UNL     1       4.390   4.157  17.517  0.00  0.00    +0.000 C 
BRANCH   4   8
ATOM      8  S   UNL     1       6.781   7.276  17.284  0.00  0.00    +0.000 S 
ATOM      9  C   UNL     1       8.161   8.082  18.122  0.00  0.00    +0.000 C 
ENDBRANCH   4   8
BRANCH   5  10
ATOM     10  O   UNL     1       8.057   4.486  16.610  0.00  0.00    +0.000 OA
ATOM     11  H   UNL     1       8.423   3.579  16.616  0.00  0.00    +0.000 HD
ENDBRANCH   5  10
BRANCH   6  12
ATOM     12  O   UNL     1       5.809   2.862  16.005  0.00  0.00    +0.000 OA
ATOM     13  H   UNL     1       6.654   2.499  16.339  0.00  0.00    +0.000 HD
ENDBRANCH   6  12
BRANCH   7  14
ATOM     14  O   UNL     1       4.452   3.043  18.424  0.00  0.00    +0.000 OA
ATOM     15  H   UNL     1       3.895   2.325  18.061  0.00  0.00    +0.000 HD
ENDBRANCH   7  14
ENDBRANCH   1   2
BRANCH   1  18
ATOM     16  C   UNL     1       1.822   7.692  20.090  0.00  0.00    +0.000 C 
ATOM     17  O   UNL     1       1.604   7.178  21.194  0.00  0.00    +0.000 OA
ATOM     18  N   UNL     1       2.467   6.983  19.096  0.00  0.00    +0.000 N 
ATOM     19  H   UNL     1       2.575   7.482  18.215  0.00  0.00    +0.000 HD
BRANCH  16  24
ATOM     20  C   UNL     1      -0.053   9.614  19.731  0.00  0.00    +0.000 C 
ATOM     21  C   UNL     1       0.056   9.610  18.192  0.00  0.00    +0.000 C 
ATOM     22  N   UNL     1       1.525   9.516  18.264  0.00  0.00    +0.000 NA
ATOM     23  C   UNL     1       2.123  10.838  18.045  0.00  0.00    +0.000 C 
ATOM     24  C   UNL     1       1.457   9.204  19.730  0.00  0.00    +0.000 C 
BRANCH  20  25
ATOM     25  C   UNL     1      -0.396  10.925  20.456  0.00  0.00    +0.000 C 
BRANCH  25  26
ATOM     26  C   UNL     1      -0.507  10.785  21.980  0.00  0.00    +0.000 C 
BRANCH  26  28
ATOM     27  C   UNL     1      -2.416  11.964  23.123  0.00  0.00    +0.000 C 
ATOM     28  C   UNL     1      -0.958  12.055  22.692  0.00  0.00    +0.000 C 
ENDBRANCH  26  28
ENDBRANCH  25  26
ENDBRANCH  20  25
ENDBRANCH  16  24
ENDBRANCH   1  18
BRANCH   1  29
ATOM     29  C   UNL     1       2.016   4.490  18.969  0.00  0.00    +0.000 C 
ATOM     30  C   UNL     1       1.077   4.169  20.129  0.00  0.00    +0.000 C 
ATOM     31 CL   UNL     1       1.068   4.830  17.479  0.00  0.00    +0.000 Cl
ENDBRANCH   1  29
TORSDOF 11
ENDMDL
MODEL 6
REMARK VINA RESULT:      -5.8      1.470      2.062
REMARK  Name = 
REMARK  15 active torsions:
REMARK  status: ('A' for Active; 'I' for Inactive)
REMARK    1  A    between atoms: C_1  and  C_2
REMARK    2  A    between atoms: C_2  and  C_3
REMARK    3  A    between atoms: C_3  and  C_4
REMARK    4  A    between atoms: C_4  and  C_5
REMARK    5  A    between atoms: N_7  and  C_8
REMARK    6  A    between atoms: C_9  and  C_10
REMARK    7  A    between atoms: N_12  and  C_13
REMARK    8  A    between atoms: C_13  and  C_14
REMARK    9  A    between atoms: C_13  and  C_17
REMARK   10  A    between atoms: C_14  and  C_15
REMARK   11  A    between atoms: C_19  and  S_20
REMARK   12  A    between atoms: S_20  and  C_21
REMARK   13  A    between atoms: C_22  and  O_23
REMARK   14  A    between atoms: C_24  and  O_25
REMARK   15  A    between atoms: C_26  and  O_27
REMARK                            x       y       z     vdW  Elec       q    Type
REMARK                         _______ _______ _______ _____ _____    ______ ____
ROOT
ATOM      1  C   UNL     1       5.857   4.524  17.542  0.00  0.00    +0.000 C 
ENDROOT
BRANCH   1   2
ATOM      2  C   UNL     1       4.469   3.978  18.029  0.00  0.00    +0.000 C 
ATOM      3  O   UNL     1       4.317   4.294  19.438  0.00  0.00    +0.000 OA
ATOM      4  C   UNL     1       3.162   3.692  20.058  0.00  0.00    +0.000 C 
ATOM      5  C   UNL     1       1.869   4.175  19.368  0.00  0.00    +0.000 C 
ATOM      6  C   UNL     1       1.950   3.954  17.856  0.00  0.00    +0.000 C 
ATOM      7  C   UNL     1       3.245   4.544  17.278  0.00  0.00    +0.000 C 
BRANCH   4   8
ATOM      8  S   UNL     1       3.304   1.862  20.160  0.00  0.00    +0.000 S 
ATOM      9  C   UNL     1       4.972   1.755  20.840  0.00  0.00    +0.000 C 
ENDBRANCH   4   8
BRANCH   5  10
ATOM     10  O   UNL     1       0.683   3.576  19.901  0.00  0.00    +0.000 OA
ATOM     11  H   UNL     1       0.929   2.661  20.141  0.00  0.00    +0.000 HD
ENDBRANCH   5  10
BRANCH   6  12
ATOM     12  O   UNL     1       0.801   4.561  17.241  0.00  0.00    +0.000 OA
ATOM     13  H   UNL     1       1.131   5.350  16.764  0.00  0.00    +0.000 HD
ENDBRANCH   6  12
BRANCH   7  14
ATOM     14  O   UNL     1       3.188   5.977  17.385  0.00  0.00    +0.000 OA
ATOM     15  H   UNL     1       3.871   6.353  16.793  0.00  0.00    +0.000 HD
ENDBRANCH   7  14
ENDBRANCH   1   2
BRANCH   1  18
ATOM     16  C   UNL     1       6.834   4.658  15.182  0.00  0.00    +0.000 C 
ATOM     17  O   UNL     1       7.975   4.390  15.580  0.00  0.00    +0.000 OA
ATOM     18  N   UNL     1       5.788   4.785  16.074  0.00  0.00    +0.000 N 
ATOM     19  H   UNL     1       4.894   5.033  15.654  0.00  0.00    +0.000 HD
BRANCH  16  24
ATOM     20  C   UNL     1       5.816   3.575  12.918  0.00  0.00    +0.000 C 
ATOM     21  C   UNL     1       7.186   3.417  12.227  0.00  0.00    +0.000 C 
ATOM     22  N   UNL     1       7.617   4.741  12.706  0.00  0.00    +0.000 NA
ATOM     23  C   UNL     1       7.479   5.732  11.633  0.00  0.00    +0.000 C 
ATOM     24  C   UNL     1       6.446   4.811  13.642  0.00  0.00    +0.000 C 
BRANCH  20  25
ATOM     25  C   UNL     1       4.570   3.856  12.062  0.00  0.00    +0.000 C 
BRANCH  25  26
ATOM     26  C   UNL     1       4.288   2.785  11.001  0.00  0.00    +0.000 C 
BRANCH  26  28
ATOM     27  C   UNL     1       2.878   4.265   9.530  0.00  0.00    +0.000 C 
ATOM     28  C   UNL     1       2.949   2.948  10.290  0.00  0.00    +0.000 C 
ENDBRANCH  26  28
ENDBRANCH  25  26
ENDBRANCH  20  25
ENDBRANCH  16  24
ENDBRANCH   1  18
BRANCH   1  29
ATOM     29  C   UNL     1       6.283   5.784  18.353  0.00  0.00    +0.000 C 
ATOM     30  C   UNL     1       7.602   5.663  19.111  0.00  0.00    +0.000 C 
ATOM     31 CL   UNL     1       6.299   7.248  17.308  0.00  0.00    +0.000 Cl
ENDBRANCH   1  29
TORSDOF 11
ENDMDL
MODEL 7
REMARK VINA RESULT:      -5.8      4.165      8.329
REMARK  Name = 
REMARK  15 active torsions:
REMARK  status: ('A' for Active; 'I' for Inactive)
REMARK    1  A    between atoms: C_1  and  C_2
REMARK    2  A    between atoms: C_2  and  C_3
REMARK    3  A    between atoms: C_3  and  C_4
REMARK    4  A    between atoms: C_4  and  C_5
REMARK    5  A    between atoms: N_7  and  C_8
REMARK    6  A    between atoms: C_9  and  C_10
REMARK    7  A    between atoms: N_12  and  C_13
REMARK    8  A    between atoms: C_13  and  C_14
REMARK    9  A    between atoms: C_13  and  C_17
REMARK   10  A    between atoms: C_14  and  C_15
REMARK   11  A    between atoms: C_19  and  S_20
REMARK   12  A    between atoms: S_20  and  C_21
REMARK   13  A    between atoms: C_22  and  O_23
REMARK   14  A    between atoms: C_24  and  O_25
REMARK   15  A    between atoms: C_26  and  O_27
REMARK                            x       y       z     vdW  Elec       q    Type
REMARK                         _______ _______ _______ _____ _____    ______ ____
ROOT
ATOM      1  C   UNL     1       3.350   4.984  19.988  0.00  0.00    +0.000 C 
ENDROOT
BRANCH   1   2
ATOM      2  C   UNL     1       4.327   5.090  18.764  0.00  0.00    +0.000 C 
ATOM      3  O   UNL     1       5.647   5.442  19.257  0.00  0.00    +0.000 OA
ATOM      4  C   UNL     1       6.602   5.747  18.220  0.00  0.00    +0.000 C 
ATOM      5  C   UNL     1       6.800   4.528  17.295  0.00  0.00    +0.000 C 
ATOM      6  C   UNL     1       5.452   4.025  16.771  0.00  0.00    +0.000 C 
ATOM      7  C   UNL     1       4.458   3.804  17.921  0.00  0.00    +0.000 C 
BRANCH   4   8
ATOM      8  S   UNL     1       6.181   7.294  17.321  0.00  0.00    +0.000 S 
ATOM      9  C   UNL     1       7.722   8.193  17.588  0.00  0.00    +0.000 C 
ENDBRANCH   4   8
BRANCH   5  10
ATOM     10  O   UNL     1       7.699   4.778  16.210  0.00  0.00    +0.000 OA
ATOM     11  H   UNL     1       8.347   5.430  16.542  0.00  0.00    +0.000 HD
ENDBRANCH   5  10
BRANCH   6  12
ATOM     12  O   UNL     1       5.669   2.800  16.049  0.00  0.00    +0.000 OA
ATOM     13  H   UNL     1       6.375   2.988  15.398  0.00  0.00    +0.000 HD
ENDBRANCH   6  12
BRANCH   7  14
ATOM     14  O   UNL     1       4.916   2.702  18.723  0.00  0.00    +0.000 OA
ATOM     15  H   UNL     1       4.644   2.867  19.648  0.00  0.00    +0.000 HD
ENDBRANCH   7  14
ENDBRANCH   1   2
BRANCH   1  18
ATOM     16  C   UNL     1       2.369   7.292  19.490  0.00  0.00    +0.000 C 
ATOM     17  O   UNL     1       2.336   7.076  18.272  0.00  0.00    +0.000 OA
ATOM     18  N   UNL     1       2.887   6.353  20.359  0.00  0.00    +0.000 N 
ATOM     19  H   UNL     1       2.896   6.634  21.338  0.00  0.00    +0.000 HD
BRANCH  16  24
ATOM     20  C   UNL     1       0.586   8.434  21.179  0.00  0.00    +0.000 C 
ATOM     21  C   UNL     1      -0.307   9.001  20.055  0.00  0.00    +0.000 C 
ATOM     22  N   UNL     1       0.875   9.408  19.277  0.00  0.00    +0.000 NA
ATOM     23  C   UNL     1       1.121  10.843  19.452  0.00  0.00    +0.000 C 
ATOM     24  C   UNL     1       1.772   8.606  20.173  0.00  0.00    +0.000 C 
BRANCH  20  25
ATOM     25  C   UNL     1       0.707   9.206  22.503  0.00  0.00    +0.000 C 
BRANCH  25  26
ATOM     26  C   UNL     1      -0.616   9.803  22.999  0.00  0.00    +0.000 C 
BRANCH  26  28
ATOM     27  C   UNL     1      -2.165  11.787  23.091  0.00  0.00    +0.000 C 
ATOM     28  C   UNL     1      -0.779  11.290  22.703  0.00  0.00    +0.000 C 
ENDBRANCH  26  28
ENDBRANCH  25  26
ENDBRANCH  20  25
ENDBRANCH  16  24
ENDBRANCH   1  18
BRANCH   1  29
ATOM     29  C   UNL     1       2.168   4.016  19.681  0.00  0.00    +0.000 C 
ATOM     30  C   UNL     1       2.290   2.619  20.284  0.00  0.00    +0.000 C 
ATOM     31 CL   UNL     1       0.594   4.756  20.142  0.00  0.00    +0.000 Cl
ENDBRANCH   1  29
TORSDOF 11
ENDMDL
MODEL 8
REMARK VINA RESULT:      -5.6      3.608      8.295
REMARK  Name = 
REMARK  15 active torsions:
REMARK  status: ('A' for Active; 'I' for Inactive)
REMARK    1  A    between atoms: C_1  and  C_2
REMARK    2  A    between atoms: C_2  and  C_3
REMARK    3  A    between atoms: C_3  and  C_4
REMARK    4  A    between atoms: C_4  and  C_5
REMARK    5  A    between atoms: N_7  and  C_8
REMARK    6  A    between atoms: C_9  and  C_10
REMARK    7  A    between atoms: N_12  and  C_13
REMARK    8  A    between atoms: C_13  and  C_14
REMARK    9  A    between atoms: C_13  and  C_17
REMARK   10  A    between atoms: C_14  and  C_15
REMARK   11  A    between atoms: C_19  and  S_20
REMARK   12  A    between atoms: S_20  and  C_21
REMARK   13  A    between atoms: C_22  and  O_23
REMARK   14  A    between atoms: C_24  and  O_25
REMARK   15  A    between atoms: C_26  and  O_27
REMARK                            x       y       z     vdW  Elec       q    Type
REMARK                         _______ _______ _______ _____ _____    ______ ____
ROOT
ATOM      1  C   UNL     1       2.919   4.804  19.019  0.00  0.00    +0.000 C 
ENDROOT
BRANCH   1   2
ATOM      2  C   UNL     1       4.220   4.578  18.170  0.00  0.00    +0.000 C 
ATOM      3  O   UNL     1       4.255   5.567  17.107  0.00  0.00    +0.000 OA
ATOM      4  C   UNL     1       5.309   5.360  16.144  0.00  0.00    +0.000 C 
ATOM      5  C   UNL     1       6.688   5.422  16.834  0.00  0.00    +0.000 C 
ATOM      6  C   UNL     1       6.738   4.463  18.025  0.00  0.00    +0.000 C 
ATOM      7  C   UNL     1       5.540   4.681  18.963  0.00  0.00    +0.000 C 
BRANCH   4   8
ATOM      8  S   UNL     1       5.050   3.837  15.148  0.00  0.00    +0.000 S 
ATOM      9  C   UNL     1       6.074   4.264  13.725  0.00  0.00    +0.000 C 
ENDBRANCH   4   8
BRANCH   5  10
ATOM     10  O   UNL     1       7.780   5.174  15.943  0.00  0.00    +0.000 OA
ATOM     11  H   UNL     1       8.134   4.296  16.189  0.00  0.00    +0.000 HD
ENDBRANCH   5  10
BRANCH   6  12
ATOM     12  O   UNL     1       7.974   4.671  18.730  0.00  0.00    +0.000 OA
ATOM     13  H   UNL     1       8.481   3.837  18.645  0.00  0.00    +0.000 HD
ENDBRANCH   6  12
BRANCH   7  14
ATOM     14  O   UNL     1       5.672   5.969  19.588  0.00  0.00    +0.000 OA
ATOM     15  H   UNL     1       5.253   6.634  19.005  0.00  0.00    +0.000 HD
ENDBRANCH   7  14
ENDBRANCH   1   2
BRANCH   1  18
ATOM     16  C   UNL     1       1.918   6.944  19.998  0.00  0.00    +0.000 C 
ATOM     17  O   UNL     1       1.484   6.351  20.994  0.00  0.00    +0.000 OA
ATOM     18  N   UNL     1       2.570   6.255  18.995  0.00  0.00    +0.000 N 
ATOM     19  H   UNL     1       2.866   6.826  18.205  0.00  0.00    +0.000 HD
BRANCH  16  24
ATOM     20  C   UNL     1       0.624   9.282  20.440  0.00  0.00    +0.000 C 
ATOM     21  C   UNL     1       0.083   9.401  19.000  0.00  0.00    +0.000 C 
ATOM     22  N   UNL     1       1.372   8.953  18.445  0.00  0.00    +0.000 NA
ATOM     23  C   UNL     1       2.143  10.110  17.975  0.00  0.00    +0.000 C 
ATOM     24  C   UNL     1       1.838   8.526  19.805  0.00  0.00    +0.000 C 
BRANCH  20  25
ATOM     25  C   UNL     1       0.960  10.561  21.224  0.00  0.00    +0.000 C 
BRANCH  25  26
ATOM     26  C   UNL     1       0.018  11.736  20.932  0.00  0.00    +0.000 C 
BRANCH  26  28
ATOM     27  C   UNL     1      -1.271  11.163  23.018  0.00  0.00    +0.000 C 
ATOM     28  C   UNL     1      -0.697  12.284  22.163  0.00  0.00    +0.000 C 
ENDBRANCH  26  28
ENDBRANCH  25  26
ENDBRANCH  20  25
ENDBRANCH  16  24
ENDBRANCH   1  18
BRANCH   1  29
ATOM     29  C   UNL     1       1.754   3.901  18.513  0.00  0.00    +0.000 C 
ATOM     30  C   UNL     1       2.169   2.729  17.627  0.00  0.00    +0.000 C 
ATOM     31 CL   UNL     1       0.750   3.317  19.886  0.00  0.00    +0.000 Cl
ENDBRANCH   1  29
TORSDOF 11
ENDMDL
MODEL 9
REMARK VINA RESULT:      -5.6      4.002      7.943
REMARK  Name = 
REMARK  15 active torsions:
REMARK  status: ('A' for Active; 'I' for Inactive)
REMARK    1  A    between atoms: C_1  and  C_2
REMARK    2  A    between atoms: C_2  and  C_3
REMARK    3  A    between atoms: C_3  and  C_4
REMARK    4  A    between atoms: C_4  and  C_5
REMARK    5  A    between atoms: N_7  and  C_8
REMARK    6  A    between atoms: C_9  and  C_10
REMARK    7  A    between atoms: N_12  and  C_13
REMARK    8  A    between atoms: C_13  and  C_14
REMARK    9  A    between atoms: C_13  and  C_17
REMARK   10  A    between atoms: C_14  and  C_15
REMARK   11  A    between atoms: C_19  and  S_20
REMARK   12  A    between atoms: S_20  and  C_21
REMARK   13  A    between atoms: C_22  and  O_23
REMARK   14  A    between atoms: C_24  and  O_25
REMARK   15  A    between atoms: C_26  and  O_27
REMARK                            x       y       z     vdW  Elec       q    Type
REMARK                         _______ _______ _______ _____ _____    ______ ____
ROOT
ATOM      1  C   UNL     1       3.060   5.616  19.214  0.00  0.00    +0.000 C 
ENDROOT
BRANCH   1   2
ATOM      2  C   UNL     1       4.306   5.489  18.268  0.00  0.00    +0.000 C 
ATOM      3  O   UNL     1       5.509   5.636  19.067  0.00  0.00    +0.000 OA
ATOM      4  C   UNL     1       6.724   5.719  18.294  0.00  0.00    +0.000 C 
ATOM      5  C   UNL     1       6.919   4.436  17.459  0.00  0.00    +0.000 C 
ATOM      6  C   UNL     1       5.670   4.143  16.624  0.00  0.00    +0.000 C 
ATOM      7  C   UNL     1       4.405   4.156  17.496  0.00  0.00    +0.000 C 
BRANCH   4   8
ATOM      8  S   UNL     1       6.813   7.265  17.303  0.00  0.00    +0.000 S 
ATOM      9  C   UNL     1       8.184   8.062  18.164  0.00  0.00    +0.000 C 
ENDBRANCH   4   8
BRANCH   5  10
ATOM     10  O   UNL     1       8.082   4.472  16.626  0.00  0.00    +0.000 OA
ATOM     11  H   UNL     1       8.591   5.258  16.908  0.00  0.00    +0.000 HD
ENDBRANCH   5  10
BRANCH   6  12
ATOM     12  O   UNL     1       5.832   2.862  15.991  0.00  0.00    +0.000 OA
ATOM     13  H   UNL     1       6.332   3.027  15.165  0.00  0.00    +0.000 HD
ENDBRANCH   6  12
BRANCH   7  14
ATOM     14  O   UNL     1       4.453   3.037  18.397  0.00  0.00    +0.000 OA
ATOM     15  H   UNL     1       4.845   3.342  19.240  0.00  0.00    +0.000 HD
ENDBRANCH   7  14
ENDBRANCH   1   2
BRANCH   1  18
ATOM     16  C   UNL     1       1.826   7.702  20.030  0.00  0.00    +0.000 C 
ATOM     17  O   UNL     1       1.636   7.217  21.153  0.00  0.00    +0.000 OA
ATOM     18  N   UNL     1       2.458   6.970  19.044  0.00  0.00    +0.000 N 
ATOM     19  H   UNL     1       2.544   7.445  18.147  0.00  0.00    +0.000 HD
BRANCH  16  24
ATOM     20  C   UNL     1      -0.077   9.564  19.535  0.00  0.00    +0.000 C 
ATOM     21  C   UNL     1       0.132   9.554  18.006  0.00  0.00    +0.000 C 
ATOM     22  N   UNL     1       1.594   9.505  18.174  0.00  0.00    +0.000 NA
ATOM     23  C   UNL     1       2.166  10.843  17.984  0.00  0.00    +0.000 C 
ATOM     24  C   UNL     1       1.441   9.199  19.635  0.00  0.00    +0.000 C 
BRANCH  20  25
ATOM     25  C   UNL     1      -0.505  10.869  20.225  0.00  0.00    +0.000 C 
BRANCH  25  26
ATOM     26  C   UNL     1      -1.160  11.887  19.283  0.00  0.00    +0.000 C 
BRANCH  26  28
ATOM     27  C   UNL     1       0.560  13.629  19.876  0.00  0.00    +0.000 C 
ATOM     28  C   UNL     1      -0.921  13.342  19.674  0.00  0.00    +0.000 C 
ENDBRANCH  26  28
ENDBRANCH  25  26
ENDBRANCH  20  25
ENDBRANCH  16  24
ENDBRANCH   1  18
BRANCH   1  29
ATOM     29  C   UNL     1       2.037   4.470  18.954  0.00  0.00    +0.000 C 
ATOM     30  C   UNL     1       1.103   4.146  20.117  0.00  0.00    +0.000 C 
ATOM     31 CL   UNL     1       1.083   4.785  17.461  0.00  0.00    +0.000 Cl
ENDBRANCH   1  29
TORSDOF 11
ENDMDL
