MODEL 1
REMARK VINA RESULT:      -7.8      0.000      0.000
REMARK  Name = 
REMARK  7 active torsions:
REMARK  status: ('A' for Active; 'I' for Inactive)
REMARK    1  A    between atoms: C_1  and  C_2
REMARK    2  A    between atoms: C_2  and  C_3
REMARK    3  A    between atoms: C_3  and  C_4
REMARK    4  A    between atoms: C_4  and  C_5
REMARK    5  A    between atoms: C_5  and  C_6
REMARK    6  A    between atoms: C_6  and  C_8
REMARK    7  A    between atoms: C_14  and  C_15
REMARK                            x       y       z     vdW  Elec       q    Type
REMARK                         _______ _______ _______ _____ _____    ______ ____
ROOT
ATOM      1  C   UNL     1       5.875   5.228  17.922  0.00  0.00    +0.000 C 
ATOM      2  O   UNL     1       4.953   6.047  17.891  0.00  0.00    +0.000 OA
ATOM      3  N   UNL     1       5.818   4.008  18.564  0.00  0.00    +0.000 N 
ATOM      4  C   UNL     1       4.697   3.545  19.212  0.00  0.00    +0.000 A 
ATOM      5  N   UNL     1       4.724   2.590  20.113  0.00  0.00    +0.000 NA
ATOM      6  N   UNL     1       3.476   2.369  20.669  0.00  0.00    +0.000 NA
ATOM      7  C   UNL     1       2.543   3.128  20.124  0.00  0.00    +0.000 A 
ATOM      8  S   UNL     1       3.132   4.127  18.861  0.00  0.00    +0.000 S 
ATOM      9  H   UNL     1       6.685   3.575  18.862  0.00  0.00    +0.000 HD
ENDROOT
BRANCH   7  10
ATOM     10  C   UNL     1       1.097   3.172  20.489  0.00  0.00    +0.000 C 
ATOM     11  F   UNL     1       0.632   4.444  20.586  0.00  0.00    +0.000 F 
ATOM     12  F   UNL     1       0.313   2.543  19.572  0.00  0.00    +0.000 F 
ATOM     13  F   UNL     1       0.854   2.577  21.682  0.00  0.00    +0.000 F 
ENDBRANCH   7  10
BRANCH   1  14
ATOM     14  C   UNL     1       7.183   5.512  17.185  0.00  0.00    +0.000 C 
ATOM     15 BR   UNL     1       7.701   7.337  17.661  0.00  0.00    +0.000 Br
BRANCH  14  16
ATOM     16  C   UNL     1       6.960   5.370  15.677  0.00  0.00    +0.000 C 
BRANCH  16  17
ATOM     17  C   UNL     1       6.429   4.014  15.223  0.00  0.00    +0.000 C 
BRANCH  17  18
ATOM     18  C   UNL     1       5.500   4.173  14.020  0.00  0.00    +0.000 C 
BRANCH  18  20
ATOM     19  C   UNL     1       5.013   3.148  11.771  0.00  0.00    +0.000 C 
ATOM     20  C   UNL     1       6.093   3.509  12.778  0.00  0.00    +0.000 C 
ENDBRANCH  18  20
ENDBRANCH  17  18
ENDBRANCH  16  17
ENDBRANCH  14  16
ENDBRANCH   1  14
TORSDOF 6
ENDMDL
MODEL 2
REMARK VINA RESULT:      -7.5      0.577      1.076
REMARK  Name = 
REMARK  7 active torsions:
REMARK  status: ('A' for Active; 'I' for Inactive)
REMARK    1  A    between atoms: C_1  and  C_2
REMARK    2  A    between atoms: C_2  and  C_3
REMARK    3  A    between atoms: C_3  and  C_4
REMARK    4  A    between atoms: C_4  and  C_5
REMARK    5  A    between atoms: C_5  and  C_6
REMARK    6  A    between atoms: C_6  and  C_8
REMARK    7  A    between atoms: C_14  and  C_15
REMARK                            x       y       z     vdW  Elec       q    Type
REMARK                         _______ _______ _______ _____ _____    ______ ____
ROOT
ATOM      1  C   UNL     1       6.078   5.216  18.389  0.00  0.00    +0.000 C 
ATOM      2  O   UNL     1       5.238   6.115  18.491  0.00  0.00    +0.000 OA
ATOM      3  N   UNL     1       5.896   3.920  18.825  0.00  0.00    +0.000 N 
ATOM      4  C   UNL     1       4.728   3.469  19.392  0.00  0.00    +0.000 A 
ATOM      5  N   UNL     1       4.651   2.384  20.127  0.00  0.00    +0.000 NA
ATOM      6  N   UNL     1       3.380   2.197  20.642  0.00  0.00    +0.000 NA
ATOM      7  C   UNL     1       2.531   3.119  20.227  0.00  0.00    +0.000 A 
ATOM      8  S   UNL     1       3.230   4.247  19.141  0.00  0.00    +0.000 S 
ATOM      9  H   UNL     1       6.714   3.364  19.048  0.00  0.00    +0.000 HD
ENDROOT
BRANCH   7  10
ATOM     10  C   UNL     1       1.091   3.242  20.596  0.00  0.00    +0.000 C 
ATOM     11  F   UNL     1       0.807   2.623  21.770  0.00  0.00    +0.000 F 
ATOM     12  F   UNL     1       0.703   4.539  20.739  0.00  0.00    +0.000 F 
ATOM     13  F   UNL     1       0.276   2.694  19.661  0.00  0.00    +0.000 F 
ENDBRANCH   7  10
BRANCH   1  14
ATOM     14  C   UNL     1       7.418   5.489  17.705  0.00  0.00    +0.000 C 
ATOM     15 BR   UNL     1       7.535   7.427  17.473  0.00  0.00    +0.000 Br
BRANCH  14  16
ATOM     16  C   UNL     1       7.461   4.761  16.358  0.00  0.00    +0.000 C 
BRANCH  16  17
ATOM     17  C   UNL     1       6.409   5.206  15.346  0.00  0.00    +0.000 C 
BRANCH  17  18
ATOM     18  C   UNL     1       6.801   4.772  13.934  0.00  0.00    +0.000 C 
BRANCH  18  20
ATOM     19  C   UNL     1       5.731   3.434  12.087  0.00  0.00    +0.000 C 
ATOM     20  C   UNL     1       6.124   3.456  13.556  0.00  0.00    +0.000 C 
ENDBRANCH  18  20
ENDBRANCH  17  18
ENDBRANCH  16  17
ENDBRANCH  14  16
ENDBRANCH   1  14
TORSDOF 6
ENDMDL
MODEL 3
REMARK VINA RESULT:      -7.4      0.980      1.001
REMARK  Name = 
REMARK  7 active torsions:
REMARK  status: ('A' for Active; 'I' for Inactive)
REMARK    1  A    between atoms: C_1  and  C_2
REMARK    2  A    between atoms: C_2  and  C_3
REMARK    3  A    between atoms: C_3  and  C_4
REMARK    4  A    between atoms: C_4  and  C_5
REMARK    5  A    between atoms: C_5  and  C_6
REMARK    6  A    between atoms: C_6  and  C_8
REMARK    7  A    between atoms: C_14  and  C_15
REMARK                            x       y       z     vdW  Elec       q    Type
REMARK                         _______ _______ _______ _____ _____    ______ ____
ROOT
ATOM      1  C   UNL     1       6.141   4.731  18.391  0.00  0.00    +0.000 C 
ATOM      2  O   UNL     1       5.800   5.448  19.336  0.00  0.00    +0.000 OA
ATOM      3  N   UNL     1       5.430   3.639  17.940  0.00  0.00    +0.000 N 
ATOM      4  C   UNL     1       4.223   3.249  18.471  0.00  0.00    +0.000 A 
ATOM      5  N   UNL     1       3.719   2.047  18.317  0.00  0.00    +0.000 NA
ATOM      6  N   UNL     1       2.536   1.889  19.018  0.00  0.00    +0.000 NA
ATOM      7  C   UNL     1       2.162   2.999  19.627  0.00  0.00    +0.000 A 
ATOM      8  S   UNL     1       3.217   4.320  19.339  0.00  0.00    +0.000 S 
ATOM      9  H   UNL     1       5.925   2.909  17.442  0.00  0.00    +0.000 HD
ENDROOT
BRANCH   7  10
ATOM     10  C   UNL     1       0.957   3.189  20.485  0.00  0.00    +0.000 C 
ATOM     11  F   UNL     1       0.708   4.500  20.737  0.00  0.00    +0.000 F 
ATOM     12  F   UNL     1      -0.170   2.684  19.914  0.00  0.00    +0.000 F 
ATOM     13  F   UNL     1       1.088   2.582  21.690  0.00  0.00    +0.000 F 
ENDBRANCH   7  10
BRANCH   1  14
ATOM     14  C   UNL     1       7.413   5.048  17.604  0.00  0.00    +0.000 C 
ATOM     15 BR   UNL     1       7.557   6.998  17.547  0.00  0.00    +0.000 Br
BRANCH  14  16
ATOM     16  C   UNL     1       7.303   4.455  16.197  0.00  0.00    +0.000 C 
BRANCH  16  17
ATOM     17  C   UNL     1       6.470   5.270  15.212  0.00  0.00    +0.000 C 
BRANCH  17  18
ATOM     18  C   UNL     1       5.622   4.351  14.332  0.00  0.00    +0.000 C 
BRANCH  18  20
ATOM     19  C   UNL     1       5.523   3.158  12.116  0.00  0.00    +0.000 C 
ATOM     20  C   UNL     1       6.418   3.863  13.123  0.00  0.00    +0.000 C 
ENDBRANCH  18  20
ENDBRANCH  17  18
ENDBRANCH  16  17
ENDBRANCH  14  16
ENDBRANCH   1  14
TORSDOF 6
ENDMDL
MODEL 4
REMARK VINA RESULT:      -7.1      2.173      3.799
REMARK  Name = 
REMARK  7 active torsions:
REMARK  status: ('A' for Active; 'I' for Inactive)
REMARK    1  A    between atoms: C_1  and  C_2
REMARK    2  A    between atoms: C_2  and  C_3
REMARK    3  A    between atoms: C_3  and  C_4
REMARK    4  A    between atoms: C_4  and  C_5
REMARK    5  A    between atoms: C_5  and  C_6
REMARK    6  A    between atoms: C_6  and  C_8
REMARK    7  A    between atoms: C_14  and  C_15
REMARK                            x       y       z     vdW  Elec       q    Type
REMARK                         _______ _______ _______ _____ _____    ______ ____
ROOT
ATOM      1  C   UNL     1       5.174   5.711  17.273  0.00  0.00    +0.000 C 
ATOM      2  O   UNL     1       4.159   6.409  17.349  0.00  0.00    +0.000 OA
ATOM      3  N   UNL     1       5.353   4.513  17.935  0.00  0.00    +0.000 N 
ATOM      4  C   UNL     1       4.391   3.936  18.730  0.00  0.00    +0.000 A 
ATOM      5  N   UNL     1       4.651   3.020  19.634  0.00  0.00    +0.000 NA
ATOM      6  N   UNL     1       3.522   2.665  20.350  0.00  0.00    +0.000 NA
ATOM      7  C   UNL     1       2.439   3.285  19.919  0.00  0.00    +0.000 A 
ATOM      8  S   UNL     1       2.733   4.309  18.575  0.00  0.00    +0.000 S 
ATOM      9  H   UNL     1       6.298   4.200  18.125  0.00  0.00    +0.000 HD
ENDROOT
BRANCH   7  10
ATOM     10  C   UNL     1       1.057   3.162  20.466  0.00  0.00    +0.000 C 
ATOM     11  F   UNL     1       0.477   4.372  20.672  0.00  0.00    +0.000 F 
ATOM     12  F   UNL     1       0.230   2.473  19.633  0.00  0.00    +0.000 F 
ATOM     13  F   UNL     1       1.036   2.515  21.657  0.00  0.00    +0.000 F 
ENDBRANCH   7  10
BRANCH   1  14
ATOM     14  C   UNL     1       6.332   6.131  16.368  0.00  0.00    +0.000 C 
ATOM     15 BR   UNL     1       6.327   4.893  14.854  0.00  0.00    +0.000 Br
BRANCH  14  16
ATOM     16  C   UNL     1       7.646   6.051  17.151  0.00  0.00    +0.000 C 
BRANCH  16  17
ATOM     17  C   UNL     1       7.794   7.070  18.276  0.00  0.00    +0.000 C 
BRANCH  17  18
ATOM     18  C   UNL     1       7.986   8.477  17.709  0.00  0.00    +0.000 C 
BRANCH  18  20
ATOM     19  C   UNL     1       9.057  10.725  18.091  0.00  0.00    +0.000 C 
ATOM     20  C   UNL     1       8.735   9.369  18.698  0.00  0.00    +0.000 C 
ENDBRANCH  18  20
ENDBRANCH  17  18
ENDBRANCH  16  17
ENDBRANCH  14  16
ENDBRANCH   1  14
TORSDOF 6
ENDMDL
MODEL 5
REMARK VINA RESULT:      -7.0      1.519      1.772
REMARK  Name = 
REMARK  7 active torsions:
REMARK  status: ('A' for Active; 'I' for Inactive)
REMARK    1  A    between atoms: C_1  and  C_2
REMARK    2  A    between atoms: C_2  and  C_3
REMARK    3  A    between atoms: C_3  and  C_4
REMARK    4  A    between atoms: C_4  and  C_5
REMARK    5  A    between atoms: C_5  and  C_6
REMARK    6  A    between atoms: C_6  and  C_8
REMARK    7  A    between atoms: C_14  and  C_15
REMARK                            x       y       z     vdW  Elec       q    Type
REMARK                         _______ _______ _______ _____ _____    ______ ____
ROOT
ATOM      1  C   UNL     1       6.035   4.729  17.755  0.00  0.00    +0.000 C 
ATOM      2  O   UNL     1       6.190   4.465  18.951  0.00  0.00    +0.000 OA
ATOM      3  N   UNL     1       4.855   4.556  17.061  0.00  0.00    +0.000 N 
ATOM      4  C   UNL     1       3.694   4.104  17.642  0.00  0.00    +0.000 A 
ATOM      5  N   UNL     1       2.693   3.596  16.961  0.00  0.00    +0.000 NA
ATOM      6  N   UNL     1       1.680   3.145  17.789  0.00  0.00    +0.000 NA
ATOM      7  C   UNL     1       1.931   3.383  19.063  0.00  0.00    +0.000 A 
ATOM      8  S   UNL     1       3.406   4.220  19.320  0.00  0.00    +0.000 S 
ATOM      9  H   UNL     1       4.897   4.434  16.056  0.00  0.00    +0.000 HD
ENDROOT
BRANCH   7  10
ATOM     10  C   UNL     1       1.076   3.017  20.230  0.00  0.00    +0.000 C 
ATOM     11  F   UNL     1       1.664   2.086  21.024  0.00  0.00    +0.000 F 
ATOM     12  F   UNL     1       0.801   4.087  21.025  0.00  0.00    +0.000 F 
ATOM     13  F   UNL     1      -0.117   2.502  19.846  0.00  0.00    +0.000 F 
ENDBRANCH   7  10
BRANCH   1  14
ATOM     14  C   UNL     1       7.183   5.328  16.944  0.00  0.00    +0.000 C 
ATOM     15 BR   UNL     1       7.648   7.019  17.810  0.00  0.00    +0.000 Br
BRANCH  14  16
ATOM     16  C   UNL     1       6.727   5.548  15.499  0.00  0.00    +0.000 C 
BRANCH  16  17
ATOM     17  C   UNL     1       7.073   4.422  14.530  0.00  0.00    +0.000 C 
BRANCH  17  18
ATOM     18  C   UNL     1       5.841   4.002  13.727  0.00  0.00    +0.000 C 
BRANCH  18  20
ATOM     19  C   UNL     1       5.045   2.882  11.617  0.00  0.00    +0.000 C 
ATOM     20  C   UNL     1       6.239   3.467  12.353  0.00  0.00    +0.000 C 
ENDBRANCH  18  20
ENDBRANCH  17  18
ENDBRANCH  16  17
ENDBRANCH  14  16
ENDBRANCH   1  14
TORSDOF 6
ENDMDL
MODEL 6
REMARK VINA RESULT:      -7.0      4.843      7.165
REMARK  Name = 
REMARK  7 active torsions:
REMARK  status: ('A' for Active; 'I' for Inactive)
REMARK    1  A    between atoms: C_1  and  C_2
REMARK    2  A    between atoms: C_2  and  C_3
REMARK    3  A    between atoms: C_3  and  C_4
REMARK    4  A    between atoms: C_4  and  C_5
REMARK    5  A    between atoms: C_5  and  C_6
REMARK    6  A    between atoms: C_6  and  C_8
REMARK    7  A    between atoms: C_14  and  C_15
REMARK                            x       y       z     vdW  Elec       q    Type
REMARK                         _______ _______ _______ _____ _____    ______ ____
ROOT
ATOM      1  C   UNL     1       5.025   3.963  17.836  0.00  0.00    +0.000 C 
ATOM      2  O   UNL     1       4.529   3.022  17.210  0.00  0.00    +0.000 OA
ATOM      3  N   UNL     1       5.928   4.864  17.311  0.00  0.00    +0.000 N 
ATOM      4  C   UNL     1       6.347   4.840  16.001  0.00  0.00    +0.000 A 
ATOM      5  N   UNL     1       7.442   5.431  15.580  0.00  0.00    +0.000 NA
ATOM      6  N   UNL     1       7.677   5.187  14.239  0.00  0.00    +0.000 NA
ATOM      7  C   UNL     1       6.719   4.468  13.684  0.00  0.00    +0.000 A 
ATOM      8  S   UNL     1       5.444   4.087  14.766  0.00  0.00    +0.000 S 
ATOM      9  H   UNL     1       6.553   5.350  17.943  0.00  0.00    +0.000 HD
ENDROOT
BRANCH   7  10
ATOM     10  C   UNL     1       6.652   4.001  12.269  0.00  0.00    +0.000 C 
ATOM     11  F   UNL     1       5.379   3.969  11.798  0.00  0.00    +0.000 F 
ATOM     12  F   UNL     1       7.356   4.804  11.425  0.00  0.00    +0.000 F 
ATOM     13  F   UNL     1       7.152   2.750  12.122  0.00  0.00    +0.000 F 
ENDBRANCH   7  10
BRANCH   1  14
ATOM     14  C   UNL     1       4.622   4.220  19.287  0.00  0.00    +0.000 C 
ATOM     15 BR   UNL     1       4.382   2.464  20.114  0.00  0.00    +0.000 Br
BRANCH  14  16
ATOM     16  C   UNL     1       3.325   5.034  19.320  0.00  0.00    +0.000 C 
BRANCH  16  17
ATOM     17  C   UNL     1       2.455   4.821  20.555  0.00  0.00    +0.000 C 
BRANCH  17  18
ATOM     18  C   UNL     1       1.066   4.322  20.157  0.00  0.00    +0.000 C 
BRANCH  18  20
ATOM     19  C   UNL     1       0.890   2.257  18.727  0.00  0.00    +0.000 C 
ATOM     20  C   UNL     1       1.070   3.766  18.734  0.00  0.00    +0.000 C 
ENDBRANCH  18  20
ENDBRANCH  17  18
ENDBRANCH  16  17
ENDBRANCH  14  16
ENDBRANCH   1  14
TORSDOF 6
ENDMDL
MODEL 7
REMARK VINA RESULT:      -6.9      0.826      1.061
REMARK  Name = 
REMARK  7 active torsions:
REMARK  status: ('A' for Active; 'I' for Inactive)
REMARK    1  A    between atoms: C_1  and  C_2
REMARK    2  A    between atoms: C_2  and  C_3
REMARK    3  A    between atoms: C_3  and  C_4
REMARK    4  A    between atoms: C_4  and  C_5
REMARK    5  A    between atoms: C_5  and  C_6
REMARK    6  A    between atoms: C_6  and  C_8
REMARK    7  A    between atoms: C_14  and  C_15
REMARK                            x       y       z     vdW  Elec       q    Type
REMARK                         _______ _______ _______ _____ _____    ______ ____
ROOT
ATOM      1  C   UNL     1       5.693   5.125  17.746  0.00  0.00    +0.000 C 
ATOM      2  O   UNL     1       4.847   5.965  18.067  0.00  0.00    +0.000 OA
ATOM      3  N   UNL     1       5.763   3.847  18.261  0.00  0.00    +0.000 N 
ATOM      4  C   UNL     1       4.860   3.346  19.168  0.00  0.00    +0.000 A 
ATOM      5  N   UNL     1       5.100   2.302  19.928  0.00  0.00    +0.000 NA
ATOM      6  N   UNL     1       4.061   2.054  20.808  0.00  0.00    +0.000 NA
ATOM      7  C   UNL     1       3.050   2.885  20.638  0.00  0.00    +0.000 A 
ATOM      8  S   UNL     1       3.294   3.996  19.354  0.00  0.00    +0.000 S 
ATOM      9  H   UNL     1       6.654   3.366  18.245  0.00  0.00    +0.000 HD
ENDROOT
BRANCH   7  10
ATOM     10  C   UNL     1       1.781   2.925  21.419  0.00  0.00    +0.000 C 
ATOM     11  F   UNL     1       0.698   3.139  20.628  0.00  0.00    +0.000 F 
ATOM     12  F   UNL     1       1.548   1.763  22.088  0.00  0.00    +0.000 F 
ATOM     13  F   UNL     1       1.784   3.913  22.347  0.00  0.00    +0.000 F 
ENDBRANCH   7  10
BRANCH   1  14
ATOM     14  C   UNL     1       6.739   5.454  16.681  0.00  0.00    +0.000 C 
ATOM     15 BR   UNL     1       7.457   7.215  17.138  0.00  0.00    +0.000 Br
BRANCH  14  16
ATOM     16  C   UNL     1       6.077   5.462  15.301  0.00  0.00    +0.000 C 
BRANCH  16  17
ATOM     17  C   UNL     1       6.010   4.106  14.605  0.00  0.00    +0.000 C 
BRANCH  17  18
ATOM     18  C   UNL     1       6.614   4.187  13.203  0.00  0.00    +0.000 C 
BRANCH  18  20
ATOM     19  C   UNL     1       4.660   3.433  11.805  0.00  0.00    +0.000 C 
ATOM     20  C   UNL     1       6.055   3.089  12.301  0.00  0.00    +0.000 C 
ENDBRANCH  18  20
ENDBRANCH  17  18
ENDBRANCH  16  17
ENDBRANCH  14  16
ENDBRANCH   1  14
TORSDOF 6
ENDMDL
MODEL 8
REMARK VINA RESULT:      -6.9      1.130      1.765
REMARK  Name = 
REMARK  7 active torsions:
REMARK  status: ('A' for Active; 'I' for Inactive)
REMARK    1  A    between atoms: C_1  and  C_2
REMARK    2  A    between atoms: C_2  and  C_3
REMARK    3  A    between atoms: C_3  and  C_4
REMARK    4  A    between atoms: C_4  and  C_5
REMARK    5  A    between atoms: C_5  and  C_6
REMARK    6  A    between atoms: C_6  and  C_8
REMARK    7  A    between atoms: C_14  and  C_15
REMARK                            x       y       z     vdW  Elec       q    Type
REMARK                         _______ _______ _______ _____ _____    ______ ____
ROOT
ATOM      1  C   UNL     1       6.190   5.173  18.733  0.00  0.00    +0.000 C 
ATOM      2  O   UNL     1       5.404   6.105  18.927  0.00  0.00    +0.000 OA
ATOM      3  N   UNL     1       5.917   3.849  19.008  0.00  0.00    +0.000 N 
ATOM      4  C   UNL     1       4.708   3.409  19.492  0.00  0.00    +0.000 A 
ATOM      5  N   UNL     1       4.545   2.251  20.089  0.00  0.00    +0.000 NA
ATOM      6  N   UNL     1       3.251   2.087  20.553  0.00  0.00    +0.000 NA
ATOM      7  C   UNL     1       2.472   3.103  20.235  0.00  0.00    +0.000 A 
ATOM      8  S   UNL     1       3.268   4.305  19.306  0.00  0.00    +0.000 S 
ATOM      9  H   UNL     1       6.692   3.219  19.178  0.00  0.00    +0.000 HD
ENDROOT
BRANCH   7  10
ATOM     10  C   UNL     1       1.032   3.274  20.587  0.00  0.00    +0.000 C 
ATOM     11  F   UNL     1       0.721   2.692  21.774  0.00  0.00    +0.000 F 
ATOM     12  F   UNL     1       0.678   4.584  20.695  0.00  0.00    +0.000 F 
ATOM     13  F   UNL     1       0.211   2.725  19.659  0.00  0.00    +0.000 F 
ENDBRANCH   7  10
BRANCH   1  14
ATOM     14  C   UNL     1       7.562   5.439  18.114  0.00  0.00    +0.000 C 
ATOM     15 BR   UNL     1       7.569   7.318  17.573  0.00  0.00    +0.000 Br
BRANCH  14  16
ATOM     16  C   UNL     1       7.768   4.511  16.914  0.00  0.00    +0.000 C 
BRANCH  16  17
ATOM     17  C   UNL     1       7.523   5.149  15.550  0.00  0.00    +0.000 C 
BRANCH  17  18
ATOM     18  C   UNL     1       6.387   4.436  14.817  0.00  0.00    +0.000 C 
BRANCH  18  20
ATOM     19  C   UNL     1       4.920   6.386  15.441  0.00  0.00    +0.000 C 
ATOM     20  C   UNL     1       5.026   4.872  15.358  0.00  0.00    +0.000 C 
ENDBRANCH  18  20
ENDBRANCH  17  18
ENDBRANCH  16  17
ENDBRANCH  14  16
ENDBRANCH   1  14
TORSDOF 6
ENDMDL
MODEL 9
REMARK VINA RESULT:      -6.9      1.010      1.561
REMARK  Name = 
REMARK  7 active torsions:
REMARK  status: ('A' for Active; 'I' for Inactive)
REMARK    1  A    between atoms: C_1  and  C_2
REMARK    2  A    between atoms: C_2  and  C_3
REMARK    3  A    between atoms: C_3  and  C_4
REMARK    4  A    between atoms: C_4  and  C_5
REMARK    5  A    between atoms: C_5  and  C_6
REMARK    6  A    between atoms: C_6  and  C_8
REMARK    7  A    between atoms: C_14  and  C_15
REMARK                            x       y       z     vdW  Elec       q    Type
REMARK                         _______ _______ _______ _____ _____    ______ ____
ROOT
ATOM      1  C   UNL     1       5.239   4.499  16.843  0.00  0.00    +0.000 C 
ATOM      2  O   UNL     1       4.245   5.216  16.696  0.00  0.00    +0.000 OA
ATOM      3  N   UNL     1       5.381   3.550  17.834  0.00  0.00    +0.000 N 
ATOM      4  C   UNL     1       4.401   3.265  18.756  0.00  0.00    +0.000 A 
ATOM      5  N   UNL     1       4.633   2.655  19.895  0.00  0.00    +0.000 NA
ATOM      6  N   UNL     1       3.493   2.563  20.674  0.00  0.00    +0.000 NA
ATOM      7  C   UNL     1       2.430   3.056  20.066  0.00  0.00    +0.000 A 
ATOM      8  S   UNL     1       2.756   3.622  18.480  0.00  0.00    +0.000 S 
ATOM      9  H   UNL     1       6.316   3.281  18.118  0.00  0.00    +0.000 HD
ENDROOT
BRANCH   7  10
ATOM     10  C   UNL     1       1.044   3.142  20.612  0.00  0.00    +0.000 C 
ATOM     11  F   UNL     1       0.133   2.559  19.792  0.00  0.00    +0.000 F 
ATOM     12  F   UNL     1       0.925   2.529  21.821  0.00  0.00    +0.000 F 
ATOM     13  F   UNL     1       0.644   4.425  20.787  0.00  0.00    +0.000 F 
ENDBRANCH   7  10
BRANCH   1  14
ATOM     14  C   UNL     1       6.409   4.595  15.865  0.00  0.00    +0.000 C 
ATOM     15 BR   UNL     1       7.425   6.187  16.375  0.00  0.00    +0.000 Br
BRANCH  14  16
ATOM     16  C   UNL     1       5.873   4.710  14.435  0.00  0.00    +0.000 C 
BRANCH  16  17
ATOM     17  C   UNL     1       6.325   3.608  13.482  0.00  0.00    +0.000 C 
BRANCH  17  18
ATOM     18  C   UNL     1       5.373   3.503  12.289  0.00  0.00    +0.000 C 
BRANCH  18  20
ATOM     19  C   UNL     1       7.051   1.953  11.227  0.00  0.00    +0.000 C 
ATOM     20  C   UNL     1       5.582   2.189  11.537  0.00  0.00    +0.000 C 
ENDBRANCH  18  20
ENDBRANCH  17  18
ENDBRANCH  16  17
ENDBRANCH  14  16
ENDBRANCH   1  14
TORSDOF 6
ENDMDL
