MODEL 1
REMARK VINA RESULT:      -7.6      0.000      0.000
REMARK  Name = 
REMARK  5 active torsions:
REMARK  status: ('A' for Active; 'I' for Inactive)
REMARK    1  A    between atoms: C_1  and  N_2
REMARK    2  A    between atoms: N_2  and  C_3
REMARK    3  A    between atoms: C_10  and  C_11
REMARK    4  A    between atoms: C_14  and  C_15
REMARK    5  A    between atoms: C_15  and  O_17
REMARK                            x       y       z     vdW  Elec       q    Type
REMARK                         _______ _______ _______ _____ _____    ______ ____
ROOT
ATOM      1  C   UNL     1       0.888   9.973  19.851  0.00  0.00    +0.000 A 
ATOM      2  C   UNL     1       0.679   9.085  20.899  0.00  0.00    +0.000 A 
ATOM      3  C   UNL     1       1.236   7.797  20.881  0.00  0.00    +0.000 A 
ATOM      4  C   UNL     1       2.004   7.323  19.800  0.00  0.00    +0.000 A 
ATOM      5  C   UNL     1       2.197   8.204  18.733  0.00  0.00    +0.000 A 
ATOM      6  C   UNL     1       1.626   9.500  18.761  0.00  0.00    +0.000 A 
ATOM      7  C   UNL     1       2.943   7.802  17.495  0.00  0.00    +0.000 C 
ATOM      8  C   UNL     1       3.676   6.454  17.513  0.00  0.00    +0.000 C 
ATOM      9  C   UNL     1       5.197   6.670  17.521  0.00  0.00    +0.000 C 
ATOM     10  N   UNL     1       3.279   5.527  18.605  0.00  0.00    +0.000 N 
ATOM     11  C   UNL     1       3.710   4.197  18.534  0.00  0.00    +0.000 A 
ATOM     12  C   UNL     1       3.543   3.262  19.481  0.00  0.00    +0.000 A 
ATOM     13  C   UNL     1       2.820   3.686  20.685  0.00  0.00    +0.000 A 
ATOM     14  O   UNL     1       2.628   2.899  21.611  0.00  0.00    +0.000 OA
ATOM     15  C   UNL     1       2.316   5.074  20.754  0.00  0.00    +0.000 A 
ATOM     16  C   UNL     1       2.550   5.935  19.741  0.00  0.00    +0.000 A 
ENDROOT
BRANCH   1  18
ATOM     17  C   UNL     1       1.102  12.415  19.971  0.00  0.00    +0.000 C 
ATOM     18  N   UNL     1       0.283  11.230  19.771  0.00  0.00    +0.000 N 
ATOM     19  H   UNL     1      -0.323  11.311  18.958  0.00  0.00    +0.000 HD
ENDBRANCH   1  18
BRANCH  12  20
ATOM     20  C   UNL     1       4.085   1.904  19.288  0.00  0.00    +0.000 C 
ATOM     21  O   UNL     1       3.675   1.134  18.430  0.00  0.00    +0.000 OA
BRANCH  20  22
ATOM     22  O   UNL     1       5.085   1.571  20.134  0.00  0.00    +0.000 OA
ATOM     23  H   UNL     1       5.496   0.692  19.952  0.00  0.00    +0.000 HD
ENDBRANCH  20  22
ENDBRANCH  12  20
TORSDOF 3
ENDMDL
MODEL 2
REMARK VINA RESULT:      -7.6      4.844      6.455
REMARK  Name = 
REMARK  5 active torsions:
REMARK  status: ('A' for Active; 'I' for Inactive)
REMARK    1  A    between atoms: C_1  and  N_2
REMARK    2  A    between atoms: N_2  and  C_3
REMARK    3  A    between atoms: C_10  and  C_11
REMARK    4  A    between atoms: C_14  and  C_15
REMARK    5  A    between atoms: C_15  and  O_17
REMARK                            x       y       z     vdW  Elec       q    Type
REMARK                         _______ _______ _______ _____ _____    ______ ____
ROOT
ATOM      1  C   UNL     1       2.132   3.688  19.502  0.00  0.00    +0.000 A 
ATOM      2  C   UNL     1       1.946   3.115  18.251  0.00  0.00    +0.000 A 
ATOM      3  C   UNL     1       2.889   3.288  17.226  0.00  0.00    +0.000 A 
ATOM      4  C   UNL     1       4.049   4.068  17.393  0.00  0.00    +0.000 A 
ATOM      5  C   UNL     1       4.229   4.667  18.643  0.00  0.00    +0.000 A 
ATOM      6  C   UNL     1       3.267   4.488  19.668  0.00  0.00    +0.000 A 
ATOM      7  C   UNL     1       5.388   5.573  18.932  0.00  0.00    +0.000 C 
ATOM      8  C   UNL     1       6.499   5.663  17.877  0.00  0.00    +0.000 C 
ATOM      9  C   UNL     1       7.785   4.997  18.392  0.00  0.00    +0.000 C 
ATOM     10  N   UNL     1       6.146   5.137  16.533  0.00  0.00    +0.000 N 
ATOM     11  C   UNL     1       7.006   5.418  15.464  0.00  0.00    +0.000 A 
ATOM     12  C   UNL     1       6.903   4.930  14.219  0.00  0.00    +0.000 A 
ATOM     13  C   UNL     1       5.765   4.039  13.969  0.00  0.00    +0.000 A 
ATOM     14  O   UNL     1       5.596   3.536  12.859  0.00  0.00    +0.000 OA
ATOM     15  C   UNL     1       4.821   3.771  15.074  0.00  0.00    +0.000 A 
ATOM     16  C   UNL     1       5.028   4.311  16.293  0.00  0.00    +0.000 A 
ENDROOT
BRANCH   1  18
ATOM     17  C   UNL     1       1.410   2.715  21.637  0.00  0.00    +0.000 C 
ATOM     18  N   UNL     1       1.184   3.628  20.529  0.00  0.00    +0.000 N 
ATOM     19  H   UNL     1       0.900   4.553  20.840  0.00  0.00    +0.000 HD
ENDBRANCH   1  18
BRANCH  12  20
ATOM     20  C   UNL     1       7.908   5.282  13.198  0.00  0.00    +0.000 C 
ATOM     21  O   UNL     1       8.905   5.949  13.440  0.00  0.00    +0.000 OA
BRANCH  20  22
ATOM     22  O   UNL     1       7.646   4.804  11.962  0.00  0.00    +0.000 OA
ATOM     23  H   UNL     1       8.447   4.657  11.404  0.00  0.00    +0.000 HD
ENDBRANCH  20  22
ENDBRANCH  12  20
TORSDOF 3
ENDMDL
MODEL 3
REMARK VINA RESULT:      -7.6      2.438      3.811
REMARK  Name = 
REMARK  5 active torsions:
REMARK  status: ('A' for Active; 'I' for Inactive)
REMARK    1  A    between atoms: C_1  and  N_2
REMARK    2  A    between atoms: N_2  and  C_3
REMARK    3  A    between atoms: C_10  and  C_11
REMARK    4  A    between atoms: C_14  and  C_15
REMARK    5  A    between atoms: C_15  and  O_17
REMARK                            x       y       z     vdW  Elec       q    Type
REMARK                         _______ _______ _______ _____ _____    ______ ____
ROOT
ATOM      1  C   UNL     1       0.607   8.981  20.474  0.00  0.00    +0.000 A 
ATOM      2  C   UNL     1       1.141   9.458  19.283  0.00  0.00    +0.000 A 
ATOM      3  C   UNL     1       2.048   8.692  18.536  0.00  0.00    +0.000 A 
ATOM      4  C   UNL     1       2.489   7.422  18.957  0.00  0.00    +0.000 A 
ATOM      5  C   UNL     1       1.973   6.948  20.166  0.00  0.00    +0.000 A 
ATOM      6  C   UNL     1       1.062   7.734  20.914  0.00  0.00    +0.000 A 
ATOM      7  C   UNL     1       2.408   5.641  20.759  0.00  0.00    +0.000 C 
ATOM      8  C   UNL     1       3.287   4.727  19.894  0.00  0.00    +0.000 C 
ATOM      9  C   UNL     1       2.503   3.478  19.463  0.00  0.00    +0.000 C 
ATOM     10  N   UNL     1       3.915   5.377  18.715  0.00  0.00    +0.000 N 
ATOM     11  C   UNL     1       4.924   4.683  18.035  0.00  0.00    +0.000 A 
ATOM     12  C   UNL     1       5.513   5.066  16.893  0.00  0.00    +0.000 A 
ATOM     13  C   UNL     1       5.060   6.343  16.331  0.00  0.00    +0.000 A 
ATOM     14  O   UNL     1       5.537   6.770  15.280  0.00  0.00    +0.000 OA
ATOM     15  C   UNL     1       4.030   7.111  17.063  0.00  0.00    +0.000 A 
ATOM     16  C   UNL     1       3.499   6.623  18.203  0.00  0.00    +0.000 A 
ENDROOT
BRANCH   1  18
ATOM     17  C   UNL     1      -0.325   9.374  22.710  0.00  0.00    +0.000 C 
ATOM     18  N   UNL     1      -0.224   9.737  21.306  0.00  0.00    +0.000 N 
ATOM     19  H   UNL     1      -0.092  10.736  21.172  0.00  0.00    +0.000 HD
ENDBRANCH   1  18
BRANCH  12  20
ATOM     20  C   UNL     1       6.539   4.213  16.264  0.00  0.00    +0.000 C 
ATOM     21  O   UNL     1       7.740   4.426  16.363  0.00  0.00    +0.000 OA
BRANCH  20  22
ATOM     22  O   UNL     1       6.051   3.164  15.568  0.00  0.00    +0.000 OA
ATOM     23  H   UNL     1       6.666   2.394  15.506  0.00  0.00    +0.000 HD
ENDBRANCH  20  22
ENDBRANCH  12  20
TORSDOF 3
ENDMDL
MODEL 4
REMARK VINA RESULT:      -7.4      2.807      5.997
REMARK  Name = 
REMARK  5 active torsions:
REMARK  status: ('A' for Active; 'I' for Inactive)
REMARK    1  A    between atoms: C_1  and  N_2
REMARK    2  A    between atoms: N_2  and  C_3
REMARK    3  A    between atoms: C_10  and  C_11
REMARK    4  A    between atoms: C_14  and  C_15
REMARK    5  A    between atoms: C_15  and  O_17
REMARK                            x       y       z     vdW  Elec       q    Type
REMARK                         _______ _______ _______ _____ _____    ______ ____
ROOT
ATOM      1  C   UNL     1       6.931   5.146  14.421  0.00  0.00    +0.000 A 
ATOM      2  C   UNL     1       6.471   3.844  14.569  0.00  0.00    +0.000 A 
ATOM      3  C   UNL     1       5.570   3.504  15.590  0.00  0.00    +0.000 A 
ATOM      4  C   UNL     1       5.108   4.444  16.532  0.00  0.00    +0.000 A 
ATOM      5  C   UNL     1       5.588   5.750  16.402  0.00  0.00    +0.000 A 
ATOM      6  C   UNL     1       6.501   6.079  15.370  0.00  0.00    +0.000 A 
ATOM      7  C   UNL     1       5.224   6.831  17.376  0.00  0.00    +0.000 C 
ATOM      8  C   UNL     1       4.136   6.518  18.411  0.00  0.00    +0.000 C 
ATOM      9  C   UNL     1       2.860   7.320  18.110  0.00  0.00    +0.000 C 
ATOM     10  N   UNL     1       3.814   5.077  18.581  0.00  0.00    +0.000 N 
ATOM     11  C   UNL     1       3.028   4.699  19.677  0.00  0.00    +0.000 A 
ATOM     12  C   UNL     1       2.549   3.470  19.917  0.00  0.00    +0.000 A 
ATOM     13  C   UNL     1       2.912   2.435  18.943  0.00  0.00    +0.000 A 
ATOM     14  O   UNL     1       2.510   1.280  19.076  0.00  0.00    +0.000 OA
ATOM     15  C   UNL     1       3.781   2.808  17.807  0.00  0.00    +0.000 A 
ATOM     16  C   UNL     1       4.199   4.082  17.659  0.00  0.00    +0.000 A 
ENDROOT
BRANCH   1  18
ATOM     17  C   UNL     1       7.675   5.208  12.083  0.00  0.00    +0.000 C 
ATOM     18  N   UNL     1       7.899   5.522  13.485  0.00  0.00    +0.000 N 
ATOM     19  H   UNL     1       8.212   6.479  13.623  0.00  0.00    +0.000 HD
ENDBRANCH   1  18
BRANCH  12  20
ATOM     20  C   UNL     1       1.698   3.221  21.096  0.00  0.00    +0.000 C 
ATOM     21  O   UNL     1       2.105   3.307  22.247  0.00  0.00    +0.000 OA
BRANCH  20  22
ATOM     22  O   UNL     1       0.419   2.893  20.809  0.00  0.00    +0.000 OA
ATOM     23  H   UNL     1       0.236   2.775  19.846  0.00  0.00    +0.000 HD
ENDBRANCH  20  22
ENDBRANCH  12  20
TORSDOF 3
ENDMDL
MODEL 5
REMARK VINA RESULT:      -7.3      0.830      1.105
REMARK  Name = 
REMARK  5 active torsions:
REMARK  status: ('A' for Active; 'I' for Inactive)
REMARK    1  A    between atoms: C_1  and  N_2
REMARK    2  A    between atoms: N_2  and  C_3
REMARK    3  A    between atoms: C_10  and  C_11
REMARK    4  A    between atoms: C_14  and  C_15
REMARK    5  A    between atoms: C_15  and  O_17
REMARK                            x       y       z     vdW  Elec       q    Type
REMARK                         _______ _______ _______ _____ _____    ______ ____
ROOT
ATOM      1  C   UNL     1       1.157  10.077  18.878  0.00  0.00    +0.000 A 
ATOM      2  C   UNL     1       0.802   9.318  19.986  0.00  0.00    +0.000 A 
ATOM      3  C   UNL     1       1.346   8.042  20.196  0.00  0.00    +0.000 A 
ATOM      4  C   UNL     1       2.250   7.450  19.293  0.00  0.00    +0.000 A 
ATOM      5  C   UNL     1       2.591   8.199  18.164  0.00  0.00    +0.000 A 
ATOM      6  C   UNL     1       2.031   9.485  17.961  0.00  0.00    +0.000 A 
ATOM      7  C   UNL     1       3.494   7.660  17.094  0.00  0.00    +0.000 C 
ATOM      8  C   UNL     1       4.208   6.331  17.371  0.00  0.00    +0.000 C 
ATOM      9  C   UNL     1       5.716   6.559  17.559  0.00  0.00    +0.000 C 
ATOM     10  N   UNL     1       3.660   5.536  18.502  0.00  0.00    +0.000 N 
ATOM     11  C   UNL     1       4.088   4.211  18.648  0.00  0.00    +0.000 A 
ATOM     12  C   UNL     1       3.787   3.393  19.668  0.00  0.00    +0.000 A 
ATOM     13  C   UNL     1       2.912   3.951  20.705  0.00  0.00    +0.000 A 
ATOM     14  O   UNL     1       2.592   3.278  21.683  0.00  0.00    +0.000 OA
ATOM     15  C   UNL     1       2.413   5.333  20.540  0.00  0.00    +0.000 A 
ATOM     16  C   UNL     1       2.788   6.069  19.473  0.00  0.00    +0.000 A 
ENDROOT
BRANCH   1  18
ATOM     17  C   UNL     1      -0.868  11.390  18.429  0.00  0.00    +0.000 C 
ATOM     18  N   UNL     1       0.577  11.311  18.568  0.00  0.00    +0.000 N 
ATOM     19  H   UNL     1       0.953  12.064  19.138  0.00  0.00    +0.000 HD
ENDBRANCH   1  18
BRANCH  12  20
ATOM     20  C   UNL     1       4.341   2.027  19.713  0.00  0.00    +0.000 C 
ATOM     21  O   UNL     1       5.091   1.636  20.597  0.00  0.00    +0.000 OA
BRANCH  20  22
ATOM     22  O   UNL     1       3.949   1.227  18.697  0.00  0.00    +0.000 OA
ATOM     23  H   UNL     1       3.420   1.684  18.000  0.00  0.00    +0.000 HD
ENDBRANCH  20  22
ENDBRANCH  12  20
TORSDOF 3
ENDMDL
MODEL 6
REMARK VINA RESULT:      -7.1      3.876      7.107
REMARK  Name = 
REMARK  5 active torsions:
REMARK  status: ('A' for Active; 'I' for Inactive)
REMARK    1  A    between atoms: C_1  and  N_2
REMARK    2  A    between atoms: N_2  and  C_3
REMARK    3  A    between atoms: C_10  and  C_11
REMARK    4  A    between atoms: C_14  and  C_15
REMARK    5  A    between atoms: C_15  and  O_17
REMARK                            x       y       z     vdW  Elec       q    Type
REMARK                         _______ _______ _______ _____ _____    ______ ____
ROOT
ATOM      1  C   UNL     1       3.442   5.937  18.262  0.00  0.00    +0.000 A 
ATOM      2  C   UNL     1       3.210   5.743  19.618  0.00  0.00    +0.000 A 
ATOM      3  C   UNL     1       2.437   6.650  20.359  0.00  0.00    +0.000 A 
ATOM      4  C   UNL     1       1.883   7.812  19.787  0.00  0.00    +0.000 A 
ATOM      5  C   UNL     1       2.135   8.024  18.429  0.00  0.00    +0.000 A 
ATOM      6  C   UNL     1       2.921   7.103  17.693  0.00  0.00    +0.000 A 
ATOM      7  C   UNL     1       1.656   9.252  17.713  0.00  0.00    +0.000 C 
ATOM      8  C   UNL     1       0.695  10.182  18.465  0.00  0.00    +0.000 C 
ATOM      9  C   UNL     1      -0.710  10.119  17.846  0.00  0.00    +0.000 C 
ATOM     10  N   UNL     1       0.623   9.972  19.934  0.00  0.00    +0.000 N 
ATOM     11  C   UNL     1      -0.026  10.940  20.711  0.00  0.00    +0.000 A 
ATOM     12  C   UNL     1      -0.282  10.855  22.025  0.00  0.00    +0.000 A 
ATOM     13  C   UNL     1       0.188   9.638  22.696  0.00  0.00    +0.000 A 
ATOM     14  O   UNL     1      -0.011   9.469  23.898  0.00  0.00    +0.000 OA
ATOM     15  C   UNL     1       0.918   8.630  21.899  0.00  0.00    +0.000 A 
ATOM     16  C   UNL     1       1.112   8.816  20.577  0.00  0.00    +0.000 A 
ENDROOT
BRANCH   1  18
ATOM     17  C   UNL     1       3.927   3.721  17.326  0.00  0.00    +0.000 C 
ATOM     18  N   UNL     1       4.280   5.120  17.497  0.00  0.00    +0.000 N 
ATOM     19  H   UNL     1       4.548   5.562  16.621  0.00  0.00    +0.000 HD
ENDBRANCH   1  18
BRANCH  12  20
ATOM     20  C   UNL     1      -1.012  11.938  22.711  0.00  0.00    +0.000 C 
ATOM     21  O   UNL     1      -0.663  13.110  22.673  0.00  0.00    +0.000 OA
BRANCH  20  22
ATOM     22  O   UNL     1      -2.111  11.537  23.387  0.00  0.00    +0.000 OA
ATOM     23  H   UNL     1      -2.685  12.275  23.705  0.00  0.00    +0.000 HD
ENDBRANCH  20  22
ENDBRANCH  12  20
TORSDOF 3
ENDMDL
MODEL 7
REMARK VINA RESULT:      -7.0      2.171      3.513
REMARK  Name = 
REMARK  5 active torsions:
REMARK  status: ('A' for Active; 'I' for Inactive)
REMARK    1  A    between atoms: C_1  and  N_2
REMARK    2  A    between atoms: N_2  and  C_3
REMARK    3  A    between atoms: C_10  and  C_11
REMARK    4  A    between atoms: C_14  and  C_15
REMARK    5  A    between atoms: C_15  and  O_17
REMARK                            x       y       z     vdW  Elec       q    Type
REMARK                         _______ _______ _______ _____ _____    ______ ____
ROOT
ATOM      1  C   UNL     1      -0.077  10.448  19.650  0.00  0.00    +0.000 A 
ATOM      2  C   UNL     1       0.643  10.569  18.468  0.00  0.00    +0.000 A 
ATOM      3  C   UNL     1       1.573   9.593  18.081  0.00  0.00    +0.000 A 
ATOM      4  C   UNL     1       1.851   8.461  18.872  0.00  0.00    +0.000 A 
ATOM      5  C   UNL     1       1.147   8.347  20.074  0.00  0.00    +0.000 A 
ATOM      6  C   UNL     1       0.214   9.342  20.455  0.00  0.00    +0.000 A 
ATOM      7  C   UNL     1       1.394   7.224  21.037  0.00  0.00    +0.000 C 
ATOM      8  C   UNL     1       2.300   6.076  20.571  0.00  0.00    +0.000 C 
ATOM      9  C   UNL     1       1.479   4.793  20.364  0.00  0.00    +0.000 C 
ATOM     10  N   UNL     1       3.126   6.362  19.370  0.00  0.00    +0.000 N 
ATOM     11  C   UNL     1       4.154   5.469  19.044  0.00  0.00    +0.000 A 
ATOM     12  C   UNL     1       4.915   5.510  17.940  0.00  0.00    +0.000 A 
ATOM     13  C   UNL     1       4.644   6.613  17.012  0.00  0.00    +0.000 A 
ATOM     14  O   UNL     1       5.285   6.725  15.968  0.00  0.00    +0.000 OA
ATOM     15  C   UNL     1       3.594   7.592  17.365  0.00  0.00    +0.000 A 
ATOM     16  C   UNL     1       2.883   7.447  18.502  0.00  0.00    +0.000 A 
ENDROOT
BRANCH   1  18
ATOM     17  C   UNL     1      -1.858  12.075  19.201  0.00  0.00    +0.000 C 
ATOM     18  N   UNL     1      -0.945  11.433  20.131  0.00  0.00    +0.000 N 
ATOM     19  H   UNL     1      -1.405  11.148  20.992  0.00  0.00    +0.000 HD
ENDBRANCH   1  18
BRANCH  12  20
ATOM     20  C   UNL     1       5.941   4.477  17.707  0.00  0.00    +0.000 C 
ATOM     21  O   UNL     1       6.930   4.342  18.414  0.00  0.00    +0.000 OA
BRANCH  20  22
ATOM     22  O   UNL     1       5.703   3.677  16.644  0.00  0.00    +0.000 OA
ATOM     23  H   UNL     1       6.458   3.089  16.400  0.00  0.00    +0.000 HD
ENDBRANCH  20  22
ENDBRANCH  12  20
TORSDOF 3
ENDMDL
MODEL 8
REMARK VINA RESULT:      -6.9      4.416      6.378
REMARK  Name = 
REMARK  5 active torsions:
REMARK  status: ('A' for Active; 'I' for Inactive)
REMARK    1  A    between atoms: C_1  and  N_2
REMARK    2  A    between atoms: N_2  and  C_3
REMARK    3  A    between atoms: C_10  and  C_11
REMARK    4  A    between atoms: C_14  and  C_15
REMARK    5  A    between atoms: C_15  and  O_17
REMARK                            x       y       z     vdW  Elec       q    Type
REMARK                         _______ _______ _______ _____ _____    ______ ____
ROOT
ATOM      1  C   UNL     1       6.755   4.569  13.711  0.00  0.00    +0.000 A 
ATOM      2  C   UNL     1       5.424   4.188  13.596  0.00  0.00    +0.000 A 
ATOM      3  C   UNL     1       4.632   3.968  14.733  0.00  0.00    +0.000 A 
ATOM      4  C   UNL     1       5.139   4.089  16.041  0.00  0.00    +0.000 A 
ATOM      5  C   UNL     1       6.485   4.448  16.162  0.00  0.00    +0.000 A 
ATOM      6  C   UNL     1       7.275   4.664  15.006  0.00  0.00    +0.000 A 
ATOM      7  C   UNL     1       7.164   4.550  17.494  0.00  0.00    +0.000 C 
ATOM      8  C   UNL     1       6.286   4.452  18.749  0.00  0.00    +0.000 C 
ATOM      9  C   UNL     1       6.212   5.811  19.461  0.00  0.00    +0.000 C 
ATOM     10  N   UNL     1       4.921   3.907  18.530  0.00  0.00    +0.000 N 
ATOM     11  C   UNL     1       4.163   3.549  19.652  0.00  0.00    +0.000 A 
ATOM     12  C   UNL     1       2.882   3.153  19.645  0.00  0.00    +0.000 A 
ATOM     13  C   UNL     1       2.240   3.073  18.328  0.00  0.00    +0.000 A 
ATOM     14  O   UNL     1       1.063   2.729  18.225  0.00  0.00    +0.000 OA
ATOM     15  C   UNL     1       3.041   3.401  17.130  0.00  0.00    +0.000 A 
ATOM     16  C   UNL     1       4.325   3.797  17.257  0.00  0.00    +0.000 A 
ENDROOT
BRANCH   1  18
ATOM     17  C   UNL     1       8.459   5.892  12.540  0.00  0.00    +0.000 C 
ATOM     18  N   UNL     1       7.616   4.710  12.618  0.00  0.00    +0.000 N 
ATOM     19  H   UNL     1       8.130   3.854  12.424  0.00  0.00    +0.000 HD
ENDBRANCH   1  18
BRANCH  12  20
ATOM     20  C   UNL     1       2.193   2.842  20.911  0.00  0.00    +0.000 C 
ATOM     21  O   UNL     1       2.776   2.449  21.913  0.00  0.00    +0.000 OA
BRANCH  20  22
ATOM     22  O   UNL     1       0.855   3.031  20.887  0.00  0.00    +0.000 OA
ATOM     23  H   UNL     1       0.519   3.651  21.578  0.00  0.00    +0.000 HD
ENDBRANCH  20  22
ENDBRANCH  12  20
TORSDOF 3
ENDMDL
MODEL 9
REMARK VINA RESULT:      -6.9      1.053      1.280
REMARK  Name = 
REMARK  5 active torsions:
REMARK  status: ('A' for Active; 'I' for Inactive)
REMARK    1  A    between atoms: C_1  and  N_2
REMARK    2  A    between atoms: N_2  and  C_3
REMARK    3  A    between atoms: C_10  and  C_11
REMARK    4  A    between atoms: C_14  and  C_15
REMARK    5  A    between atoms: C_15  and  O_17
REMARK                            x       y       z     vdW  Elec       q    Type
REMARK                         _______ _______ _______ _____ _____    ______ ____
ROOT
ATOM      1  C   UNL     1       0.821  10.423  20.746  0.00  0.00    +0.000 A 
ATOM      2  C   UNL     1       0.738   9.456  21.740  0.00  0.00    +0.000 A 
ATOM      3  C   UNL     1       1.166   8.140  21.510  0.00  0.00    +0.000 A 
ATOM      4  C   UNL     1       1.670   7.718  20.265  0.00  0.00    +0.000 A 
ATOM      5  C   UNL     1       1.734   8.681  19.254  0.00  0.00    +0.000 A 
ATOM      6  C   UNL     1       1.294  10.006  19.498  0.00  0.00    +0.000 A 
ATOM      7  C   UNL     1       2.192   8.348  17.866  0.00  0.00    +0.000 C 
ATOM      8  C   UNL     1       2.794   6.956  17.632  0.00  0.00    +0.000 C 
ATOM      9  C   UNL     1       4.302   7.061  17.357  0.00  0.00    +0.000 C 
ATOM     10  N   UNL     1       2.531   5.959  18.702  0.00  0.00    +0.000 N 
ATOM     11  C   UNL     1       2.822   4.614  18.441  0.00  0.00    +0.000 A 
ATOM     12  C   UNL     1       2.757   3.607  19.325  0.00  0.00    +0.000 A 
ATOM     13  C   UNL     1       2.316   3.965  20.677  0.00  0.00    +0.000 A 
ATOM     14  O   UNL     1       2.235   3.108  21.557  0.00  0.00    +0.000 OA
ATOM     15  C   UNL     1       1.958   5.372  20.955  0.00  0.00    +0.000 A 
ATOM     16  C   UNL     1       2.070   6.307  19.989  0.00  0.00    +0.000 A 
ENDROOT
BRANCH   1  18
ATOM     17  C   UNL     1      -0.596  12.004  21.976  0.00  0.00    +0.000 C 
ATOM     18  N   UNL     1       0.325  11.722  20.888  0.00  0.00    +0.000 N 
ATOM     19  H   UNL     1       1.058  12.422  20.809  0.00  0.00    +0.000 HD
ENDBRANCH   1  18
BRANCH  12  20
ATOM     20  C   UNL     1       3.131   2.239  18.921  0.00  0.00    +0.000 C 
ATOM     21  O   UNL     1       4.158   1.687  19.293  0.00  0.00    +0.000 OA
BRANCH  20  22
ATOM     22  O   UNL     1       2.243   1.630  18.104  0.00  0.00    +0.000 OA
ATOM     23  H   UNL     1       2.485   0.704  17.859  0.00  0.00    +0.000 HD
ENDBRANCH  20  22
ENDBRANCH  12  20
TORSDOF 3
ENDMDL
