MODEL 1
REMARK VINA RESULT:      -7.5      0.000      0.000
REMARK  Name = 
REMARK  5 active torsions:
REMARK  status: ('A' for Active; 'I' for Inactive)
REMARK    1  A    between atoms: N_12  and  C_13
REMARK    2  A    between atoms: C_13  and  C_14
REMARK    3  A    between atoms: C_14  and  N_15
REMARK    4  A    between atoms: C_18  and  C_19
REMARK    5  A    between atoms: C_19  and  C_20
REMARK                            x       y       z     vdW  Elec       q    Type
REMARK                         _______ _______ _______ _____ _____    ______ ____
ROOT
ATOM      1  C   UNL     1       2.752   7.097  19.943  0.00  0.00    +0.000 C 
ENDROOT
BRANCH   1  13
ATOM      2  O   UNL     1       2.670   8.120  17.357  0.00  0.00    +0.000 OA
ATOM      3  C   UNL     1       1.958   8.631  18.220  0.00  0.00    +0.000 A 
ATOM      4  N   UNL     1       1.199   9.719  17.892  0.00  0.00    +0.000 N 
ATOM      5  C   UNL     1       0.398  10.407  18.799  0.00  0.00    +0.000 A 
ATOM      6  C   UNL     1      -0.272  11.561  18.402  0.00  0.00    +0.000 A 
ATOM      7  C   UNL     1      -1.039  12.268  19.334  0.00  0.00    +0.000 A 
ATOM      8  C   UNL     1      -1.140  11.815  20.651  0.00  0.00    +0.000 A 
ATOM      9  C   UNL     1      -0.483  10.647  21.039  0.00  0.00    +0.000 A 
ATOM     10  C   UNL     1       0.287   9.945  20.106  0.00  0.00    +0.000 A 
ATOM     11  C   UNL     1       1.023   8.727  20.489  0.00  0.00    +0.000 A 
ATOM     12  O   UNL     1       0.872   8.258  21.612  0.00  0.00    +0.000 OA
ATOM     13  N   UNL     1       1.877   8.186  19.525  0.00  0.00    +0.000 N 
ATOM     14  H   UNL     1       1.301  10.047  16.940  0.00  0.00    +0.000 HD
ENDBRANCH   1  13
BRANCH   1  15
ATOM     15  C   UNL     1       2.120   5.699  19.792  0.00  0.00    +0.000 C 
BRANCH  15  16
ATOM     16  N   UNL     1       3.019   4.736  19.112  0.00  0.00    +0.000 NA
ATOM     17  C   UNL     1       2.532   4.414  17.759  0.00  0.00    +0.000 C 
ATOM     18  C   UNL     1       3.454   3.427  17.045  0.00  0.00    +0.000 C 
ATOM     19  C   UNL     1       4.887   3.955  16.949  0.00  0.00    +0.000 C 
ATOM     20  C   UNL     1       5.355   4.285  18.376  0.00  0.00    +0.000 C 
ATOM     21  C   UNL     1       4.401   5.245  19.091  0.00  0.00    +0.000 C 
BRANCH  19  22
ATOM     22  C   UNL     1       4.983   5.157  15.975  0.00  0.00    +0.000 C 
BRANCH  22  23
ATOM     23  C   UNL     1       5.697   4.810  14.691  0.00  0.00    +0.000 A 
ATOM     24  C   UNL     1       5.107   3.941  13.763  0.00  0.00    +0.000 A 
ATOM     25  C   UNL     1       5.820   3.515  12.644  0.00  0.00    +0.000 A 
ATOM     26  C   UNL     1       7.117   3.974  12.427  0.00  0.00    +0.000 A 
ATOM     27  C   UNL     1       7.694   4.880  13.316  0.00  0.00    +0.000 A 
ATOM     28  C   UNL     1       6.986   5.299  14.441  0.00  0.00    +0.000 A 
ENDBRANCH  22  23
ENDBRANCH  19  22
ENDBRANCH  15  16
ENDBRANCH   1  15
TORSDOF 5
ENDMDL
MODEL 2
REMARK VINA RESULT:      -7.4      1.766      2.337
REMARK  Name = 
REMARK  5 active torsions:
REMARK  status: ('A' for Active; 'I' for Inactive)
REMARK    1  A    between atoms: N_12  and  C_13
REMARK    2  A    between atoms: C_13  and  C_14
REMARK    3  A    between atoms: C_14  and  N_15
REMARK    4  A    between atoms: C_18  and  C_19
REMARK    5  A    between atoms: C_19  and  C_20
REMARK                            x       y       z     vdW  Elec       q    Type
REMARK                         _______ _______ _______ _____ _____    ______ ____
ROOT
ATOM      1  C   UNL     1       2.425   7.159  19.787  0.00  0.00    +0.000 C 
ENDROOT
BRANCH   1  13
ATOM      2  O   UNL     1       2.442   8.384  17.288  0.00  0.00    +0.000 OA
ATOM      3  C   UNL     1       1.839   8.928  18.213  0.00  0.00    +0.000 A 
ATOM      4  N   UNL     1       1.252  10.143  17.994  0.00  0.00    +0.000 N 
ATOM      5  C   UNL     1       0.590  10.872  18.978  0.00  0.00    +0.000 A 
ATOM      6  C   UNL     1       0.099  12.143  18.692  0.00  0.00    +0.000 A 
ATOM      7  C   UNL     1      -0.525  12.884  19.701  0.00  0.00    +0.000 A 
ATOM      8  C   UNL     1      -0.663  12.349  20.983  0.00  0.00    +0.000 A 
ATOM      9  C   UNL     1      -0.188  11.066  21.259  0.00  0.00    +0.000 A 
ATOM     10  C   UNL     1       0.440  10.331  20.250  0.00  0.00    +0.000 A 
ATOM     11  C   UNL     1       0.985   8.988  20.514  0.00  0.00    +0.000 A 
ATOM     12  O   UNL     1       0.790   8.460  21.604  0.00  0.00    +0.000 OA
ATOM     13  N   UNL     1       1.721   8.400  19.482  0.00  0.00    +0.000 N 
ATOM     14  H   UNL     1       1.381  10.525  17.065  0.00  0.00    +0.000 HD
ENDBRANCH   1  13
BRANCH   1  15
ATOM     15  C   UNL     1       1.529   5.906  19.729  0.00  0.00    +0.000 C 
BRANCH  15  16
ATOM     16  N   UNL     1       2.255   4.705  19.250  0.00  0.00    +0.000 NA
ATOM     17  C   UNL     1       1.890   4.380  17.861  0.00  0.00    +0.000 C 
ATOM     18  C   UNL     1       2.638   3.147  17.353  0.00  0.00    +0.000 C 
ATOM     19  C   UNL     1       4.154   3.325  17.443  0.00  0.00    +0.000 C 
ATOM     20  C   UNL     1       4.494   3.670  18.902  0.00  0.00    +0.000 C 
ATOM     21  C   UNL     1       3.709   4.884  19.408  0.00  0.00    +0.000 C 
BRANCH  19  22
ATOM     22  C   UNL     1       4.662   4.379  16.426  0.00  0.00    +0.000 C 
BRANCH  22  23
ATOM     23  C   UNL     1       5.804   5.206  16.967  0.00  0.00    +0.000 A 
ATOM     24  C   UNL     1       6.874   4.592  17.630  0.00  0.00    +0.000 A 
ATOM     25  C   UNL     1       7.858   5.364  18.245  0.00  0.00    +0.000 A 
ATOM     26  C   UNL     1       7.797   6.754  18.181  0.00  0.00    +0.000 A 
ATOM     27  C   UNL     1       6.765   7.374  17.478  0.00  0.00    +0.000 A 
ATOM     28  C   UNL     1       5.774   6.604  16.870  0.00  0.00    +0.000 A 
ENDBRANCH  22  23
ENDBRANCH  19  22
ENDBRANCH  15  16
ENDBRANCH   1  15
TORSDOF 5
ENDMDL
MODEL 3
REMARK VINA RESULT:      -7.3      3.253      5.600
REMARK  Name = 
REMARK  5 active torsions:
REMARK  status: ('A' for Active; 'I' for Inactive)
REMARK    1  A    between atoms: N_12  and  C_13
REMARK    2  A    between atoms: C_13  and  C_14
REMARK    3  A    between atoms: C_14  and  N_15
REMARK    4  A    between atoms: C_18  and  C_19
REMARK    5  A    between atoms: C_19  and  C_20
REMARK                            x       y       z     vdW  Elec       q    Type
REMARK                         _______ _______ _______ _____ _____    ______ ____
ROOT
ATOM      1  C   UNL     1      -0.655  10.740  18.533  0.00  0.00    +0.000 C 
ENDROOT
BRANCH   1  13
ATOM      2  O   UNL     1      -1.060  13.031  20.059  0.00  0.00    +0.000 OA
ATOM      3  C   UNL     1      -2.030  12.493  19.526  0.00  0.00    +0.000 A 
ATOM      4  N   UNL     1      -3.277  13.005  19.752  0.00  0.00    +0.000 N 
ATOM      5  C   UNL     1      -4.447  12.449  19.244  0.00  0.00    +0.000 A 
ATOM      6  C   UNL     1      -5.683  12.981  19.599  0.00  0.00    +0.000 A 
ATOM      7  C   UNL     1      -6.854  12.386  19.117  0.00  0.00    +0.000 A 
ATOM      8  C   UNL     1      -6.782  11.272  18.279  0.00  0.00    +0.000 A 
ATOM      9  C   UNL     1      -5.540  10.754  17.910  0.00  0.00    +0.000 A 
ATOM     10  C   UNL     1      -4.373  11.348  18.397  0.00  0.00    +0.000 A 
ATOM     11  C   UNL     1      -3.045  10.808  18.057  0.00  0.00    +0.000 A 
ATOM     12  O   UNL     1      -2.955   9.891  17.247  0.00  0.00    +0.000 OA
ATOM     13  N   UNL     1      -1.952  11.382  18.712  0.00  0.00    +0.000 N 
ATOM     14  H   UNL     1      -3.311  13.799  20.379  0.00  0.00    +0.000 HD
ENDBRANCH   1  13
BRANCH   1  15
ATOM     15  C   UNL     1      -0.160   9.979  19.779  0.00  0.00    +0.000 C 
BRANCH  15  16
ATOM     16  N   UNL     1       1.124   9.275  19.546  0.00  0.00    +0.000 NA
ATOM     17  C   UNL     1       1.154   7.977  20.243  0.00  0.00    +0.000 C 
ATOM     18  C   UNL     1       2.471   7.238  20.005  0.00  0.00    +0.000 C 
ATOM     19  C   UNL     1       2.736   7.013  18.516  0.00  0.00    +0.000 C 
ATOM     20  C   UNL     1       2.689   8.385  17.825  0.00  0.00    +0.000 C 
ATOM     21  C   UNL     1       1.379   9.130  18.103  0.00  0.00    +0.000 C 
BRANCH  19  22
ATOM     22  C   UNL     1       1.745   5.985  17.913  0.00  0.00    +0.000 C 
BRANCH  22  23
ATOM     23  C   UNL     1       2.202   4.558  18.097  0.00  0.00    +0.000 A 
ATOM     24  C   UNL     1       3.410   4.122  17.537  0.00  0.00    +0.000 A 
ATOM     25  C   UNL     1       3.767   2.776  17.592  0.00  0.00    +0.000 A 
ATOM     26  C   UNL     1       2.934   1.858  18.228  0.00  0.00    +0.000 A 
ATOM     27  C   UNL     1       1.756   2.291  18.835  0.00  0.00    +0.000 A 
ATOM     28  C   UNL     1       1.392   3.636  18.773  0.00  0.00    +0.000 A 
ENDBRANCH  22  23
ENDBRANCH  19  22
ENDBRANCH  15  16
ENDBRANCH   1  15
TORSDOF 5
ENDMDL
MODEL 4
REMARK VINA RESULT:      -7.2      2.258      3.369
REMARK  Name = 
REMARK  5 active torsions:
REMARK  status: ('A' for Active; 'I' for Inactive)
REMARK    1  A    between atoms: N_12  and  C_13
REMARK    2  A    between atoms: C_13  and  C_14
REMARK    3  A    between atoms: C_14  and  N_15
REMARK    4  A    between atoms: C_18  and  C_19
REMARK    5  A    between atoms: C_19  and  C_20
REMARK                            x       y       z     vdW  Elec       q    Type
REMARK                         _______ _______ _______ _____ _____    ______ ____
ROOT
ATOM      1  C   UNL     1       0.458   9.132  20.490  0.00  0.00    +0.000 C 
ENDROOT
BRANCH   1  13
ATOM      2  O   UNL     1       0.900   9.455  17.762  0.00  0.00    +0.000 OA
ATOM      3  C   UNL     1       1.120  10.402  18.516  0.00  0.00    +0.000 A 
ATOM      4  N   UNL     1       1.630  11.558  17.993  0.00  0.00    +0.000 N 
ATOM      5  C   UNL     1       1.964  12.672  18.757  0.00  0.00    +0.000 A 
ATOM      6  C   UNL     1       2.564  13.775  18.156  0.00  0.00    +0.000 A 
ATOM      7  C   UNL     1       2.936  14.872  18.942  0.00  0.00    +0.000 A 
ATOM      8  C   UNL     1       2.698  14.863  20.318  0.00  0.00    +0.000 A 
ATOM      9  C   UNL     1       2.079  13.764  20.912  0.00  0.00    +0.000 A 
ATOM     10  C   UNL     1       1.713  12.668  20.125  0.00  0.00    +0.000 A 
ATOM     11  C   UNL     1       1.089  11.475  20.725  0.00  0.00    +0.000 A 
ATOM     12  O   UNL     1       0.784  11.484  21.913  0.00  0.00    +0.000 OA
ATOM     13  N   UNL     1       0.898  10.380  19.878  0.00  0.00    +0.000 N 
ATOM     14  H   UNL     1       1.815  11.538  16.999  0.00  0.00    +0.000 HD
ENDBRANCH   1  13
BRANCH   1  15
ATOM     15  C   UNL     1       1.606   8.149  20.793  0.00  0.00    +0.000 C 
BRANCH  15  16
ATOM     16  N   UNL     1       1.536   6.917  19.970  0.00  0.00    +0.000 NA
ATOM     17  C   UNL     1       2.534   6.944  18.886  0.00  0.00    +0.000 C 
ATOM     18  C   UNL     1       2.477   5.676  18.034  0.00  0.00    +0.000 C 
ATOM     19  C   UNL     1       2.686   4.416  18.875  0.00  0.00    +0.000 C 
ATOM     20  C   UNL     1       1.634   4.428  19.996  0.00  0.00    +0.000 C 
ATOM     21  C   UNL     1       1.678   5.721  20.817  0.00  0.00    +0.000 C 
BRANCH  19  22
ATOM     22  C   UNL     1       4.142   4.317  19.397  0.00  0.00    +0.000 C 
BRANCH  22  23
ATOM     23  C   UNL     1       5.166   4.518  18.305  0.00  0.00    +0.000 A 
ATOM     24  C   UNL     1       5.003   3.903  17.057  0.00  0.00    +0.000 A 
ATOM     25  C   UNL     1       6.012   3.978  16.098  0.00  0.00    +0.000 A 
ATOM     26  C   UNL     1       7.179   4.689  16.366  0.00  0.00    +0.000 A 
ATOM     27  C   UNL     1       7.328   5.349  17.585  0.00  0.00    +0.000 A 
ATOM     28  C   UNL     1       6.325   5.267  18.550  0.00  0.00    +0.000 A 
ENDBRANCH  22  23
ENDBRANCH  19  22
ENDBRANCH  15  16
ENDBRANCH   1  15
TORSDOF 5
ENDMDL
MODEL 5
REMARK VINA RESULT:      -7.2      1.508      1.943
REMARK  Name = 
REMARK  5 active torsions:
REMARK  status: ('A' for Active; 'I' for Inactive)
REMARK    1  A    between atoms: N_12  and  C_13
REMARK    2  A    between atoms: C_13  and  C_14
REMARK    3  A    between atoms: C_14  and  N_15
REMARK    4  A    between atoms: C_18  and  C_19
REMARK    5  A    between atoms: C_19  and  C_20
REMARK                            x       y       z     vdW  Elec       q    Type
REMARK                         _______ _______ _______ _____ _____    ______ ____
ROOT
ATOM      1  C   UNL     1       2.145   7.434  20.378  0.00  0.00    +0.000 C 
ENDROOT
BRANCH   1  13
ATOM      2  O   UNL     1       2.231   8.278  17.728  0.00  0.00    +0.000 OA
ATOM      3  C   UNL     1       1.543   8.908  18.530  0.00  0.00    +0.000 A 
ATOM      4  N   UNL     1       0.895  10.034  18.104  0.00  0.00    +0.000 N 
ATOM      5  C   UNL     1       0.133  10.851  18.934  0.00  0.00    +0.000 A 
ATOM      6  C   UNL     1      -0.418  12.028  18.437  0.00  0.00    +0.000 A 
ATOM      7  C   UNL     1      -1.145  12.864  19.292  0.00  0.00    +0.000 A 
ATOM      8  C   UNL     1      -1.324  12.513  20.632  0.00  0.00    +0.000 A 
ATOM      9  C   UNL     1      -0.787  11.322  21.120  0.00  0.00    +0.000 A 
ATOM     10  C   UNL     1      -0.057  10.493  20.264  0.00  0.00    +0.000 A 
ATOM     11  C   UNL     1       0.555   9.244  20.753  0.00  0.00    +0.000 A 
ATOM     12  O   UNL     1       0.330   8.869  21.899  0.00  0.00    +0.000 OA
ATOM     13  N   UNL     1       1.385   8.564  19.858  0.00  0.00    +0.000 N 
ATOM     14  H   UNL     1       1.054  10.283  17.136  0.00  0.00    +0.000 HD
ENDBRANCH   1  13
BRANCH   1  15
ATOM     15  C   UNL     1       1.304   6.156  20.573  0.00  0.00    +0.000 C 
BRANCH  15  16
ATOM     16  N   UNL     1       2.069   4.919  20.287  0.00  0.00    +0.000 NA
ATOM     17  C   UNL     1       1.329   4.035  19.369  0.00  0.00    +0.000 C 
ATOM     18  C   UNL     1       2.111   2.759  19.059  0.00  0.00    +0.000 C 
ATOM     19  C   UNL     1       3.485   3.064  18.460  0.00  0.00    +0.000 C 
ATOM     20  C   UNL     1       4.221   3.992  19.441  0.00  0.00    +0.000 C 
ATOM     21  C   UNL     1       3.409   5.249  19.770  0.00  0.00    +0.000 C 
BRANCH  19  22
ATOM     22  C   UNL     1       3.362   3.651  17.031  0.00  0.00    +0.000 C 
BRANCH  22  23
ATOM     23  C   UNL     1       4.598   4.405  16.603  0.00  0.00    +0.000 A 
ATOM     24  C   UNL     1       5.737   3.713  16.170  0.00  0.00    +0.000 A 
ATOM     25  C   UNL     1       6.920   4.400  15.903  0.00  0.00    +0.000 A 
ATOM     26  C   UNL     1       6.969   5.786  16.042  0.00  0.00    +0.000 A 
ATOM     27  C   UNL     1       5.827   6.489  16.422  0.00  0.00    +0.000 A 
ATOM     28  C   UNL     1       4.645   5.802  16.698  0.00  0.00    +0.000 A 
ENDBRANCH  22  23
ENDBRANCH  19  22
ENDBRANCH  15  16
ENDBRANCH   1  15
TORSDOF 5
ENDMDL
MODEL 6
REMARK VINA RESULT:      -7.2      3.129      5.059
REMARK  Name = 
REMARK  5 active torsions:
REMARK  status: ('A' for Active; 'I' for Inactive)
REMARK    1  A    between atoms: N_12  and  C_13
REMARK    2  A    between atoms: C_13  and  C_14
REMARK    3  A    between atoms: C_14  and  N_15
REMARK    4  A    between atoms: C_18  and  C_19
REMARK    5  A    between atoms: C_19  and  C_20
REMARK                            x       y       z     vdW  Elec       q    Type
REMARK                         _______ _______ _______ _____ _____    ______ ____
ROOT
ATOM      1  C   UNL     1      -0.060  10.892  19.328  0.00  0.00    +0.000 C 
ENDROOT
BRANCH   1  13
ATOM      2  O   UNL     1      -1.560   9.766  17.272  0.00  0.00    +0.000 OA
ATOM      3  C   UNL     1      -2.108  10.548  18.048  0.00  0.00    +0.000 A 
ATOM      4  N   UNL     1      -3.417  10.882  17.836  0.00  0.00    +0.000 N 
ATOM      5  C   UNL     1      -4.121  11.794  18.617  0.00  0.00    +0.000 A 
ATOM      6  C   UNL     1      -5.424  12.144  18.275  0.00  0.00    +0.000 A 
ATOM      7  C   UNL     1      -6.106  13.095  19.042  0.00  0.00    +0.000 A 
ATOM      8  C   UNL     1      -5.487  13.681  20.148  0.00  0.00    +0.000 A 
ATOM      9  C   UNL     1      -4.188  13.312  20.498  0.00  0.00    +0.000 A 
ATOM     10  C   UNL     1      -3.508  12.365  19.727  0.00  0.00    +0.000 A 
ATOM     11  C   UNL     1      -2.122  11.977  20.046  0.00  0.00    +0.000 A 
ATOM     12  O   UNL     1      -1.594  12.406  21.066  0.00  0.00    +0.000 OA
ATOM     13  N   UNL     1      -1.484  11.137  19.130  0.00  0.00    +0.000 N 
ATOM     14  H   UNL     1      -3.842  10.464  17.018  0.00  0.00    +0.000 HD
ENDBRANCH   1  13
BRANCH   1  15
ATOM     15  C   UNL     1       0.244   9.652  20.192  0.00  0.00    +0.000 C 
BRANCH  15  16
ATOM     16  N   UNL     1       1.470   8.940  19.758  0.00  0.00    +0.000 NA
ATOM     17  C   UNL     1       1.526   7.581  20.324  0.00  0.00    +0.000 C 
ATOM     18  C   UNL     1       2.782   6.834  19.879  0.00  0.00    +0.000 C 
ATOM     19  C   UNL     1       2.882   6.745  18.355  0.00  0.00    +0.000 C 
ATOM     20  C   UNL     1       2.813   8.179  17.803  0.00  0.00    +0.000 C 
ATOM     21  C   UNL     1       1.568   8.927  18.289  0.00  0.00    +0.000 C 
BRANCH  19  22
ATOM     22  C   UNL     1       1.796   5.807  17.770  0.00  0.00    +0.000 C 
BRANCH  22  23
ATOM     23  C   UNL     1       2.117   4.346  17.975  0.00  0.00    +0.000 A 
ATOM     24  C   UNL     1       1.288   3.541  18.766  0.00  0.00    +0.000 A 
ATOM     25  C   UNL     1       1.655   2.230  19.064  0.00  0.00    +0.000 A 
ATOM     26  C   UNL     1       2.840   1.703  18.555  0.00  0.00    +0.000 A 
ATOM     27  C   UNL     1       3.646   2.479  17.723  0.00  0.00    +0.000 A 
ATOM     28  C   UNL     1       3.285   3.794  17.432  0.00  0.00    +0.000 A 
ENDBRANCH  22  23
ENDBRANCH  19  22
ENDBRANCH  15  16
ENDBRANCH   1  15
TORSDOF 5
ENDMDL
MODEL 7
REMARK VINA RESULT:      -7.2      1.771      3.143
REMARK  Name = 
REMARK  5 active torsions:
REMARK  status: ('A' for Active; 'I' for Inactive)
REMARK    1  A    between atoms: N_12  and  C_13
REMARK    2  A    between atoms: C_13  and  C_14
REMARK    3  A    between atoms: C_14  and  N_15
REMARK    4  A    between atoms: C_18  and  C_19
REMARK    5  A    between atoms: C_19  and  C_20
REMARK                            x       y       z     vdW  Elec       q    Type
REMARK                         _______ _______ _______ _____ _____    ______ ____
ROOT
ATOM      1  C   UNL     1       1.961   8.804  19.992  0.00  0.00    +0.000 C 
ENDROOT
BRANCH   1  13
ATOM      2  O   UNL     1       0.928  10.535  21.910  0.00  0.00    +0.000 OA
ATOM      3  C   UNL     1       0.375  10.465  20.813  0.00  0.00    +0.000 A 
ATOM      4  N   UNL     1      -0.762  11.194  20.599  0.00  0.00    +0.000 N 
ATOM      5  C   UNL     1      -1.498  11.152  19.419  0.00  0.00    +0.000 A 
ATOM      6  C   UNL     1      -2.694  11.857  19.318  0.00  0.00    +0.000 A 
ATOM      7  C   UNL     1      -3.447  11.772  18.142  0.00  0.00    +0.000 A 
ATOM      8  C   UNL     1      -2.998  10.993  17.074  0.00  0.00    +0.000 A 
ATOM      9  C   UNL     1      -1.789  10.305  17.173  0.00  0.00    +0.000 A 
ATOM     10  C   UNL     1      -1.041  10.388  18.350  0.00  0.00    +0.000 A 
ATOM     11  C   UNL     1       0.223   9.646  18.503  0.00  0.00    +0.000 A 
ATOM     12  O   UNL     1       0.685   9.034  17.545  0.00  0.00    +0.000 OA
ATOM     13  N   UNL     1       0.816   9.679  19.768  0.00  0.00    +0.000 N 
ATOM     14  H   UNL     1      -1.084  11.735  21.391  0.00  0.00    +0.000 HD
ENDBRANCH   1  13
BRANCH   1  15
ATOM     15  C   UNL     1       1.631   7.547  20.821  0.00  0.00    +0.000 C 
BRANCH  15  16
ATOM     16  N   UNL     1       1.605   6.312  20.002  0.00  0.00    +0.000 NA
ATOM     17  C   UNL     1       2.422   6.462  18.785  0.00  0.00    +0.000 C 
ATOM     18  C   UNL     1       2.410   5.192  17.935  0.00  0.00    +0.000 C 
ATOM     19  C   UNL     1       2.902   3.976  18.721  0.00  0.00    +0.000 C 
ATOM     20  C   UNL     1       2.032   3.858  19.983  0.00  0.00    +0.000 C 
ATOM     21  C   UNL     1       2.024   5.151  20.805  0.00  0.00    +0.000 C 
BRANCH  19  22
ATOM     22  C   UNL     1       4.419   4.074  19.025  0.00  0.00    +0.000 C 
BRANCH  22  23
ATOM     23  C   UNL     1       5.235   4.434  17.807  0.00  0.00    +0.000 A 
ATOM     24  C   UNL     1       5.092   3.708  16.618  0.00  0.00    +0.000 A 
ATOM     25  C   UNL     1       5.939   3.951  15.538  0.00  0.00    +0.000 A 
ATOM     26  C   UNL     1       6.917   4.939  15.626  0.00  0.00    +0.000 A 
ATOM     27  C   UNL     1       7.032   5.704  16.786  0.00  0.00    +0.000 A 
ATOM     28  C   UNL     1       6.193   5.454  17.872  0.00  0.00    +0.000 A 
ENDBRANCH  22  23
ENDBRANCH  19  22
ENDBRANCH  15  16
ENDBRANCH   1  15
TORSDOF 5
ENDMDL
MODEL 8
REMARK VINA RESULT:      -7.2      1.279      1.600
REMARK  Name = 
REMARK  5 active torsions:
REMARK  status: ('A' for Active; 'I' for Inactive)
REMARK    1  A    between atoms: N_12  and  C_13
REMARK    2  A    between atoms: C_13  and  C_14
REMARK    3  A    between atoms: C_14  and  N_15
REMARK    4  A    between atoms: C_18  and  C_19
REMARK    5  A    between atoms: C_19  and  C_20
REMARK                            x       y       z     vdW  Elec       q    Type
REMARK                         _______ _______ _______ _____ _____    ______ ____
ROOT
ATOM      1  C   UNL     1       2.483   6.820  18.703  0.00  0.00    +0.000 C 
ENDROOT
BRANCH   1  13
ATOM      2  O   UNL     1       2.140   9.275  17.439  0.00  0.00    +0.000 OA
ATOM      3  C   UNL     1       1.684   9.121  18.571  0.00  0.00    +0.000 A 
ATOM      4  N   UNL     1       1.080  10.179  19.190  0.00  0.00    +0.000 N 
ATOM      5  C   UNL     1       0.576  10.134  20.487  0.00  0.00    +0.000 A 
ATOM      6  C   UNL     1       0.057  11.285  21.073  0.00  0.00    +0.000 A 
ATOM      7  C   UNL     1      -0.406  11.238  22.393  0.00  0.00    +0.000 A 
ATOM      8  C   UNL     1      -0.357  10.042  23.112  0.00  0.00    +0.000 A 
ATOM      9  C   UNL     1       0.145   8.887  22.513  0.00  0.00    +0.000 A 
ATOM     10  C   UNL     1       0.611   8.939  21.197  0.00  0.00    +0.000 A 
ATOM     11  C   UNL     1       1.180   7.747  20.543  0.00  0.00    +0.000 A 
ATOM     12  O   UNL     1       1.145   6.665  21.121  0.00  0.00    +0.000 OA
ATOM     13  N   UNL     1       1.751   7.940  19.283  0.00  0.00    +0.000 N 
ATOM     14  H   UNL     1       1.073  11.043  18.662  0.00  0.00    +0.000 HD
ENDBRANCH   1  13
BRANCH   1  15
ATOM     15  C   UNL     1       3.655   6.324  19.574  0.00  0.00    +0.000 C 
BRANCH  15  16
ATOM     16  N   UNL     1       4.492   5.314  18.884  0.00  0.00    +0.000 NA
ATOM     17  C   UNL     1       3.764   4.693  17.764  0.00  0.00    +0.000 C 
ATOM     18  C   UNL     1       4.619   3.653  17.040  0.00  0.00    +0.000 C 
ATOM     19  C   UNL     1       5.924   4.256  16.516  0.00  0.00    +0.000 C 
ATOM     20  C   UNL     1       6.649   4.898  17.710  0.00  0.00    +0.000 C 
ATOM     21  C   UNL     1       5.766   5.910  18.447  0.00  0.00    +0.000 C 
BRANCH  19  22
ATOM     22  C   UNL     1       5.664   5.242  15.349  0.00  0.00    +0.000 C 
BRANCH  22  23
ATOM     23  C   UNL     1       6.050   4.670  14.006  0.00  0.00    +0.000 A 
ATOM     24  C   UNL     1       5.228   3.728  13.373  0.00  0.00    +0.000 A 
ATOM     25  C   UNL     1       5.648   3.101  12.201  0.00  0.00    +0.000 A 
ATOM     26  C   UNL     1       6.879   3.427  11.637  0.00  0.00    +0.000 A 
ATOM     27  C   UNL     1       7.681   4.401  12.231  0.00  0.00    +0.000 A 
ATOM     28  C   UNL     1       7.267   5.023  13.409  0.00  0.00    +0.000 A 
ENDBRANCH  22  23
ENDBRANCH  19  22
ENDBRANCH  15  16
ENDBRANCH   1  15
TORSDOF 5
ENDMDL
MODEL 9
REMARK VINA RESULT:      -7.2      1.582      2.245
REMARK  Name = 
REMARK  5 active torsions:
REMARK  status: ('A' for Active; 'I' for Inactive)
REMARK    1  A    between atoms: N_12  and  C_13
REMARK    2  A    between atoms: C_13  and  C_14
REMARK    3  A    between atoms: C_14  and  N_15
REMARK    4  A    between atoms: C_18  and  C_19
REMARK    5  A    between atoms: C_19  and  C_20
REMARK                            x       y       z     vdW  Elec       q    Type
REMARK                         _______ _______ _______ _____ _____    ______ ____
ROOT
ATOM      1  C   UNL     1       2.505   6.022  18.775  0.00  0.00    +0.000 C 
ENDROOT
BRANCH   1  13
ATOM      2  O   UNL     1       2.445   8.381  17.300  0.00  0.00    +0.000 OA
ATOM      3  C   UNL     1       1.965   8.376  18.433  0.00  0.00    +0.000 A 
ATOM      4  N   UNL     1       1.475   9.544  18.947  0.00  0.00    +0.000 N 
ATOM      5  C   UNL     1       0.957   9.666  20.234  0.00  0.00    +0.000 A 
ATOM      6  C   UNL     1       0.562  10.913  20.710  0.00  0.00    +0.000 A 
ATOM      7  C   UNL     1       0.085  11.031  22.020  0.00  0.00    +0.000 A 
ATOM      8  C   UNL     1      -0.005   9.905  22.839  0.00  0.00    +0.000 A 
ATOM      9  C   UNL     1       0.372   8.654  22.350  0.00  0.00    +0.000 A 
ATOM     10  C   UNL     1       0.854   8.540  21.043  0.00  0.00    +0.000 A 
ATOM     11  C   UNL     1       1.295   7.241  20.505  0.00  0.00    +0.000 A 
ATOM     12  O   UNL     1       1.135   6.224  21.172  0.00  0.00    +0.000 OA
ATOM     13  N   UNL     1       1.895   7.261  19.243  0.00  0.00    +0.000 N 
ATOM     14  H   UNL     1       1.568  10.353  18.347  0.00  0.00    +0.000 HD
ENDBRANCH   1  13
BRANCH   1  15
ATOM     15  C   UNL     1       3.855   5.700  19.446  0.00  0.00    +0.000 C 
BRANCH  15  16
ATOM     16  N   UNL     1       5.011   6.250  18.699  0.00  0.00    +0.000 NA
ATOM     17  C   UNL     1       6.251   5.525  19.027  0.00  0.00    +0.000 C 
ATOM     18  C   UNL     1       7.450   6.078  18.257  0.00  0.00    +0.000 C 
ATOM     19  C   UNL     1       7.227   6.028  16.744  0.00  0.00    +0.000 C 
ATOM     20  C   UNL     1       5.924   6.787  16.444  0.00  0.00    +0.000 C 
ATOM     21  C   UNL     1       4.739   6.245  17.251  0.00  0.00    +0.000 C 
BRANCH  19  22
ATOM     22  C   UNL     1       7.227   4.570  16.220  0.00  0.00    +0.000 C 
BRANCH  22  23
ATOM     23  C   UNL     1       6.967   4.486  14.735  0.00  0.00    +0.000 A 
ATOM     24  C   UNL     1       5.936   3.677  14.239  0.00  0.00    +0.000 A 
ATOM     25  C   UNL     1       5.782   3.495  12.866  0.00  0.00    +0.000 A 
ATOM     26  C   UNL     1       6.639   4.138  11.975  0.00  0.00    +0.000 A 
ATOM     27  C   UNL     1       7.635   4.987  12.457  0.00  0.00    +0.000 A 
ATOM     28  C   UNL     1       7.796   5.163  13.831  0.00  0.00    +0.000 A 
ENDBRANCH  22  23
ENDBRANCH  19  22
ENDBRANCH  15  16
ENDBRANCH   1  15
TORSDOF 5
ENDMDL
