MODEL 1
REMARK VINA RESULT:      -6.9      0.000      0.000
REMARK  Name = 
REMARK  7 active torsions:
REMARK  status: ('A' for Active; 'I' for Inactive)
REMARK    1  A    between atoms: C_1  and  O_2
REMARK    2  A    between atoms: O_2  and  C_3
REMARK    3  A    between atoms: C_3  and  C_5
REMARK    4  A    between atoms: C_5  and  C_6
REMARK    5  A    between atoms: C_6  and  N_7
REMARK    6  A    between atoms: C_8  and  C_10
REMARK    7  A    between atoms: C_12  and  C_13
REMARK                            x       y       z     vdW  Elec       q    Type
REMARK                         _______ _______ _______ _____ _____    ______ ____
ROOT
ATOM      1  N   UNL     1       4.903   4.527  17.558  0.00  0.00    +0.000 N 
ATOM      2  C   UNL     1       3.690   5.118  17.888  0.00  0.00    +0.000 C 
ATOM      3  O   UNL     1       3.400   6.277  17.606  0.00  0.00    +0.000 OA
ATOM      4  H   UNL     1       5.021   3.584  17.930  0.00  0.00    +0.000 HD
ENDROOT
BRANCH   2   5
ATOM      5  C   UNL     1       2.780   4.228  18.631  0.00  0.00    +0.000 A 
ATOM      6  C   UNL     1       2.810   4.002  20.052  0.00  0.00    +0.000 A 
ATOM      7  C   UNL     1       1.828   3.111  20.437  0.00  0.00    +0.000 A 
ATOM      8  C   UNL     1       1.458   2.591  21.777  0.00  0.00    +0.000 C 
ATOM      9  S   UNL     1       0.980   2.614  19.039  0.00  0.00    +0.000 S 
ATOM     10  N   UNL     1       1.833   3.544  17.970  0.00  0.00    +0.000 NA
ENDBRANCH   2   5
BRANCH   1  11
ATOM     11  C   UNL     1       6.056   5.229  16.931  0.00  0.00    +0.000 C 
ATOM     12  C   UNL     1       7.438   4.570  17.238  0.00  0.00    +0.000 C 
ATOM     13  C   UNL     1       7.578   5.520  18.441  0.00  0.00    +0.000 C 
ATOM     14  C   UNL     1       6.561   6.449  17.765  0.00  0.00    +0.000 C 
BRANCH  11  15
ATOM     15  C   UNL     1       5.739   5.584  15.477  0.00  0.00    +0.000 C 
BRANCH  15  16
ATOM     16  C   UNL     1       6.700   4.950  14.497  0.00  0.00    +0.000 C 
ATOM     17  O   UNL     1       7.733   5.474  14.099  0.00  0.00    +0.000 OA
BRANCH  16  19
ATOM     18  C   UNL     1       6.255   3.522  12.711  0.00  0.00    +0.000 C 
ATOM     19  O   UNL     1       6.271   3.712  14.128  0.00  0.00    +0.000 OA
ENDBRANCH  16  19
ENDBRANCH  15  16
ENDBRANCH  11  15
ENDBRANCH   1  11
TORSDOF 5
ENDMDL
MODEL 2
REMARK VINA RESULT:      -6.5      1.057      1.057
REMARK  Name = 
REMARK  7 active torsions:
REMARK  status: ('A' for Active; 'I' for Inactive)
REMARK    1  A    between atoms: C_1  and  O_2
REMARK    2  A    between atoms: O_2  and  C_3
REMARK    3  A    between atoms: C_3  and  C_5
REMARK    4  A    between atoms: C_5  and  C_6
REMARK    5  A    between atoms: C_6  and  N_7
REMARK    6  A    between atoms: C_8  and  C_10
REMARK    7  A    between atoms: C_12  and  C_13
REMARK                            x       y       z     vdW  Elec       q    Type
REMARK                         _______ _______ _______ _____ _____    ______ ____
ROOT
ATOM      1  N   UNL     1       4.964   4.872  17.914  0.00  0.00    +0.000 N 
ATOM      2  C   UNL     1       4.306   3.661  17.739  0.00  0.00    +0.000 C 
ATOM      3  O   UNL     1       4.636   2.824  16.903  0.00  0.00    +0.000 OA
ATOM      4  H   UNL     1       4.521   5.491  18.596  0.00  0.00    +0.000 HD
ENDROOT
BRANCH   2   5
ATOM      5  C   UNL     1       3.154   3.477  18.639  0.00  0.00    +0.000 A 
ATOM      6  C   UNL     1       3.221   2.989  19.992  0.00  0.00    +0.000 A 
ATOM      7  C   UNL     1       1.967   2.930  20.564  0.00  0.00    +0.000 A 
ATOM      8  C   UNL     1       1.537   2.518  21.925  0.00  0.00    +0.000 C 
ATOM      9  S   UNL     1       0.824   3.445  19.402  0.00  0.00    +0.000 S 
ATOM     10  N   UNL     1       1.918   3.766  18.204  0.00  0.00    +0.000 NA
ENDBRANCH   2   5
BRANCH   1  11
ATOM     11  C   UNL     1       6.069   5.379  17.058  0.00  0.00    +0.000 C 
ATOM     12  C   UNL     1       7.439   4.675  17.314  0.00  0.00    +0.000 C 
ATOM     13  C   UNL     1       7.777   5.790  18.321  0.00  0.00    +0.000 C 
ATOM     14  C   UNL     1       6.739   6.674  17.618  0.00  0.00    +0.000 C 
BRANCH  11  15
ATOM     15  C   UNL     1       5.599   5.525  15.609  0.00  0.00    +0.000 C 
BRANCH  15  16
ATOM     16  C   UNL     1       6.578   4.942  14.615  0.00  0.00    +0.000 C 
ATOM     17  O   UNL     1       7.620   5.483  14.267  0.00  0.00    +0.000 OA
BRANCH  16  19
ATOM     18  C   UNL     1       6.243   3.588  12.748  0.00  0.00    +0.000 C 
ATOM     19  O   UNL     1       6.152   3.729  14.168  0.00  0.00    +0.000 OA
ENDBRANCH  16  19
ENDBRANCH  15  16
ENDBRANCH  11  15
ENDBRANCH   1  11
TORSDOF 5
ENDMDL
MODEL 3
REMARK VINA RESULT:      -6.5      1.244      1.288
REMARK  Name = 
REMARK  7 active torsions:
REMARK  status: ('A' for Active; 'I' for Inactive)
REMARK    1  A    between atoms: C_1  and  O_2
REMARK    2  A    between atoms: O_2  and  C_3
REMARK    3  A    between atoms: C_3  and  C_5
REMARK    4  A    between atoms: C_5  and  C_6
REMARK    5  A    between atoms: C_6  and  N_7
REMARK    6  A    between atoms: C_8  and  C_10
REMARK    7  A    between atoms: C_12  and  C_13
REMARK                            x       y       z     vdW  Elec       q    Type
REMARK                         _______ _______ _______ _____ _____    ______ ____
ROOT
ATOM      1  N   UNL     1       4.904   4.951  17.370  0.00  0.00    +0.000 N 
ATOM      2  C   UNL     1       3.824   5.717  17.789  0.00  0.00    +0.000 C 
ATOM      3  O   UNL     1       3.716   6.920  17.562  0.00  0.00    +0.000 OA
ATOM      4  H   UNL     1       4.883   3.986  17.704  0.00  0.00    +0.000 HD
ENDROOT
BRANCH   2   5
ATOM      5  C   UNL     1       2.820   4.958  18.555  0.00  0.00    +0.000 A 
ATOM      6  C   UNL     1       2.149   3.768  18.101  0.00  0.00    +0.000 A 
ATOM      7  C   UNL     1       1.266   3.299  19.053  0.00  0.00    +0.000 A 
ATOM      8  C   UNL     1       0.375   2.111  19.051  0.00  0.00    +0.000 C 
ATOM      9  S   UNL     1       1.313   4.358  20.394  0.00  0.00    +0.000 S 
ATOM     10  N   UNL     1       2.463   5.375  19.780  0.00  0.00    +0.000 NA
ENDBRANCH   2   5
BRANCH   1  11
ATOM     11  C   UNL     1       6.122   5.481  16.700  0.00  0.00    +0.000 C 
ATOM     12  C   UNL     1       7.437   4.745  17.109  0.00  0.00    +0.000 C 
ATOM     13  C   UNL     1       7.641   5.806  18.207  0.00  0.00    +0.000 C 
ATOM     14  C   UNL     1       6.719   6.737  17.410  0.00  0.00    +0.000 C 
BRANCH  11  15
ATOM     15  C   UNL     1       5.859   5.700  15.209  0.00  0.00    +0.000 C 
BRANCH  15  16
ATOM     16  C   UNL     1       6.844   4.966  14.327  0.00  0.00    +0.000 C 
ATOM     17  O   UNL     1       7.920   5.419  13.959  0.00  0.00    +0.000 OA
BRANCH  16  19
ATOM     18  C   UNL     1       6.263   3.514  12.599  0.00  0.00    +0.000 C 
ATOM     19  O   UNL     1       6.379   3.726  14.008  0.00  0.00    +0.000 OA
ENDBRANCH  16  19
ENDBRANCH  15  16
ENDBRANCH  11  15
ENDBRANCH   1  11
TORSDOF 5
ENDMDL
MODEL 4
REMARK VINA RESULT:      -6.4      3.035      6.281
REMARK  Name = 
REMARK  7 active torsions:
REMARK  status: ('A' for Active; 'I' for Inactive)
REMARK    1  A    between atoms: C_1  and  O_2
REMARK    2  A    between atoms: O_2  and  C_3
REMARK    3  A    between atoms: C_3  and  C_5
REMARK    4  A    between atoms: C_5  and  C_6
REMARK    5  A    between atoms: C_6  and  N_7
REMARK    6  A    between atoms: C_8  and  C_10
REMARK    7  A    between atoms: C_12  and  C_13
REMARK                            x       y       z     vdW  Elec       q    Type
REMARK                         _______ _______ _______ _____ _____    ______ ____
ROOT
ATOM      1  N   UNL     1       4.249   4.570  17.089  0.00  0.00    +0.000 N 
ATOM      2  C   UNL     1       5.636   4.518  17.027  0.00  0.00    +0.000 C 
ATOM      3  O   UNL     1       6.360   4.495  18.019  0.00  0.00    +0.000 OA
ATOM      4  H   UNL     1       3.796   4.662  16.179  0.00  0.00    +0.000 HD
ENDROOT
BRANCH   2   5
ATOM      5  C   UNL     1       6.167   4.513  15.653  0.00  0.00    +0.000 A 
ATOM      6  C   UNL     1       5.687   3.688  14.575  0.00  0.00    +0.000 A 
ATOM      7  C   UNL     1       6.397   3.920  13.415  0.00  0.00    +0.000 A 
ATOM      8  C   UNL     1       6.259   3.335  12.057  0.00  0.00    +0.000 C 
ATOM      9  S   UNL     1       7.595   5.093  13.746  0.00  0.00    +0.000 S 
ATOM     10  N   UNL     1       7.190   5.321  15.333  0.00  0.00    +0.000 NA
ENDBRANCH   2   5
BRANCH   1  11
ATOM     11  C   UNL     1       3.452   4.722  18.336  0.00  0.00    +0.000 C 
ATOM     12  C   UNL     1       2.115   5.504  18.139  0.00  0.00    +0.000 C 
ATOM     13  C   UNL     1       2.861   6.796  18.519  0.00  0.00    +0.000 C 
ATOM     14  C   UNL     1       3.912   5.926  19.219  0.00  0.00    +0.000 C 
BRANCH  11  15
ATOM     15  C   UNL     1       3.402   3.399  19.103  0.00  0.00    +0.000 C 
BRANCH  15  16
ATOM     16  C   UNL     1       2.395   2.428  18.528  0.00  0.00    +0.000 C 
ATOM     17  O   UNL     1       2.286   2.163  17.338  0.00  0.00    +0.000 OA
BRANCH  16  19
ATOM     18  C   UNL     1       1.663   2.625  20.732  0.00  0.00    +0.000 C 
ATOM     19  O   UNL     1       1.635   1.876  19.514  0.00  0.00    +0.000 OA
ENDBRANCH  16  19
ENDBRANCH  15  16
ENDBRANCH  11  15
ENDBRANCH   1  11
TORSDOF 5
ENDMDL
MODEL 5
REMARK VINA RESULT:      -6.3      1.224      1.464
REMARK  Name = 
REMARK  7 active torsions:
REMARK  status: ('A' for Active; 'I' for Inactive)
REMARK    1  A    between atoms: C_1  and  O_2
REMARK    2  A    between atoms: O_2  and  C_3
REMARK    3  A    between atoms: C_3  and  C_5
REMARK    4  A    between atoms: C_5  and  C_6
REMARK    5  A    between atoms: C_6  and  N_7
REMARK    6  A    between atoms: C_8  and  C_10
REMARK    7  A    between atoms: C_12  and  C_13
REMARK                            x       y       z     vdW  Elec       q    Type
REMARK                         _______ _______ _______ _____ _____    ______ ____
ROOT
ATOM      1  N   UNL     1       4.929   4.695  17.813  0.00  0.00    +0.000 N 
ATOM      2  C   UNL     1       4.318   3.482  17.516  0.00  0.00    +0.000 C 
ATOM      3  O   UNL     1       4.714   2.721  16.637  0.00  0.00    +0.000 OA
ATOM      4  H   UNL     1       4.435   5.247  18.515  0.00  0.00    +0.000 HD
ENDROOT
BRANCH   2   5
ATOM      5  C   UNL     1       3.132   3.198  18.342  0.00  0.00    +0.000 A 
ATOM      6  C   UNL     1       3.100   3.188  19.781  0.00  0.00    +0.000 A 
ATOM      7  C   UNL     1       1.838   2.883  20.250  0.00  0.00    +0.000 A 
ATOM      8  C   UNL     1       1.316   2.776  21.636  0.00  0.00    +0.000 C 
ATOM      9  S   UNL     1       0.819   2.613  18.905  0.00  0.00    +0.000 S 
ATOM     10  N   UNL     1       1.963   2.911  17.749  0.00  0.00    +0.000 NA
ENDBRANCH   2   5
BRANCH   1  11
ATOM     11  C   UNL     1       6.056   5.296  17.051  0.00  0.00    +0.000 C 
ATOM     12  C   UNL     1       7.436   4.621  17.329  0.00  0.00    +0.000 C 
ATOM     13  C   UNL     1       7.684   5.672  18.427  0.00  0.00    +0.000 C 
ATOM     14  C   UNL     1       6.651   6.569  17.733  0.00  0.00    +0.000 C 
BRANCH  11  15
ATOM     15  C   UNL     1       5.653   5.528  15.593  0.00  0.00    +0.000 C 
BRANCH  15  16
ATOM     16  C   UNL     1       6.554   4.807  14.616  0.00  0.00    +0.000 C 
ATOM     17  O   UNL     1       6.363   3.670  14.202  0.00  0.00    +0.000 OA
BRANCH  16  19
ATOM     18  C   UNL     1       8.066   5.328  12.921  0.00  0.00    +0.000 C 
ATOM     19  O   UNL     1       7.599   5.597  14.245  0.00  0.00    +0.000 OA
ENDBRANCH  16  19
ENDBRANCH  15  16
ENDBRANCH  11  15
ENDBRANCH   1  11
TORSDOF 5
ENDMDL
MODEL 6
REMARK VINA RESULT:      -6.3      3.071      5.745
REMARK  Name = 
REMARK  7 active torsions:
REMARK  status: ('A' for Active; 'I' for Inactive)
REMARK    1  A    between atoms: C_1  and  O_2
REMARK    2  A    between atoms: O_2  and  C_3
REMARK    3  A    between atoms: C_3  and  C_5
REMARK    4  A    between atoms: C_5  and  C_6
REMARK    5  A    between atoms: C_6  and  N_7
REMARK    6  A    between atoms: C_8  and  C_10
REMARK    7  A    between atoms: C_12  and  C_13
REMARK                            x       y       z     vdW  Elec       q    Type
REMARK                         _______ _______ _______ _____ _____    ______ ____
ROOT
ATOM      1  N   UNL     1       5.641   4.556  17.021  0.00  0.00    +0.000 N 
ATOM      2  C   UNL     1       5.483   5.435  15.957  0.00  0.00    +0.000 C 
ATOM      3  O   UNL     1       4.953   6.538  16.060  0.00  0.00    +0.000 OA
ATOM      4  H   UNL     1       6.030   3.650  16.757  0.00  0.00    +0.000 HD
ENDROOT
BRANCH   2   5
ATOM      5  C   UNL     1       5.994   4.913  14.677  0.00  0.00    +0.000 A 
ATOM      6  C   UNL     1       5.398   3.850  13.911  0.00  0.00    +0.000 A 
ATOM      7  C   UNL     1       6.119   3.597  12.762  0.00  0.00    +0.000 A 
ATOM      8  C   UNL     1       5.890   2.623  11.665  0.00  0.00    +0.000 C 
ATOM      9  S   UNL     1       7.463   4.652  12.732  0.00  0.00    +0.000 S 
ATOM     10  N   UNL     1       7.109   5.436  14.144  0.00  0.00    +0.000 NA
ENDBRANCH   2   5
BRANCH   1  11
ATOM     11  C   UNL     1       5.100   4.763  18.391  0.00  0.00    +0.000 C 
ATOM     12  C   UNL     1       4.521   3.468  19.043  0.00  0.00    +0.000 C 
ATOM     13  C   UNL     1       3.137   3.858  18.492  0.00  0.00    +0.000 C 
ATOM     14  C   UNL     1       3.635   5.306  18.400  0.00  0.00    +0.000 C 
BRANCH  11  15
ATOM     15  C   UNL     1       6.061   5.615  19.223  0.00  0.00    +0.000 C 
BRANCH  15  16
ATOM     16  C   UNL     1       7.495   5.505  18.754  0.00  0.00    +0.000 C 
ATOM     17  O   UNL     1       8.029   4.466  18.386  0.00  0.00    +0.000 OA
BRANCH  16  19
ATOM     18  C   UNL     1       7.747   7.558  17.681  0.00  0.00    +0.000 C 
ATOM     19  O   UNL     1       8.109   6.720  18.782  0.00  0.00    +0.000 OA
ENDBRANCH  16  19
ENDBRANCH  15  16
ENDBRANCH  11  15
ENDBRANCH   1  11
TORSDOF 5
ENDMDL
MODEL 7
REMARK VINA RESULT:      -6.3      2.010      3.312
REMARK  Name = 
REMARK  7 active torsions:
REMARK  status: ('A' for Active; 'I' for Inactive)
REMARK    1  A    between atoms: C_1  and  O_2
REMARK    2  A    between atoms: O_2  and  C_3
REMARK    3  A    between atoms: C_3  and  C_5
REMARK    4  A    between atoms: C_5  and  C_6
REMARK    5  A    between atoms: C_6  and  N_7
REMARK    6  A    between atoms: C_8  and  C_10
REMARK    7  A    between atoms: C_12  and  C_13
REMARK                            x       y       z     vdW  Elec       q    Type
REMARK                         _______ _______ _______ _____ _____    ______ ____
ROOT
ATOM      1  N   UNL     1       4.786   4.681  16.872  0.00  0.00    +0.000 N 
ATOM      2  C   UNL     1       4.033   5.661  17.508  0.00  0.00    +0.000 C 
ATOM      3  O   UNL     1       4.173   6.864  17.303  0.00  0.00    +0.000 OA
ATOM      4  H   UNL     1       4.604   3.735  17.208  0.00  0.00    +0.000 HD
ENDROOT
BRANCH   2   5
ATOM      5  C   UNL     1       3.058   5.125  18.473  0.00  0.00    +0.000 A 
ATOM      6  C   UNL     1       2.254   3.946  18.282  0.00  0.00    +0.000 A 
ATOM      7  C   UNL     1       1.439   3.715  19.371  0.00  0.00    +0.000 A 
ATOM      8  C   UNL     1       0.465   2.628  19.643  0.00  0.00    +0.000 C 
ATOM      9  S   UNL     1       1.705   4.960  20.512  0.00  0.00    +0.000 S 
ATOM     10  N   UNL     1       2.862   5.759  19.640  0.00  0.00    +0.000 NA
ENDBRANCH   2   5
BRANCH   1  11
ATOM     11  C   UNL     1       5.929   4.939  15.956  0.00  0.00    +0.000 C 
ATOM     12  C   UNL     1       5.514   5.576  14.593  0.00  0.00    +0.000 C 
ATOM     13  C   UNL     1       5.426   4.157  14.002  0.00  0.00    +0.000 C 
ATOM     14  C   UNL     1       6.352   3.683  15.130  0.00  0.00    +0.000 C 
BRANCH  11  15
ATOM     15  C   UNL     1       7.093   5.576  16.719  0.00  0.00    +0.000 C 
BRANCH  15  16
ATOM     16  C   UNL     1       7.654   4.670  17.792  0.00  0.00    +0.000 C 
ATOM     17  O   UNL     1       8.619   3.930  17.643  0.00  0.00    +0.000 OA
BRANCH  16  19
ATOM     18  C   UNL     1       7.496   5.786  19.832  0.00  0.00    +0.000 C 
ATOM     19  O   UNL     1       6.953   4.799  18.951  0.00  0.00    +0.000 OA
ENDBRANCH  16  19
ENDBRANCH  15  16
ENDBRANCH  11  15
ENDBRANCH   1  11
TORSDOF 5
ENDMDL
MODEL 8
REMARK VINA RESULT:      -6.3      1.912      3.181
REMARK  Name = 
REMARK  7 active torsions:
REMARK  status: ('A' for Active; 'I' for Inactive)
REMARK    1  A    between atoms: C_1  and  O_2
REMARK    2  A    between atoms: O_2  and  C_3
REMARK    3  A    between atoms: C_3  and  C_5
REMARK    4  A    between atoms: C_5  and  C_6
REMARK    5  A    between atoms: C_6  and  N_7
REMARK    6  A    between atoms: C_8  and  C_10
REMARK    7  A    between atoms: C_12  and  C_13
REMARK                            x       y       z     vdW  Elec       q    Type
REMARK                         _______ _______ _______ _____ _____    ______ ____
ROOT
ATOM      1  N   UNL     1       5.021   4.776  17.238  0.00  0.00    +0.000 N 
ATOM      2  C   UNL     1       3.956   5.521  17.729  0.00  0.00    +0.000 C 
ATOM      3  O   UNL     1       3.708   6.669  17.371  0.00  0.00    +0.000 OA
ATOM      4  H   UNL     1       5.138   3.869  17.692  0.00  0.00    +0.000 HD
ENDROOT
BRANCH   2   5
ATOM      5  C   UNL     1       3.154   4.812  18.741  0.00  0.00    +0.000 A 
ATOM      6  C   UNL     1       3.665   3.867  19.700  0.00  0.00    +0.000 A 
ATOM      7  C   UNL     1       2.656   3.379  20.506  0.00  0.00    +0.000 A 
ATOM      8  C   UNL     1       2.695   2.414  21.633  0.00  0.00    +0.000 C 
ATOM      9  S   UNL     1       1.183   4.089  20.009  0.00  0.00    +0.000 S 
ATOM     10  N   UNL     1       1.830   5.026  18.809  0.00  0.00    +0.000 NA
ENDBRANCH   2   5
BRANCH   1  11
ATOM     11  C   UNL     1       6.070   5.286  16.314  0.00  0.00    +0.000 C 
ATOM     12  C   UNL     1       5.585   5.448  14.839  0.00  0.00    +0.000 C 
ATOM     13  C   UNL     1       6.101   4.024  14.557  0.00  0.00    +0.000 C 
ATOM     14  C   UNL     1       7.017   4.166  15.779  0.00  0.00    +0.000 C 
BRANCH  11  15
ATOM     15  C   UNL     1       6.822   6.456  16.952  0.00  0.00    +0.000 C 
BRANCH  15  16
ATOM     16  C   UNL     1       7.529   6.068  18.232  0.00  0.00    +0.000 C 
ATOM     17  O   UNL     1       7.480   4.957  18.744  0.00  0.00    +0.000 OA
BRANCH  16  19
ATOM     18  C   UNL     1       8.100   8.310  17.956  0.00  0.00    +0.000 C 
ATOM     19  O   UNL     1       8.241   7.116  18.729  0.00  0.00    +0.000 OA
ENDBRANCH  16  19
ENDBRANCH  15  16
ENDBRANCH  11  15
ENDBRANCH   1  11
TORSDOF 5
ENDMDL
MODEL 9
REMARK VINA RESULT:      -6.3      1.672      1.813
REMARK  Name = 
REMARK  7 active torsions:
REMARK  status: ('A' for Active; 'I' for Inactive)
REMARK    1  A    between atoms: C_1  and  O_2
REMARK    2  A    between atoms: O_2  and  C_3
REMARK    3  A    between atoms: C_3  and  C_5
REMARK    4  A    between atoms: C_5  and  C_6
REMARK    5  A    between atoms: C_6  and  N_7
REMARK    6  A    between atoms: C_8  and  C_10
REMARK    7  A    between atoms: C_12  and  C_13
REMARK                            x       y       z     vdW  Elec       q    Type
REMARK                         _______ _______ _______ _____ _____    ______ ____
ROOT
ATOM      1  N   UNL     1       5.078   5.819  18.080  0.00  0.00    +0.000 N 
ATOM      2  C   UNL     1       5.035   4.684  18.880  0.00  0.00    +0.000 C 
ATOM      3  O   UNL     1       5.944   3.860  18.940  0.00  0.00    +0.000 OA
ATOM      4  H   UNL     1       4.214   6.362  18.082  0.00  0.00    +0.000 HD
ENDROOT
BRANCH   2   5
ATOM      5  C   UNL     1       3.783   4.544  19.643  0.00  0.00    +0.000 A 
ATOM      6  C   UNL     1       3.323   3.338  20.281  0.00  0.00    +0.000 A 
ATOM      7  C   UNL     1       2.112   3.537  20.912  0.00  0.00    +0.000 A 
ATOM      8  C   UNL     1       1.267   2.610  21.707  0.00  0.00    +0.000 C 
ATOM      9  S   UNL     1       1.633   5.156  20.652  0.00  0.00    +0.000 S 
ATOM     10  N   UNL     1       2.965   5.600  19.777  0.00  0.00    +0.000 NA
ENDBRANCH   2   5
BRANCH   1  11
ATOM     11  C   UNL     1       6.156   6.140  17.106  0.00  0.00    +0.000 C 
ATOM     12  C   UNL     1       7.560   5.595  17.517  0.00  0.00    +0.000 C 
ATOM     13  C   UNL     1       7.841   6.947  18.198  0.00  0.00    +0.000 C 
ATOM     14  C   UNL     1       6.759   7.567  17.304  0.00  0.00    +0.000 C 
BRANCH  11  15
ATOM     15  C   UNL     1       5.679   5.882  15.675  0.00  0.00    +0.000 C 
BRANCH  15  16
ATOM     16  C   UNL     1       6.079   4.517  15.162  0.00  0.00    +0.000 C 
ATOM     17  O   UNL     1       5.804   3.459  15.714  0.00  0.00    +0.000 OA
BRANCH  16  19
ATOM     18  C   UNL     1       6.317   3.718  12.987  0.00  0.00    +0.000 C 
ATOM     19  O   UNL     1       6.773   4.622  13.996  0.00  0.00    +0.000 OA
ENDBRANCH  16  19
ENDBRANCH  15  16
ENDBRANCH  11  15
ENDBRANCH   1  11
TORSDOF 5
ENDMDL
