MODEL 1
REMARK VINA RESULT:      -8.2      0.000      0.000
REMARK  Name = 
REMARK  6 active torsions:
REMARK  status: ('A' for Active; 'I' for Inactive)
REMARK    1  A    between atoms: C_1  and  C_2
REMARK    2  A    between atoms: C_6  and  C_7
REMARK    3  A    between atoms: C_8  and  C_9
REMARK    4  A    between atoms: N_13  and  S_14
REMARK    5  A    between atoms: S_14  and  C_17
REMARK    6  A    between atoms: C_17  and  C_18
REMARK                            x       y       z     vdW  Elec       q    Type
REMARK                         _______ _______ _______ _____ _____    ______ ____
ROOT
ATOM      1  C   UNL     1       2.632   8.912  17.799  0.00  0.00    +0.000 C 
ATOM      2  C   UNL     1       1.840   9.856  18.336  0.00  0.00    +0.000 C 
ATOM      3  C   UNL     1       0.820   9.538  19.419  0.00  0.00    +0.000 C 
ATOM      4  C   UNL     1       0.831  10.578  20.530  0.00  0.00    +0.000 C 
ATOM      5  N   UNL     1       0.677  11.957  19.996  0.00  0.00    +0.000 NA
ATOM      6  C   UNL     1       1.831  12.274  19.090  0.00  0.00    +0.000 C 
ATOM      7  C   UNL     1       1.909  11.305  17.902  0.00  0.00    +0.000 C 
ENDROOT
BRANCH   5   8
ATOM      8  S   UNL     1      -0.861  12.412  19.382  0.00  0.00    +0.000 S 
ATOM      9  O   UNL     1      -1.486  13.209  20.420  0.00  0.00    +0.000 OA
ATOM     10  O   UNL     1      -0.677  12.950  18.052  0.00  0.00    +0.000 OA
BRANCH   8  11
ATOM     11  C   UNL     1      -1.709  10.825  19.277  0.00  0.00    +0.000 C 
BRANCH  11  12
ATOM     12  C   UNL     1      -2.447  10.743  17.967  0.00  0.00    +0.000 A 
ATOM     13  C   UNL     1      -1.935   9.984  16.902  0.00  0.00    +0.000 A 
ATOM     14  C   UNL     1      -2.629   9.907  15.694  0.00  0.00    +0.000 A 
ATOM     15  C   UNL     1      -3.834  10.589  15.536  0.00  0.00    +0.000 A 
ATOM     16  C   UNL     1      -4.342  11.355  16.584  0.00  0.00    +0.000 A 
ATOM     17  C   UNL     1      -3.651  11.434  17.794  0.00  0.00    +0.000 A 
ENDBRANCH  11  12
ENDBRANCH   8  11
ENDBRANCH   5   8
BRANCH   1  19
ATOM     18  C   UNL     1       2.353   6.268  18.752  0.00  0.00    +0.000 C 
ATOM     19  C   UNL     1       2.482   7.489  18.312  0.00  0.00    +0.000 C 
BRANCH  18  25
ATOM     20  C   UNL     1       3.382   1.617  18.330  0.00  0.00    +0.000 C 
ATOM     21  C   UNL     1       2.638   2.700  19.053  0.00  0.00    +0.000 A 
ATOM     22  C   UNL     1       1.833   2.394  20.149  0.00  0.00    +0.000 A 
ATOM     23  C   UNL     1       1.187   3.429  20.819  0.00  0.00    +0.000 A 
ATOM     24  C   UNL     1       1.359   4.736  20.379  0.00  0.00    +0.000 A 
ATOM     25  C   UNL     1       2.175   4.953  19.279  0.00  0.00    +0.000 A 
ATOM     26  N   UNL     1       2.821   3.969  18.613  0.00  0.00    +0.000 NA
ENDBRANCH  18  25
ENDBRANCH   1  19
TORSDOF 5
ENDMDL
MODEL 2
REMARK VINA RESULT:      -8.2      0.675      1.279
REMARK  Name = 
REMARK  6 active torsions:
REMARK  status: ('A' for Active; 'I' for Inactive)
REMARK    1  A    between atoms: C_1  and  C_2
REMARK    2  A    between atoms: C_6  and  C_7
REMARK    3  A    between atoms: C_8  and  C_9
REMARK    4  A    between atoms: N_13  and  S_14
REMARK    5  A    between atoms: S_14  and  C_17
REMARK    6  A    between atoms: C_17  and  C_18
REMARK                            x       y       z     vdW  Elec       q    Type
REMARK                         _______ _______ _______ _____ _____    ______ ____
ROOT
ATOM      1  C   UNL     1       2.636   8.930  17.697  0.00  0.00    +0.000 C 
ATOM      2  C   UNL     1       1.821   9.820  18.289  0.00  0.00    +0.000 C 
ATOM      3  C   UNL     1       0.735   9.399  19.268  0.00  0.00    +0.000 C 
ATOM      4  C   UNL     1       0.689  10.310  20.488  0.00  0.00    +0.000 C 
ATOM      5  N   UNL     1       0.578  11.741  20.102  0.00  0.00    +0.000 NA
ATOM      6  C   UNL     1       1.785  12.140  19.306  0.00  0.00    +0.000 C 
ATOM      7  C   UNL     1       1.926  11.307  18.023  0.00  0.00    +0.000 C 
ENDROOT
BRANCH   5   8
ATOM      8  S   UNL     1      -0.918  12.283  19.454  0.00  0.00    +0.000 S 
ATOM      9  O   UNL     1      -1.529  13.098  20.488  0.00  0.00    +0.000 OA
ATOM     10  O   UNL     1      -0.671  12.829  18.138  0.00  0.00    +0.000 OA
BRANCH   8  11
ATOM     11  C   UNL     1      -1.843  10.744  19.304  0.00  0.00    +0.000 C 
BRANCH  11  12
ATOM     12  C   UNL     1      -2.538  10.711  17.969  0.00  0.00    +0.000 A 
ATOM     13  C   UNL     1      -2.014   9.955  16.907  0.00  0.00    +0.000 A 
ATOM     14  C   UNL     1      -2.668   9.924  15.674  0.00  0.00    +0.000 A 
ATOM     15  C   UNL     1      -3.843  10.649  15.489  0.00  0.00    +0.000 A 
ATOM     16  C   UNL     1      -4.362  11.412  16.534  0.00  0.00    +0.000 A 
ATOM     17  C   UNL     1      -3.712  11.445  17.768  0.00  0.00    +0.000 A 
ENDBRANCH  11  12
ENDBRANCH   8  11
ENDBRANCH   5   8
BRANCH   1  19
ATOM     18  C   UNL     1       2.280   6.201  18.330  0.00  0.00    +0.000 C 
ATOM     19  C   UNL     1       2.445   7.461  18.038  0.00  0.00    +0.000 C 
BRANCH  18  25
ATOM     20  C   UNL     1       1.487   2.817  21.614  0.00  0.00    +0.000 C 
ATOM     21  C   UNL     1       1.781   3.166  20.185  0.00  0.00    +0.000 A 
ATOM     22  C   UNL     1       1.895   2.165  19.222  0.00  0.00    +0.000 A 
ATOM     23  C   UNL     1       2.131   2.529  17.900  0.00  0.00    +0.000 A 
ATOM     24  C   UNL     1       2.248   3.875  17.574  0.00  0.00    +0.000 A 
ATOM     25  C   UNL     1       2.124   4.806  18.594  0.00  0.00    +0.000 A 
ATOM     26  N   UNL     1       1.887   4.484  19.885  0.00  0.00    +0.000 NA
ENDBRANCH  18  25
ENDBRANCH   1  19
TORSDOF 5
ENDMDL
MODEL 3
REMARK VINA RESULT:      -7.6      5.112      9.158
REMARK  Name = 
REMARK  6 active torsions:
REMARK  status: ('A' for Active; 'I' for Inactive)
REMARK    1  A    between atoms: C_1  and  C_2
REMARK    2  A    between atoms: C_6  and  C_7
REMARK    3  A    between atoms: C_8  and  C_9
REMARK    4  A    between atoms: N_13  and  S_14
REMARK    5  A    between atoms: S_14  and  C_17
REMARK    6  A    between atoms: C_17  and  C_18
REMARK                            x       y       z     vdW  Elec       q    Type
REMARK                         _______ _______ _______ _____ _____    ______ ____
ROOT
ATOM      1  C   UNL     1       1.864   5.264  20.514  0.00  0.00    +0.000 C 
ATOM      2  C   UNL     1       2.827   5.180  19.580  0.00  0.00    +0.000 C 
ATOM      3  C   UNL     1       3.374   6.409  18.868  0.00  0.00    +0.000 C 
ATOM      4  C   UNL     1       4.892   6.369  18.756  0.00  0.00    +0.000 C 
ATOM      5  N   UNL     1       5.365   5.102  18.140  0.00  0.00    +0.000 NA
ATOM      6  C   UNL     1       4.962   3.944  19.006  0.00  0.00    +0.000 C 
ATOM      7  C   UNL     1       3.438   3.857  19.171  0.00  0.00    +0.000 C 
ENDROOT
BRANCH   5   8
ATOM      8  S   UNL     1       5.086   4.872  16.461  0.00  0.00    +0.000 S 
ATOM      9  O   UNL     1       3.990   3.927  16.364  0.00  0.00    +0.000 OA
ATOM     10  O   UNL     1       4.993   6.173  15.835  0.00  0.00    +0.000 OA
BRANCH   8  11
ATOM     11  C   UNL     1       6.605   4.058  15.935  0.00  0.00    +0.000 C 
BRANCH  11  12
ATOM     12  C   UNL     1       6.762   4.216  14.446  0.00  0.00    +0.000 A 
ATOM     13  C   UNL     1       7.662   5.155  13.916  0.00  0.00    +0.000 A 
ATOM     14  C   UNL     1       7.807   5.290  12.535  0.00  0.00    +0.000 A 
ATOM     15  C   UNL     1       7.054   4.496  11.672  0.00  0.00    +0.000 A 
ATOM     16  C   UNL     1       6.149   3.571  12.191  0.00  0.00    +0.000 A 
ATOM     17  C   UNL     1       6.002   3.432  13.571  0.00  0.00    +0.000 A 
ENDBRANCH  11  12
ENDBRANCH   8  11
ENDBRANCH   5   8
BRANCH   1  19
ATOM     18  C   UNL     1       0.860   7.828  21.140  0.00  0.00    +0.000 C 
ATOM     19  C   UNL     1       1.324   6.644  20.851  0.00  0.00    +0.000 C 
BRANCH  18  25
ATOM     20  C   UNL     1       0.397  12.450  20.004  0.00  0.00    +0.000 C 
ATOM     21  C   UNL     1       0.127  11.341  20.977  0.00  0.00    +0.000 A 
ATOM     22  C   UNL     1      -0.594  11.584  22.144  0.00  0.00    +0.000 A 
ATOM     23  C   UNL     1      -0.858  10.523  23.006  0.00  0.00    +0.000 A 
ATOM     24  C   UNL     1      -0.395   9.253  22.683  0.00  0.00    +0.000 A 
ATOM     25  C   UNL     1       0.318   9.099  21.504  0.00  0.00    +0.000 A 
ATOM     26  N   UNL     1       0.582  10.108  20.644  0.00  0.00    +0.000 NA
ENDBRANCH  18  25
ENDBRANCH   1  19
TORSDOF 5
ENDMDL
MODEL 4
REMARK VINA RESULT:      -7.5      6.180      9.585
REMARK  Name = 
REMARK  6 active torsions:
REMARK  status: ('A' for Active; 'I' for Inactive)
REMARK    1  A    between atoms: C_1  and  C_2
REMARK    2  A    between atoms: C_6  and  C_7
REMARK    3  A    between atoms: C_8  and  C_9
REMARK    4  A    between atoms: N_13  and  S_14
REMARK    5  A    between atoms: S_14  and  C_17
REMARK    6  A    between atoms: C_17  and  C_18
REMARK                            x       y       z     vdW  Elec       q    Type
REMARK                         _______ _______ _______ _____ _____    ______ ____
ROOT
ATOM      1  C   UNL     1       8.071   6.779  18.542  0.00  0.00    +0.000 C 
ATOM      2  C   UNL     1       6.806   6.458  18.220  0.00  0.00    +0.000 C 
ATOM      3  C   UNL     1       5.790   7.504  17.786  0.00  0.00    +0.000 C 
ATOM      4  C   UNL     1       4.971   7.036  16.591  0.00  0.00    +0.000 C 
ATOM      5  N   UNL     1       4.347   5.710  16.836  0.00  0.00    +0.000 NA
ATOM      6  C   UNL     1       5.421   4.685  17.058  0.00  0.00    +0.000 C 
ATOM      7  C   UNL     1       6.302   5.032  18.266  0.00  0.00    +0.000 C 
ENDROOT
BRANCH   5   8
ATOM      8  S   UNL     1       3.042   5.631  17.950  0.00  0.00    +0.000 S 
ATOM      9  O   UNL     1       3.617   5.882  19.258  0.00  0.00    +0.000 OA
ATOM     10  O   UNL     1       1.967   6.458  17.447  0.00  0.00    +0.000 OA
BRANCH   8  11
ATOM     11  C   UNL     1       2.565   3.896  17.848  0.00  0.00    +0.000 C 
BRANCH  11  12
ATOM     12  C   UNL     1       2.389   3.348  19.240  0.00  0.00    +0.000 A 
ATOM     13  C   UNL     1       1.151   3.442  19.896  0.00  0.00    +0.000 A 
ATOM     14  C   UNL     1       0.995   2.925  21.183  0.00  0.00    +0.000 A 
ATOM     15  C   UNL     1       2.071   2.316  21.826  0.00  0.00    +0.000 A 
ATOM     16  C   UNL     1       3.306   2.231  21.186  0.00  0.00    +0.000 A 
ATOM     17  C   UNL     1       3.466   2.746  19.899  0.00  0.00    +0.000 A 
ENDBRANCH  11  12
ENDBRANCH   8  11
ENDBRANCH   5   8
BRANCH   1  19
ATOM     18  C   UNL     1       8.816   9.499  18.386  0.00  0.00    +0.000 C 
ATOM     19  C   UNL     1       8.472   8.243  18.458  0.00  0.00    +0.000 C 
BRANCH  18  25
ATOM     20  C   UNL     1      12.227  12.682  19.436  0.00  0.00    +0.000 C 
ATOM     21  C   UNL     1      10.880  12.404  18.836  0.00  0.00    +0.000 A 
ATOM     22  C   UNL     1      10.140  13.431  18.253  0.00  0.00    +0.000 A 
ATOM     23  C   UNL     1       8.911  13.129  17.674  0.00  0.00    +0.000 A 
ATOM     24  C   UNL     1       8.454  11.817  17.692  0.00  0.00    +0.000 A 
ATOM     25  C   UNL     1       9.252  10.856  18.295  0.00  0.00    +0.000 A 
ATOM     26  N   UNL     1      10.453  11.118  18.859  0.00  0.00    +0.000 NA
ENDBRANCH  18  25
ENDBRANCH   1  19
TORSDOF 5
ENDMDL
MODEL 5
REMARK VINA RESULT:      -7.5      3.118      4.172
REMARK  Name = 
REMARK  6 active torsions:
REMARK  status: ('A' for Active; 'I' for Inactive)
REMARK    1  A    between atoms: C_1  and  C_2
REMARK    2  A    between atoms: C_6  and  C_7
REMARK    3  A    between atoms: C_8  and  C_9
REMARK    4  A    between atoms: N_13  and  S_14
REMARK    5  A    between atoms: S_14  and  C_17
REMARK    6  A    between atoms: C_17  and  C_18
REMARK                            x       y       z     vdW  Elec       q    Type
REMARK                         _______ _______ _______ _____ _____    ______ ____
ROOT
ATOM      1  C   UNL     1       1.669   9.585  18.029  0.00  0.00    +0.000 C 
ATOM      2  C   UNL     1       1.150  10.069  19.171  0.00  0.00    +0.000 C 
ATOM      3  C   UNL     1       0.943   9.198  20.400  0.00  0.00    +0.000 C 
ATOM      4  C   UNL     1       1.382   9.904  21.675  0.00  0.00    +0.000 C 
ATOM      5  N   UNL     1       0.742  11.238  21.814  0.00  0.00    +0.000 NA
ATOM      6  C   UNL     1       1.155  12.113  20.667  0.00  0.00    +0.000 C 
ATOM      7  C   UNL     1       0.736  11.518  19.314  0.00  0.00    +0.000 C 
ENDROOT
BRANCH   5   8
ATOM      8  S   UNL     1      -0.934  11.289  22.186  0.00  0.00    +0.000 S 
ATOM      9  O   UNL     1      -1.624  11.352  20.912  0.00  0.00    +0.000 OA
ATOM     10  O   UNL     1      -1.222  10.230  23.127  0.00  0.00    +0.000 OA
BRANCH   8  11
ATOM     11  C   UNL     1      -1.088  12.885  23.010  0.00  0.00    +0.000 C 
BRANCH  11  12
ATOM     12  C   UNL     1      -2.538  13.289  23.039  0.00  0.00    +0.000 A 
ATOM     13  C   UNL     1      -3.467  12.573  23.811  0.00  0.00    +0.000 A 
ATOM     14  C   UNL     1      -4.808  12.959  23.839  0.00  0.00    +0.000 A 
ATOM     15  C   UNL     1      -5.234  14.057  23.093  0.00  0.00    +0.000 A 
ATOM     16  C   UNL     1      -4.320  14.765  22.314  0.00  0.00    +0.000 A 
ATOM     17  C   UNL     1      -2.978  14.383  22.285  0.00  0.00    +0.000 A 
ENDBRANCH  11  12
ENDBRANCH   8  11
ENDBRANCH   5   8
BRANCH   1  19
ATOM     18  C   UNL     1       2.382   6.853  17.966  0.00  0.00    +0.000 C 
ATOM     19  C   UNL     1       2.053   8.115  17.995  0.00  0.00    +0.000 C 
BRANCH  18  25
ATOM     20  C   UNL     1       0.916   2.368  18.745  0.00  0.00    +0.000 C 
ATOM     21  C   UNL     1       2.008   3.296  18.302  0.00  0.00    +0.000 A 
ATOM     22  C   UNL     1       3.231   2.791  17.866  0.00  0.00    +0.000 A 
ATOM     23  C   UNL     1       4.208   3.680  17.427  0.00  0.00    +0.000 A 
ATOM     24  C   UNL     1       3.941   5.044  17.437  0.00  0.00    +0.000 A 
ATOM     25  C   UNL     1       2.699   5.462  17.889  0.00  0.00    +0.000 A 
ATOM     26  N   UNL     1       1.728   4.623  18.313  0.00  0.00    +0.000 NA
ENDBRANCH  18  25
ENDBRANCH   1  19
TORSDOF 5
ENDMDL
MODEL 6
REMARK VINA RESULT:      -7.4      2.868      3.958
REMARK  Name = 
REMARK  6 active torsions:
REMARK  status: ('A' for Active; 'I' for Inactive)
REMARK    1  A    between atoms: C_1  and  C_2
REMARK    2  A    between atoms: C_6  and  C_7
REMARK    3  A    between atoms: C_8  and  C_9
REMARK    4  A    between atoms: N_13  and  S_14
REMARK    5  A    between atoms: S_14  and  C_17
REMARK    6  A    between atoms: C_17  and  C_18
REMARK                            x       y       z     vdW  Elec       q    Type
REMARK                         _______ _______ _______ _____ _____    ______ ____
ROOT
ATOM      1  C   UNL     1       2.149   9.209  17.922  0.00  0.00    +0.000 C 
ATOM      2  C   UNL     1       1.514   9.981  18.821  0.00  0.00    +0.000 C 
ATOM      3  C   UNL     1       0.817   9.399  20.041  0.00  0.00    +0.000 C 
ATOM      4  C   UNL     1       1.106  10.206  21.299  0.00  0.00    +0.000 C 
ATOM      5  N   UNL     1       0.801  11.648  21.109  0.00  0.00    +0.000 NA
ATOM      6  C   UNL     1       1.674  12.205  20.022  0.00  0.00    +0.000 C 
ATOM      7  C   UNL     1       1.449  11.488  18.684  0.00  0.00    +0.000 C 
ENDROOT
BRANCH   5   8
ATOM      8  S   UNL     1      -0.849  12.113  21.010  0.00  0.00    +0.000 S 
ATOM      9  O   UNL     1      -0.848  13.549  20.803  0.00  0.00    +0.000 OA
ATOM     10  O   UNL     1      -1.512  11.235  20.072  0.00  0.00    +0.000 OA
BRANCH   8  11
ATOM     11  C   UNL     1      -1.438  11.768  22.678  0.00  0.00    +0.000 C 
BRANCH  11  12
ATOM     12  C   UNL     1      -2.549  12.725  23.020  0.00  0.00    +0.000 A 
ATOM     13  C   UNL     1      -3.826  12.572  22.455  0.00  0.00    +0.000 A 
ATOM     14  C   UNL     1      -4.852  13.459  22.784  0.00  0.00    +0.000 A 
ATOM     15  C   UNL     1      -4.613  14.507  23.671  0.00  0.00    +0.000 A 
ATOM     16  C   UNL     1      -3.344  14.672  24.225  0.00  0.00    +0.000 A 
ATOM     17  C   UNL     1      -2.316  13.787  23.901  0.00  0.00    +0.000 A 
ENDBRANCH  11  12
ENDBRANCH   8  11
ENDBRANCH   5   8
BRANCH   1  19
ATOM     18  C   UNL     1       2.160   6.420  18.363  0.00  0.00    +0.000 C 
ATOM     19  C   UNL     1       2.156   7.708  18.160  0.00  0.00    +0.000 C 
BRANCH  18  25
ATOM     20  C   UNL     1       1.379   2.769  21.351  0.00  0.00    +0.000 C 
ATOM     21  C   UNL     1       1.792   3.237  19.987  0.00  0.00    +0.000 A 
ATOM     22  C   UNL     1       2.124   2.318  18.994  0.00  0.00    +0.000 A 
ATOM     23  C   UNL     1       2.466   2.787  17.730  0.00  0.00    +0.000 A 
ATOM     24  C   UNL     1       2.470   4.155  17.490  0.00  0.00    +0.000 A 
ATOM     25  C   UNL     1       2.130   5.002  18.534  0.00  0.00    +0.000 A 
ATOM     26  N   UNL     1       1.785   4.576  19.770  0.00  0.00    +0.000 NA
ENDBRANCH  18  25
ENDBRANCH   1  19
TORSDOF 5
ENDMDL
MODEL 7
REMARK VINA RESULT:      -7.3      3.277      4.250
REMARK  Name = 
REMARK  6 active torsions:
REMARK  status: ('A' for Active; 'I' for Inactive)
REMARK    1  A    between atoms: C_1  and  C_2
REMARK    2  A    between atoms: C_6  and  C_7
REMARK    3  A    between atoms: C_8  and  C_9
REMARK    4  A    between atoms: N_13  and  S_14
REMARK    5  A    between atoms: S_14  and  C_17
REMARK    6  A    between atoms: C_17  and  C_18
REMARK                            x       y       z     vdW  Elec       q    Type
REMARK                         _______ _______ _______ _____ _____    ______ ____
ROOT
ATOM      1  C   UNL     1       1.612   9.788  18.029  0.00  0.00    +0.000 C 
ATOM      2  C   UNL     1       1.085  10.254  19.175  0.00  0.00    +0.000 C 
ATOM      3  C   UNL     1       0.921   9.378  20.408  0.00  0.00    +0.000 C 
ATOM      4  C   UNL     1       1.344  10.103  21.678  0.00  0.00    +0.000 C 
ATOM      5  N   UNL     1       0.654  11.411  21.819  0.00  0.00    +0.000 NA
ATOM      6  C   UNL     1       1.022  12.299  20.667  0.00  0.00    +0.000 C 
ATOM      7  C   UNL     1       0.616  11.686  19.319  0.00  0.00    +0.000 C 
ENDROOT
BRANCH   5   8
ATOM      8  S   UNL     1      -1.020  11.398  22.205  0.00  0.00    +0.000 S 
ATOM      9  O   UNL     1      -1.723  11.506  20.941  0.00  0.00    +0.000 OA
ATOM     10  O   UNL     1      -1.271  10.285  23.094  0.00  0.00    +0.000 OA
BRANCH   8  11
ATOM     11  C   UNL     1      -1.210  12.946  23.109  0.00  0.00    +0.000 C 
BRANCH  11  12
ATOM     12  C   UNL     1      -2.672  13.301  23.182  0.00  0.00    +0.000 A 
ATOM     13  C   UNL     1      -3.187  14.371  22.432  0.00  0.00    +0.000 A 
ATOM     14  C   UNL     1      -4.544  14.689  22.500  0.00  0.00    +0.000 A 
ATOM     15  C   UNL     1      -5.396  13.948  23.317  0.00  0.00    +0.000 A 
ATOM     16  C   UNL     1      -4.889  12.893  24.074  0.00  0.00    +0.000 A 
ATOM     17  C   UNL     1      -3.532  12.571  24.009  0.00  0.00    +0.000 A 
ENDBRANCH  11  12
ENDBRANCH   8  11
ENDBRANCH   5   8
BRANCH   1  19
ATOM     18  C   UNL     1       2.430   7.086  17.965  0.00  0.00    +0.000 C 
ATOM     19  C   UNL     1       2.053   8.333  17.995  0.00  0.00    +0.000 C 
BRANCH  18  25
ATOM     20  C   UNL     1       5.641   3.943  16.327  0.00  0.00    +0.000 C 
ATOM     21  C   UNL     1       4.350   4.191  17.049  0.00  0.00    +0.000 A 
ATOM     22  C   UNL     1       3.614   3.127  17.567  0.00  0.00    +0.000 A 
ATOM     23  C   UNL     1       2.440   3.397  18.263  0.00  0.00    +0.000 A 
ATOM     24  C   UNL     1       2.032   4.716  18.423  0.00  0.00    +0.000 A 
ATOM     25  C   UNL     1       2.821   5.715  17.874  0.00  0.00    +0.000 A 
ATOM     26  N   UNL     1       3.970   5.483  17.200  0.00  0.00    +0.000 NA
ENDBRANCH  18  25
ENDBRANCH   1  19
TORSDOF 5
ENDMDL
MODEL 8
REMARK VINA RESULT:      -7.3      6.450      9.875
REMARK  Name = 
REMARK  6 active torsions:
REMARK  status: ('A' for Active; 'I' for Inactive)
REMARK    1  A    between atoms: C_1  and  C_2
REMARK    2  A    between atoms: C_6  and  C_7
REMARK    3  A    between atoms: C_8  and  C_9
REMARK    4  A    between atoms: N_13  and  S_14
REMARK    5  A    between atoms: S_14  and  C_17
REMARK    6  A    between atoms: C_17  and  C_18
REMARK                            x       y       z     vdW  Elec       q    Type
REMARK                         _______ _______ _______ _____ _____    ______ ____
ROOT
ATOM      1  C   UNL     1       8.581   7.405  18.931  0.00  0.00    +0.000 C 
ATOM      2  C   UNL     1       7.611   6.705  18.317  0.00  0.00    +0.000 C 
ATOM      3  C   UNL     1       6.639   7.351  17.341  0.00  0.00    +0.000 C 
ATOM      4  C   UNL     1       6.424   6.491  16.103  0.00  0.00    +0.000 C 
ATOM      5  N   UNL     1       6.029   5.103  16.460  0.00  0.00    +0.000 NA
ATOM      6  C   UNL     1       7.126   4.458  17.254  0.00  0.00    +0.000 C 
ATOM      7  C   UNL     1       7.417   5.222  18.553  0.00  0.00    +0.000 C 
ENDROOT
BRANCH   5   8
ATOM      8  S   UNL     1       4.449   4.856  17.089  0.00  0.00    +0.000 S 
ATOM      9  O   UNL     1       3.863   6.176  17.227  0.00  0.00    +0.000 OA
ATOM     10  O   UNL     1       3.797   3.841  16.290  0.00  0.00    +0.000 OA
BRANCH   8  11
ATOM     11  C   UNL     1       4.797   4.199  18.731  0.00  0.00    +0.000 C 
BRANCH  11  12
ATOM     12  C   UNL     1       3.499   3.879  19.422  0.00  0.00    +0.000 A 
ATOM     13  C   UNL     1       2.917   2.606  19.301  0.00  0.00    +0.000 A 
ATOM     14  C   UNL     1       1.717   2.315  19.951  0.00  0.00    +0.000 A 
ATOM     15  C   UNL     1       1.085   3.290  20.720  0.00  0.00    +0.000 A 
ATOM     16  C   UNL     1       1.649   4.560  20.833  0.00  0.00    +0.000 A 
ATOM     17  C   UNL     1       2.849   4.855  20.186  0.00  0.00    +0.000 A 
ENDBRANCH  11  12
ENDBRANCH   8  11
ENDBRANCH   5   8
BRANCH   1  19
ATOM     18  C   UNL     1       8.778  10.162  18.351  0.00  0.00    +0.000 C 
ATOM     19  C   UNL     1       8.688   8.889  18.618  0.00  0.00    +0.000 C 
BRANCH  18  25
ATOM     20  C   UNL     1      11.284  14.198  18.900  0.00  0.00    +0.000 C 
ATOM     21  C   UNL     1      10.035  13.526  18.410  0.00  0.00    +0.000 A 
ATOM     22  C   UNL     1       9.036  14.265  17.780  0.00  0.00    +0.000 A 
ATOM     23  C   UNL     1       7.908  13.603  17.304  0.00  0.00    +0.000 A 
ATOM     24  C   UNL     1       7.807  12.227  17.469  0.00  0.00    +0.000 A 
ATOM     25  C   UNL     1       8.845  11.568  18.110  0.00  0.00    +0.000 A 
ATOM     26  N   UNL     1       9.956  12.183  18.575  0.00  0.00    +0.000 NA
ENDBRANCH  18  25
ENDBRANCH   1  19
TORSDOF 5
ENDMDL
MODEL 9
REMARK VINA RESULT:      -7.3      1.358      2.066
REMARK  Name = 
REMARK  6 active torsions:
REMARK  status: ('A' for Active; 'I' for Inactive)
REMARK    1  A    between atoms: C_1  and  C_2
REMARK    2  A    between atoms: C_6  and  C_7
REMARK    3  A    between atoms: C_8  and  C_9
REMARK    4  A    between atoms: N_13  and  S_14
REMARK    5  A    between atoms: S_14  and  C_17
REMARK    6  A    between atoms: C_17  and  C_18
REMARK                            x       y       z     vdW  Elec       q    Type
REMARK                         _______ _______ _______ _____ _____    ______ ____
ROOT
ATOM      1  C   UNL     1       2.185   9.186  17.893  0.00  0.00    +0.000 C 
ATOM      2  C   UNL     1       1.565   9.985  18.779  0.00  0.00    +0.000 C 
ATOM      3  C   UNL     1       0.871   9.436  20.017  0.00  0.00    +0.000 C 
ATOM      4  C   UNL     1       1.179  10.267  21.254  0.00  0.00    +0.000 C 
ATOM      5  N   UNL     1       0.889  11.708  21.036  0.00  0.00    +0.000 NA
ATOM      6  C   UNL     1       1.758  12.232  19.931  0.00  0.00    +0.000 C 
ATOM      7  C   UNL     1       1.515  11.488  18.610  0.00  0.00    +0.000 C 
ENDROOT
BRANCH   5   8
ATOM      8  S   UNL     1      -0.758  12.189  20.940  0.00  0.00    +0.000 S 
ATOM      9  O   UNL     1      -1.537  11.021  21.306  0.00  0.00    +0.000 OA
ATOM     10  O   UNL     1      -0.910  13.431  21.665  0.00  0.00    +0.000 OA
BRANCH   8  11
ATOM     11  C   UNL     1      -0.959  12.493  19.175  0.00  0.00    +0.000 C 
BRANCH  11  12
ATOM     12  C   UNL     1      -2.162  11.737  18.676  0.00  0.00    +0.000 A 
ATOM     13  C   UNL     1      -3.461  12.185  18.967  0.00  0.00    +0.000 A 
ATOM     14  C   UNL     1      -4.571  11.484  18.494  0.00  0.00    +0.000 A 
ATOM     15  C   UNL     1      -4.396  10.329  17.734  0.00  0.00    +0.000 A 
ATOM     16  C   UNL     1      -3.110   9.871  17.453  0.00  0.00    +0.000 A 
ATOM     17  C   UNL     1      -1.997  10.570  17.922  0.00  0.00    +0.000 A 
ENDBRANCH  11  12
ENDBRANCH   8  11
ENDBRANCH   5   8
BRANCH   1  19
ATOM     18  C   UNL     1       2.169   6.407  18.393  0.00  0.00    +0.000 C 
ATOM     19  C   UNL     1       2.177   7.691  18.162  0.00  0.00    +0.000 C 
BRANCH  18  25
ATOM     20  C   UNL     1       1.654   2.837  21.533  0.00  0.00    +0.000 C 
ATOM     21  C   UNL     1       1.913   3.267  20.119  0.00  0.00    +0.000 A 
ATOM     22  C   UNL     1       2.099   2.320  19.114  0.00  0.00    +0.000 A 
ATOM     23  C   UNL     1       2.299   2.755  17.808  0.00  0.00    +0.000 A 
ATOM     24  C   UNL     1       2.311   4.119  17.540  0.00  0.00    +0.000 A 
ATOM     25  C   UNL     1       2.122   4.994  18.598  0.00  0.00    +0.000 A 
ATOM     26  N   UNL     1       1.917   4.601  19.875  0.00  0.00    +0.000 NA
ENDBRANCH  18  25
ENDBRANCH   1  19
TORSDOF 5
ENDMDL
