MODEL 1
REMARK VINA RESULT:      -8.3      0.000      0.000
REMARK  Name = 
REMARK  5 active torsions:
REMARK  status: ('A' for Active; 'I' for Inactive)
REMARK    1  A    between atoms: C_1  and  C_2
REMARK    2  A    between atoms: C_2  and  N_3
REMARK    3  A    between atoms: C_2  and  C_17
REMARK    4  A    between atoms: C_4  and  C_6
REMARK    5  A    between atoms: C_6  and  N_7
REMARK                            x       y       z     vdW  Elec       q    Type
REMARK                         _______ _______ _______ _____ _____    ______ ____
ROOT
ATOM      1  N   UNL     1       2.430   7.205  18.931  0.00  0.00    +0.000 N 
ATOM      2  C   UNL     1       3.351   6.567  18.133  0.00  0.00    +0.000 C 
ATOM      3  O   UNL     1       3.948   7.200  17.254  0.00  0.00    +0.000 OA
ATOM      4  H   UNL     1       1.970   6.699  19.655  0.00  0.00    +0.000 HD
ENDROOT
BRANCH   2   5
ATOM      5  C   UNL     1       3.714   5.045  18.470  0.00  0.00    +0.000 C 
ATOM      6  C   UNL     1       3.433   4.489  19.894  0.00  0.00    +0.000 C 
ATOM      7  C   UNL     1       2.015   4.035  20.253  0.00  0.00    +0.000 C 
ATOM      8  C   UNL     1       1.201   3.455  19.108  0.00  0.00    +0.000 C 
ATOM      9  C   UNL     1       1.394   4.268  17.843  0.00  0.00    +0.000 C 
ATOM     10  C   UNL     1       2.881   4.227  17.444  0.00  0.00    +0.000 C 
BRANCH   5  11
ATOM     11  N   UNL     1       5.169   4.988  18.296  0.00  0.00    +0.000 NA
ATOM     12  C   UNL     1       6.101   5.323  19.351  0.00  0.00    +0.000 C 
ATOM     13  C   UNL     1       7.152   6.019  18.519  0.00  0.00    +0.000 C 
ATOM     14  C   UNL     1       7.179   5.220  17.212  0.00  0.00    +0.000 C 
ATOM     15  C   UNL     1       5.897   4.376  17.216  0.00  0.00    +0.000 C 
ENDBRANCH   5  11
ENDBRANCH   2   5
BRANCH   1  17
ATOM     16  C   UNL     1       1.304   8.773  17.440  0.00  0.00    +0.000 C 
ATOM     17  C   UNL     1       2.083   8.607  18.748  0.00  0.00    +0.000 C 
BRANCH  17  18
ATOM     18  C   UNL     1       1.367   9.145  19.971  0.00  0.00    +0.000 A 
ATOM     19  C   UNL     1       1.332   8.359  21.154  0.00  0.00    +0.000 A 
ATOM     20  C   UNL     1       0.667   8.814  22.290  0.00  0.00    +0.000 A 
ATOM     21  C   UNL     1       0.013  10.045  22.272  0.00  0.00    +0.000 A 
ATOM     22  C   UNL     1       0.059  10.834  21.122  0.00  0.00    +0.000 A 
ATOM     23  C   UNL     1       0.716  10.377  19.978  0.00  0.00    +0.000 A 
ATOM     24  O   UNL     1      -0.531  12.070  21.035  0.00  0.00    +0.000 OA
ATOM     25  C   UNL     1      -0.896  12.570  22.328  0.00  0.00    +0.000 C 
ATOM     26  C   UNL     1      -1.568  11.485  23.153  0.00  0.00    +0.000 C 
ATOM     27  O   UNL     1      -0.653  10.413  23.412  0.00  0.00    +0.000 OA
ENDBRANCH  17  18
ENDBRANCH   1  17
TORSDOF 4
ENDMDL
MODEL 2
REMARK VINA RESULT:      -7.8      0.788      3.036
REMARK  Name = 
REMARK  5 active torsions:
REMARK  status: ('A' for Active; 'I' for Inactive)
REMARK    1  A    between atoms: C_1  and  C_2
REMARK    2  A    between atoms: C_2  and  N_3
REMARK    3  A    between atoms: C_2  and  C_17
REMARK    4  A    between atoms: C_4  and  C_6
REMARK    5  A    between atoms: C_6  and  N_7
REMARK                            x       y       z     vdW  Elec       q    Type
REMARK                         _______ _______ _______ _____ _____    ______ ____
ROOT
ATOM      1  N   UNL     1       2.418   7.259  18.970  0.00  0.00    +0.000 N 
ATOM      2  C   UNL     1       3.310   6.622  18.139  0.00  0.00    +0.000 C 
ATOM      3  O   UNL     1       3.858   7.251  17.225  0.00  0.00    +0.000 OA
ATOM      4  H   UNL     1       1.998   6.756  19.721  0.00  0.00    +0.000 HD
ENDROOT
BRANCH   2   5
ATOM      5  C   UNL     1       3.707   5.109  18.477  0.00  0.00    +0.000 C 
ATOM      6  C   UNL     1       4.102   4.146  17.323  0.00  0.00    +0.000 C 
ATOM      7  C   UNL     1       5.524   4.196  16.759  0.00  0.00    +0.000 C 
ATOM      8  C   UNL     1       6.612   4.571  17.753  0.00  0.00    +0.000 C 
ATOM      9  C   UNL     1       6.156   5.706  18.650  0.00  0.00    +0.000 C 
ATOM     10  C   UNL     1       4.917   5.249  19.442  0.00  0.00    +0.000 C 
BRANCH   5  11
ATOM     11  N   UNL     1       2.486   4.552  19.066  0.00  0.00    +0.000 NA
ATOM     12  C   UNL     1       2.135   4.725  20.459  0.00  0.00    +0.000 C 
ATOM     13  C   UNL     1       1.547   3.358  20.721  0.00  0.00    +0.000 C 
ATOM     14  C   UNL     1       0.821   3.011  19.418  0.00  0.00    +0.000 C 
ATOM     15  C   UNL     1       1.353   4.000  18.371  0.00  0.00    +0.000 C 
ENDBRANCH   5  11
ENDBRANCH   2   5
BRANCH   1  17
ATOM     16  C   UNL     1       1.263   8.806  17.479  0.00  0.00    +0.000 C 
ATOM     17  C   UNL     1       2.045   8.654  18.787  0.00  0.00    +0.000 C 
BRANCH  17  18
ATOM     18  C   UNL     1       1.321   9.179  20.010  0.00  0.00    +0.000 A 
ATOM     19  C   UNL     1       1.303   8.395  21.195  0.00  0.00    +0.000 A 
ATOM     20  C   UNL     1       0.631   8.839  22.331  0.00  0.00    +0.000 A 
ATOM     21  C   UNL     1      -0.047  10.057  22.312  0.00  0.00    +0.000 A 
ATOM     22  C   UNL     1      -0.018  10.844  21.160  0.00  0.00    +0.000 A 
ATOM     23  C   UNL     1       0.646  10.399  20.016  0.00  0.00    +0.000 A 
ATOM     24  O   UNL     1      -0.633  12.069  21.072  0.00  0.00    +0.000 OA
ATOM     25  C   UNL     1      -1.005  12.563  22.365  0.00  0.00    +0.000 C 
ATOM     26  C   UNL     1      -1.654  11.466  23.193  0.00  0.00    +0.000 C 
ATOM     27  O   UNL     1      -0.718  10.413  23.452  0.00  0.00    +0.000 OA
ENDBRANCH  17  18
ENDBRANCH   1  17
TORSDOF 4
ENDMDL
MODEL 3
REMARK VINA RESULT:      -7.5      1.921      4.205
REMARK  Name = 
REMARK  5 active torsions:
REMARK  status: ('A' for Active; 'I' for Inactive)
REMARK    1  A    between atoms: C_1  and  C_2
REMARK    2  A    between atoms: C_2  and  N_3
REMARK    3  A    between atoms: C_2  and  C_17
REMARK    4  A    between atoms: C_4  and  C_6
REMARK    5  A    between atoms: C_6  and  N_7
REMARK                            x       y       z     vdW  Elec       q    Type
REMARK                         _______ _______ _______ _____ _____    ______ ____
ROOT
ATOM      1  N   UNL     1       4.385   6.248  18.124  0.00  0.00    +0.000 N 
ATOM      2  C   UNL     1       5.104   5.239  17.523  0.00  0.00    +0.000 C 
ATOM      3  O   UNL     1       4.611   4.109  17.422  0.00  0.00    +0.000 OA
ATOM      4  H   UNL     1       4.773   7.163  18.181  0.00  0.00    +0.000 HD
ENDROOT
BRANCH   2   5
ATOM      5  C   UNL     1       6.508   5.611  16.852  0.00  0.00    +0.000 C 
ATOM      6  C   UNL     1       6.963   7.096  16.805  0.00  0.00    +0.000 C 
ATOM      7  C   UNL     1       7.603   7.723  18.047  0.00  0.00    +0.000 C 
ATOM      8  C   UNL     1       8.413   6.776  18.918  0.00  0.00    +0.000 C 
ATOM      9  C   UNL     1       7.704   5.444  19.072  0.00  0.00    +0.000 C 
ATOM     10  C   UNL     1       7.543   4.800  17.682  0.00  0.00    +0.000 C 
BRANCH   5  11
ATOM     11  N   UNL     1       6.347   5.195  15.456  0.00  0.00    +0.000 NA
ATOM     12  C   UNL     1       5.135   5.427  14.701  0.00  0.00    +0.000 C 
ATOM     13  C   UNL     1       5.097   4.133  13.921  0.00  0.00    +0.000 C 
ATOM     14  C   UNL     1       6.570   3.842  13.614  0.00  0.00    +0.000 C 
ATOM     15  C   UNL     1       7.375   4.753  14.552  0.00  0.00    +0.000 C 
ENDBRANCH   5  11
ENDBRANCH   2   5
BRANCH   1  17
ATOM     16  C   UNL     1       3.204   5.181  19.973  0.00  0.00    +0.000 C 
ATOM     17  C   UNL     1       3.068   6.026  18.702  0.00  0.00    +0.000 C 
BRANCH  17  18
ATOM     18  C   UNL     1       2.344   7.341  18.905  0.00  0.00    +0.000 A 
ATOM     19  C   UNL     1       2.208   8.233  17.808  0.00  0.00    +0.000 A 
ATOM     20  C   UNL     1       1.565   9.459  17.963  0.00  0.00    +0.000 A 
ATOM     21  C   UNL     1       1.058   9.830  19.207  0.00  0.00    +0.000 A 
ATOM     22  C   UNL     1       1.167   8.952  20.286  0.00  0.00    +0.000 A 
ATOM     23  C   UNL     1       1.820   7.727  20.138  0.00  0.00    +0.000 A 
ATOM     24  O   UNL     1       0.667   9.230  21.534  0.00  0.00    +0.000 OA
ATOM     25  C   UNL     1      -0.238  10.341  21.501  0.00  0.00    +0.000 C 
ATOM     26  C   UNL     1       0.332  11.473  20.663  0.00  0.00    +0.000 C 
ATOM     27  O   UNL     1       0.471  11.065  19.297  0.00  0.00    +0.000 OA
ENDBRANCH  17  18
ENDBRANCH   1  17
TORSDOF 4
ENDMDL
MODEL 4
REMARK VINA RESULT:      -7.3      2.901      8.016
REMARK  Name = 
REMARK  5 active torsions:
REMARK  status: ('A' for Active; 'I' for Inactive)
REMARK    1  A    between atoms: C_1  and  C_2
REMARK    2  A    between atoms: C_2  and  N_3
REMARK    3  A    between atoms: C_2  and  C_17
REMARK    4  A    between atoms: C_4  and  C_6
REMARK    5  A    between atoms: C_6  and  N_7
REMARK                            x       y       z     vdW  Elec       q    Type
REMARK                         _______ _______ _______ _____ _____    ______ ____
ROOT
ATOM      1  N   UNL     1       0.074  10.305  20.135  0.00  0.00    +0.000 N 
ATOM      2  C   UNL     1       0.129  11.631  20.499  0.00  0.00    +0.000 C 
ATOM      3  O   UNL     1       0.788  11.971  21.489  0.00  0.00    +0.000 OA
ATOM      4  H   UNL     1      -0.436  10.037  19.322  0.00  0.00    +0.000 HD
ENDROOT
BRANCH   2   5
ATOM      5  C   UNL     1      -0.560  12.706  19.535  0.00  0.00    +0.000 C 
ATOM      6  C   UNL     1      -1.320  12.222  18.269  0.00  0.00    +0.000 C 
ATOM      7  C   UNL     1      -2.755  11.706  18.409  0.00  0.00    +0.000 C 
ATOM      8  C   UNL     1      -3.580  12.351  19.510  0.00  0.00    +0.000 C 
ATOM      9  C   UNL     1      -2.756  12.528  20.771  0.00  0.00    +0.000 C 
ATOM     10  C   UNL     1      -1.562  13.450  20.462  0.00  0.00    +0.000 C 
BRANCH   5  11
ATOM     11  N   UNL     1       0.567  13.507  19.045  0.00  0.00    +0.000 NA
ATOM     12  C   UNL     1       1.608  12.965  18.199  0.00  0.00    +0.000 C 
ATOM     13  C   UNL     1       2.790  13.701  18.786  0.00  0.00    +0.000 C 
ATOM     14  C   UNL     1       2.230  15.086  19.127  0.00  0.00    +0.000 C 
ATOM     15  C   UNL     1       0.703  14.939  19.083  0.00  0.00    +0.000 C 
ENDBRANCH   5  11
ENDBRANCH   2   5
BRANCH   1  17
ATOM     16  C   UNL     1      -0.317   8.518  21.748  0.00  0.00    +0.000 C 
ATOM     17  C   UNL     1       0.727   9.260  20.909  0.00  0.00    +0.000 C 
BRANCH  17  18
ATOM     18  C   UNL     1       1.552   8.363  20.007  0.00  0.00    +0.000 A 
ATOM     19  C   UNL     1       1.879   8.808  18.699  0.00  0.00    +0.000 A 
ATOM     20  C   UNL     1       2.619   8.002  17.838  0.00  0.00    +0.000 A 
ATOM     21  C   UNL     1       3.037   6.737  18.249  0.00  0.00    +0.000 A 
ATOM     22  C   UNL     1       2.739   6.299  19.540  0.00  0.00    +0.000 A 
ATOM     23  C   UNL     1       1.988   7.099  20.403  0.00  0.00    +0.000 A 
ATOM     24  O   UNL     1       3.141   5.081  20.030  0.00  0.00    +0.000 OA
ATOM     25  C   UNL     1       4.148   4.488  19.201  0.00  0.00    +0.000 C 
ATOM     26  C   UNL     1       3.773   4.607  17.733  0.00  0.00    +0.000 C 
ATOM     27  O   UNL     1       3.728   5.983  17.337  0.00  0.00    +0.000 OA
ENDBRANCH  17  18
ENDBRANCH   1  17
TORSDOF 4
ENDMDL
MODEL 5
REMARK VINA RESULT:      -7.1      2.040      4.175
REMARK  Name = 
REMARK  5 active torsions:
REMARK  status: ('A' for Active; 'I' for Inactive)
REMARK    1  A    between atoms: C_1  and  C_2
REMARK    2  A    between atoms: C_2  and  N_3
REMARK    3  A    between atoms: C_2  and  C_17
REMARK    4  A    between atoms: C_4  and  C_6
REMARK    5  A    between atoms: C_6  and  N_7
REMARK                            x       y       z     vdW  Elec       q    Type
REMARK                         _______ _______ _______ _____ _____    ______ ____
ROOT
ATOM      1  N   UNL     1       4.327   6.013  18.122  0.00  0.00    +0.000 N 
ATOM      2  C   UNL     1       5.109   5.062  17.510  0.00  0.00    +0.000 C 
ATOM      3  O   UNL     1       4.707   3.895  17.426  0.00  0.00    +0.000 OA
ATOM      4  H   UNL     1       4.642   6.958  18.166  0.00  0.00    +0.000 HD
ENDROOT
BRANCH   2   5
ATOM      5  C   UNL     1       6.464   5.540  16.805  0.00  0.00    +0.000 C 
ATOM      6  C   UNL     1       6.811   7.054  16.763  0.00  0.00    +0.000 C 
ATOM      7  C   UNL     1       7.439   7.713  17.994  0.00  0.00    +0.000 C 
ATOM      8  C   UNL     1       8.339   6.817  18.831  0.00  0.00    +0.000 C 
ATOM      9  C   UNL     1       7.731   5.437  18.988  0.00  0.00    +0.000 C 
ATOM     10  C   UNL     1       7.577   4.797  17.596  0.00  0.00    +0.000 C 
BRANCH   5  11
ATOM     11  N   UNL     1       6.294   5.127  15.409  0.00  0.00    +0.000 NA
ATOM     12  C   UNL     1       5.013   5.140  14.735  0.00  0.00    +0.000 C 
ATOM     13  C   UNL     1       5.167   3.878  13.919  0.00  0.00    +0.000 C 
ATOM     14  C   UNL     1       6.646   3.875  13.517  0.00  0.00    +0.000 C 
ATOM     15  C   UNL     1       7.326   4.903  14.432  0.00  0.00    +0.000 C 
ENDBRANCH   5  11
ENDBRANCH   2   5
BRANCH   1  17
ATOM     16  C   UNL     1       3.246   4.616  19.805  0.00  0.00    +0.000 C 
ATOM     17  C   UNL     1       3.045   5.691  18.732  0.00  0.00    +0.000 C 
BRANCH  17  18
ATOM     18  C   UNL     1       2.358   6.946  19.230  0.00  0.00    +0.000 A 
ATOM     19  C   UNL     1       1.809   6.961  20.540  0.00  0.00    +0.000 A 
ATOM     20  C   UNL     1       1.153   8.092  21.023  0.00  0.00    +0.000 A 
ATOM     21  C   UNL     1       1.017   9.220  20.216  0.00  0.00    +0.000 A 
ATOM     22  C   UNL     1       1.572   9.222  18.936  0.00  0.00    +0.000 A 
ATOM     23  C   UNL     1       2.220   8.088  18.444  0.00  0.00    +0.000 A 
ATOM     24  O   UNL     1       1.508  10.304  18.092  0.00  0.00    +0.000 OA
ATOM     25  C   UNL     1       1.113  11.492  18.791  0.00  0.00    +0.000 C 
ATOM     26  C   UNL     1      -0.058  11.205  19.717  0.00  0.00    +0.000 C 
ATOM     27  O   UNL     1       0.328  10.282  20.741  0.00  0.00    +0.000 OA
ENDBRANCH  17  18
ENDBRANCH   1  17
TORSDOF 4
ENDMDL
MODEL 6
REMARK VINA RESULT:      -7.0      3.059      8.927
REMARK  Name = 
REMARK  5 active torsions:
REMARK  status: ('A' for Active; 'I' for Inactive)
REMARK    1  A    between atoms: C_1  and  C_2
REMARK    2  A    between atoms: C_2  and  N_3
REMARK    3  A    between atoms: C_2  and  C_17
REMARK    4  A    between atoms: C_4  and  C_6
REMARK    5  A    between atoms: C_6  and  N_7
REMARK                            x       y       z     vdW  Elec       q    Type
REMARK                         _______ _______ _______ _____ _____    ______ ____
ROOT
ATOM      1  N   UNL     1      -0.423  10.756  20.584  0.00  0.00    +0.000 N 
ATOM      2  C   UNL     1      -0.519  12.056  21.023  0.00  0.00    +0.000 C 
ATOM      3  O   UNL     1       0.124  12.419  22.016  0.00  0.00    +0.000 OA
ATOM      4  H   UNL     1      -0.921  10.472  19.769  0.00  0.00    +0.000 HD
ENDROOT
BRANCH   2   5
ATOM      5  C   UNL     1      -1.362  13.090  20.140  0.00  0.00    +0.000 C 
ATOM      6  C   UNL     1      -1.326  14.603  20.493  0.00  0.00    +0.000 C 
ATOM      7  C   UNL     1      -0.143  15.454  20.022  0.00  0.00    +0.000 C 
ATOM      8  C   UNL     1       0.484  15.033  18.703  0.00  0.00    +0.000 C 
ATOM      9  C   UNL     1       0.609  13.524  18.621  0.00  0.00    +0.000 C 
ATOM     10  C   UNL     1      -0.796  12.901  18.705  0.00  0.00    +0.000 C 
BRANCH   5  11
ATOM     11  N   UNL     1      -2.751  12.664  20.337  0.00  0.00    +0.000 NA
ATOM     12  C   UNL     1      -3.527  12.013  19.304  0.00  0.00    +0.000 C 
ATOM     13  C   UNL     1      -4.864  12.661  19.575  0.00  0.00    +0.000 C 
ATOM     14  C   UNL     1      -4.912  12.787  21.101  0.00  0.00    +0.000 C 
ATOM     15  C   UNL     1      -3.469  12.572  21.580  0.00  0.00    +0.000 C 
ENDBRANCH   5  11
ENDBRANCH   2   5
BRANCH   1  17
ATOM     16  C   UNL     1      -0.526   8.941  22.210  0.00  0.00    +0.000 C 
ATOM     17  C   UNL     1       0.375   9.757  21.279  0.00  0.00    +0.000 C 
BRANCH  17  18
ATOM     18  C   UNL     1       1.168   8.923  20.292  0.00  0.00    +0.000 A 
ATOM     19  C   UNL     1       1.363   9.412  18.973  0.00  0.00    +0.000 A 
ATOM     20  C   UNL     1       2.069   8.663  18.035  0.00  0.00    +0.000 A 
ATOM     21  C   UNL     1       2.583   7.414  18.379  0.00  0.00    +0.000 A 
ATOM     22  C   UNL     1       2.415   6.934  19.679  0.00  0.00    +0.000 A 
ATOM     23  C   UNL     1       1.698   7.677  20.619  0.00  0.00    +0.000 A 
ATOM     24  O   UNL     1       2.917   5.730  20.106  0.00  0.00    +0.000 OA
ATOM     25  C   UNL     1       3.881   5.207  19.182  0.00  0.00    +0.000 C 
ATOM     26  C   UNL     1       3.381   5.336  17.753  0.00  0.00    +0.000 C 
ATOM     27  O   UNL     1       3.234   6.715  17.397  0.00  0.00    +0.000 OA
ENDBRANCH  17  18
ENDBRANCH   1  17
TORSDOF 4
ENDMDL
MODEL 7
REMARK VINA RESULT:      -7.0      2.857      8.066
REMARK  Name = 
REMARK  5 active torsions:
REMARK  status: ('A' for Active; 'I' for Inactive)
REMARK    1  A    between atoms: C_1  and  C_2
REMARK    2  A    between atoms: C_2  and  N_3
REMARK    3  A    between atoms: C_2  and  C_17
REMARK    4  A    between atoms: C_4  and  C_6
REMARK    5  A    between atoms: C_6  and  N_7
REMARK                            x       y       z     vdW  Elec       q    Type
REMARK                         _______ _______ _______ _____ _____    ______ ____
ROOT
ATOM      1  N   UNL     1       4.682   5.778  18.714  0.00  0.00    +0.000 N 
ATOM      2  C   UNL     1       3.735   6.667  18.261  0.00  0.00    +0.000 C 
ATOM      3  O   UNL     1       4.020   7.461  17.355  0.00  0.00    +0.000 OA
ATOM      4  H   UNL     1       4.443   5.122  19.425  0.00  0.00    +0.000 HD
ENDROOT
BRANCH   2   5
ATOM      5  C   UNL     1       2.247   6.543  18.837  0.00  0.00    +0.000 C 
ATOM      6  C   UNL     1       1.962   6.954  20.309  0.00  0.00    +0.000 C 
ATOM      7  C   UNL     1       1.770   8.435  20.649  0.00  0.00    +0.000 C 
ATOM      8  C   UNL     1       1.141   9.284  19.556  0.00  0.00    +0.000 C 
ATOM      9  C   UNL     1       1.715   8.929  18.198  0.00  0.00    +0.000 C 
ATOM     10  C   UNL     1       1.407   7.451  17.896  0.00  0.00    +0.000 C 
BRANCH   5  11
ATOM     11  N   UNL     1       1.961   5.108  18.758  0.00  0.00    +0.000 NA
ATOM     12  C   UNL     1       1.734   4.285  19.927  0.00  0.00    +0.000 C 
ATOM     13  C   UNL     1       2.442   3.031  19.469  0.00  0.00    +0.000 C 
ATOM     14  C   UNL     1       2.133   2.959  17.970  0.00  0.00    +0.000 C 
ATOM     15  C   UNL     1       1.611   4.350  17.586  0.00  0.00    +0.000 C 
ENDBRANCH   5  11
ENDBRANCH   2   5
BRANCH   1  17
ATOM     16  C   UNL     1       6.954   5.032  19.191  0.00  0.00    +0.000 C 
ATOM     17  C   UNL     1       6.044   5.764  18.201  0.00  0.00    +0.000 C 
BRANCH  17  18
ATOM     18  C   UNL     1       6.081   5.207  16.792  0.00  0.00    +0.000 A 
ATOM     19  C   UNL     1       5.159   4.190  16.426  0.00  0.00    +0.000 A 
ATOM     20  C   UNL     1       5.177   3.642  15.145  0.00  0.00    +0.000 A 
ATOM     21  C   UNL     1       6.115   4.078  14.211  0.00  0.00    +0.000 A 
ATOM     22  C   UNL     1       7.011   5.092  14.554  0.00  0.00    +0.000 A 
ATOM     23  C   UNL     1       7.003   5.637  15.840  0.00  0.00    +0.000 A 
ATOM     24  O   UNL     1       7.942   5.598  13.682  0.00  0.00    +0.000 OA
ATOM     25  C   UNL     1       7.664   5.206  12.332  0.00  0.00    +0.000 C 
ATOM     26  C   UNL     1       7.311   3.729  12.263  0.00  0.00    +0.000 C 
ATOM     27  O   UNL     1       6.101   3.469  12.983  0.00  0.00    +0.000 OA
ENDBRANCH  17  18
ENDBRANCH   1  17
TORSDOF 4
ENDMDL
MODEL 8
REMARK VINA RESULT:      -6.9      2.751      8.384
REMARK  Name = 
REMARK  5 active torsions:
REMARK  status: ('A' for Active; 'I' for Inactive)
REMARK    1  A    between atoms: C_1  and  C_2
REMARK    2  A    between atoms: C_2  and  N_3
REMARK    3  A    between atoms: C_2  and  C_17
REMARK    4  A    between atoms: C_4  and  C_6
REMARK    5  A    between atoms: C_6  and  N_7
REMARK                            x       y       z     vdW  Elec       q    Type
REMARK                         _______ _______ _______ _____ _____    ______ ____
ROOT
ATOM      1  N   UNL     1       0.580   9.822  20.144  0.00  0.00    +0.000 N 
ATOM      2  C   UNL     1       0.606  11.115  20.611  0.00  0.00    +0.000 C 
ATOM      3  O   UNL     1       1.167  11.370  21.685  0.00  0.00    +0.000 OA
ATOM      4  H   UNL     1       0.151   9.623  19.266  0.00  0.00    +0.000 HD
ENDROOT
BRANCH   2   5
ATOM      5  C   UNL     1       0.023  12.270  19.669  0.00  0.00    +0.000 C 
ATOM      6  C   UNL     1       0.235  13.758  20.063  0.00  0.00    +0.000 C 
ATOM      7  C   UNL     1       1.573  14.433  19.745  0.00  0.00    +0.000 C 
ATOM      8  C   UNL     1       2.276  13.939  18.491  0.00  0.00    +0.000 C 
ATOM      9  C   UNL     1       2.192  12.429  18.384  0.00  0.00    +0.000 C 
ATOM     10  C   UNL     1       0.712  12.015  18.299  0.00  0.00    +0.000 C 
BRANCH   5  11
ATOM     11  N   UNL     1      -1.426  12.047  19.703  0.00  0.00    +0.000 NA
ATOM     12  C   UNL     1      -2.110  11.178  18.770  0.00  0.00    +0.000 C 
ATOM     13  C   UNL     1      -3.367  11.992  18.574  0.00  0.00    +0.000 C 
ATOM     14  C   UNL     1      -3.642  12.588  19.958  0.00  0.00    +0.000 C 
ATOM     15  C   UNL     1      -2.341  12.407  20.753  0.00  0.00    +0.000 C 
ENDBRANCH   5  11
ENDBRANCH   2   5
BRANCH   1  17
ATOM     16  C   UNL     1       0.051   8.054  21.738  0.00  0.00    +0.000 C 
ATOM     17  C   UNL     1       1.147   8.712  20.895  0.00  0.00    +0.000 C 
BRANCH  17  18
ATOM     18  C   UNL     1       1.878   7.758  19.972  0.00  0.00    +0.000 A 
ATOM     19  C   UNL     1       2.273   8.208  18.684  0.00  0.00    +0.000 A 
ATOM     20  C   UNL     1       2.930   7.352  17.803  0.00  0.00    +0.000 A 
ATOM     21  C   UNL     1       3.195   6.035  18.173  0.00  0.00    +0.000 A 
ATOM     22  C   UNL     1       2.830   5.590  19.444  0.00  0.00    +0.000 A 
ATOM     23  C   UNL     1       2.162   6.441  20.327  0.00  0.00    +0.000 A 
ATOM     24  O   UNL     1       3.084   4.318  19.896  0.00  0.00    +0.000 OA
ATOM     25  C   UNL     1       4.029   3.642  19.057  0.00  0.00    +0.000 C 
ATOM     26  C   UNL     1       3.693   3.854  17.590  0.00  0.00    +0.000 C 
ATOM     27  O   UNL     1       3.811   5.238  17.243  0.00  0.00    +0.000 OA
ENDBRANCH  17  18
ENDBRANCH   1  17
TORSDOF 4
ENDMDL
MODEL 9
REMARK VINA RESULT:      -6.8      4.411      7.409
REMARK  Name = 
REMARK  5 active torsions:
REMARK  status: ('A' for Active; 'I' for Inactive)
REMARK    1  A    between atoms: C_1  and  C_2
REMARK    2  A    between atoms: C_2  and  N_3
REMARK    3  A    between atoms: C_2  and  C_17
REMARK    4  A    between atoms: C_4  and  C_6
REMARK    5  A    between atoms: C_6  and  N_7
REMARK                            x       y       z     vdW  Elec       q    Type
REMARK                         _______ _______ _______ _____ _____    ______ ____
ROOT
ATOM      1  N   UNL     1      -1.720  10.968  18.348  0.00  0.00    +0.000 N 
ATOM      2  C   UNL     1      -0.765  11.895  18.698  0.00  0.00    +0.000 C 
ATOM      3  O   UNL     1      -0.723  12.985  18.114  0.00  0.00    +0.000 OA
ATOM      4  H   UNL     1      -1.768  10.101  18.837  0.00  0.00    +0.000 HD
ENDROOT
BRANCH   2   5
ATOM      5  C   UNL     1       0.176  11.572  19.951  0.00  0.00    +0.000 C 
ATOM      6  C   UNL     1       1.120  12.677  20.502  0.00  0.00    +0.000 C 
ATOM      7  C   UNL     1       0.554  13.746  21.441  0.00  0.00    +0.000 C 
ATOM      8  C   UNL     1      -0.585  13.293  22.340  0.00  0.00    +0.000 C 
ATOM      9  C   UNL     1      -1.562  12.420  21.577  0.00  0.00    +0.000 C 
ATOM     10  C   UNL     1      -0.822  11.167  21.072  0.00  0.00    +0.000 C 
BRANCH   5  11
ATOM     11  N   UNL     1       1.051  10.502  19.463  0.00  0.00    +0.000 NA
ATOM     12  C   UNL     1       1.970  10.680  18.359  0.00  0.00    +0.000 C 
ATOM     13  C   UNL     1       1.817   9.324  17.710  0.00  0.00    +0.000 C 
ATOM     14  C   UNL     1       1.658   8.363  18.892  0.00  0.00    +0.000 C 
ATOM     15  C   UNL     1       1.341   9.248  20.106  0.00  0.00    +0.000 C 
ENDBRANCH   5  11
ENDBRANCH   2   5
BRANCH   1  17
ATOM     16  C   UNL     1      -2.700   9.973  16.349  0.00  0.00    +0.000 C 
ATOM     17  C   UNL     1      -2.667  11.197  17.268  0.00  0.00    +0.000 C 
BRANCH  17  18
ATOM     18  C   UNL     1      -4.022  11.598  17.819  0.00  0.00    +0.000 A 
ATOM     19  C   UNL     1      -5.064  11.936  16.916  0.00  0.00    +0.000 A 
ATOM     20  C   UNL     1      -6.315  12.327  17.388  0.00  0.00    +0.000 A 
ATOM     21  C   UNL     1      -6.552  12.404  18.759  0.00  0.00    +0.000 A 
ATOM     22  C   UNL     1      -5.541  12.052  19.655  0.00  0.00    +0.000 A 
ATOM     23  C   UNL     1      -4.283  11.670  19.186  0.00  0.00    +0.000 A 
ATOM     24  O   UNL     1      -5.706  12.071  21.017  0.00  0.00    +0.000 OA
ATOM     25  C   UNL     1      -7.090  12.166  21.377  0.00  0.00    +0.000 C 
ATOM     26  C   UNL     1      -7.793  13.216  20.533  0.00  0.00    +0.000 C 
ATOM     27  O   UNL     1      -7.793  12.832  19.153  0.00  0.00    +0.000 OA
ENDBRANCH  17  18
ENDBRANCH   1  17
TORSDOF 4
ENDMDL
