MODEL 1
REMARK VINA RESULT:      -7.1      0.000      0.000
REMARK  Name = 
REMARK  7 active torsions:
REMARK  status: ('A' for Active; 'I' for Inactive)
REMARK    1  A    between atoms: C_1  and  C_2
REMARK    2  A    between atoms: C_2  and  C_3
REMARK    3  A    between atoms: C_2  and  C_4
REMARK    4  A    between atoms: C_2  and  N_5
REMARK    5  A    between atoms: C_6  and  C_8
REMARK    6  A    between atoms: C_17  and  C_18
REMARK    7  A    between atoms: C_17  and  C_19
REMARK                            x       y       z     vdW  Elec       q    Type
REMARK                         _______ _______ _______ _____ _____    ______ ____
ROOT
ATOM      1  C   UNL     1       6.235   3.988  16.386  0.00  0.00    +0.000 C 
ATOM      2  C   UNL     1       7.544   4.480  16.987  0.00  0.00    +0.000 C 
ATOM      3  C   UNL     1       7.182   4.954  18.350  0.00  0.00    +0.000 C 
ATOM      4  O   UNL     1       7.975   5.205  19.238  0.00  0.00    +0.000 OA
ATOM      5  O   UNL     1       5.839   5.128  18.446  0.00  0.00    +0.000 OA
ATOM      6  C   UNL     1       5.129   4.466  17.376  0.00  0.00    +0.000 C 
ATOM      7  C   UNL     1       4.088   5.441  16.805  0.00  0.00    +0.000 C 
ATOM      8  C   UNL     1       2.875   5.692  17.687  0.00  0.00    +0.000 C 
ATOM      9  O   UNL     1       2.302   4.475  18.148  0.00  0.00    +0.000 OA
ATOM     10  C   UNL     1       3.198   3.660  18.913  0.00  0.00    +0.000 C 
ATOM     11  C   UNL     1       3.587   4.364  20.224  0.00  0.00    +0.000 C 
ATOM     12  C   UNL     1       2.395   2.402  19.283  0.00  0.00    +0.000 C 
ATOM     13  C   UNL     1       4.397   3.261  18.020  0.00  0.00    +0.000 C 
ENDROOT
BRANCH   1  15
ATOM     14  N   UNL     1       6.157   3.371  14.023  0.00  0.00    +0.000 N 
ATOM     15  C   UNL     1       6.202   4.434  14.913  0.00  0.00    +0.000 C 
ATOM     16  O   UNL     1       6.268   5.596  14.540  0.00  0.00    +0.000 OA
ATOM     17  H   UNL     1       5.782   2.500  14.378  0.00  0.00    +0.000 HD
BRANCH  14  19
ATOM     18  C   UNL     1       6.541   2.156  11.866  0.00  0.00    +0.000 C 
ATOM     19  C   UNL     1       6.209   3.496  12.549  0.00  0.00    +0.000 C 
ATOM     20  C   UNL     1       7.241   4.552  12.127  0.00  0.00    +0.000 C 
ATOM     21  C   UNL     1       4.809   3.926  12.068  0.00  0.00    +0.000 C 
ENDBRANCH  14  19
ENDBRANCH   1  15
TORSDOF 2
ENDMDL
MODEL 2
REMARK VINA RESULT:      -6.5      3.561      7.142
REMARK  Name = 
REMARK  7 active torsions:
REMARK  status: ('A' for Active; 'I' for Inactive)
REMARK    1  A    between atoms: C_1  and  C_2
REMARK    2  A    between atoms: C_2  and  C_3
REMARK    3  A    between atoms: C_2  and  C_4
REMARK    4  A    between atoms: C_2  and  N_5
REMARK    5  A    between atoms: C_6  and  C_8
REMARK    6  A    between atoms: C_17  and  C_18
REMARK    7  A    between atoms: C_17  and  C_19
REMARK                            x       y       z     vdW  Elec       q    Type
REMARK                         _______ _______ _______ _____ _____    ______ ____
ROOT
ATOM      1  C   UNL     1       2.833   5.980  19.330  0.00  0.00    +0.000 C 
ATOM      2  C   UNL     1       1.749   4.940  19.081  0.00  0.00    +0.000 C 
ATOM      3  C   UNL     1       2.297   4.068  18.008  0.00  0.00    +0.000 C 
ATOM      4  O   UNL     1       1.846   2.986  17.685  0.00  0.00    +0.000 OA
ATOM      5  O   UNL     1       3.341   4.682  17.392  0.00  0.00    +0.000 OA
ATOM      6  C   UNL     1       3.853   5.788  18.167  0.00  0.00    +0.000 C 
ATOM      7  C   UNL     1       4.044   6.992  17.232  0.00  0.00    +0.000 C 
ATOM      8  C   UNL     1       5.221   6.894  16.273  0.00  0.00    +0.000 C 
ATOM      9  O   UNL     1       6.415   6.519  16.947  0.00  0.00    +0.000 OA
ATOM     10  C   UNL     1       6.335   5.258  17.621  0.00  0.00    +0.000 C 
ATOM     11  C   UNL     1       6.149   4.113  16.609  0.00  0.00    +0.000 C 
ATOM     12  C   UNL     1       7.704   5.062  18.293  0.00  0.00    +0.000 C 
ATOM     13  C   UNL     1       5.235   5.339  18.707  0.00  0.00    +0.000 C 
ENDROOT
BRANCH   1  15
ATOM     14  N   UNL     1       1.758   7.563  20.851  0.00  0.00    +0.000 N 
ATOM     15  C   UNL     1       2.136   7.337  19.534  0.00  0.00    +0.000 C 
ATOM     16  O   UNL     1       1.879   8.126  18.637  0.00  0.00    +0.000 OA
ATOM     17  H   UNL     1       2.271   7.057  21.561  0.00  0.00    +0.000 HD
BRANCH  14  19
ATOM     18  C   UNL     1       0.957   9.866  20.277  0.00  0.00    +0.000 C 
ATOM     19  C   UNL     1       0.992   8.737  21.324  0.00  0.00    +0.000 C 
ATOM     20  C   UNL     1       1.577   9.279  22.636  0.00  0.00    +0.000 C 
ATOM     21  C   UNL     1      -0.462   8.280  21.561  0.00  0.00    +0.000 C 
ENDBRANCH  14  19
ENDBRANCH   1  15
TORSDOF 2
ENDMDL
MODEL 3
REMARK VINA RESULT:      -6.4      3.557      6.999
REMARK  Name = 
REMARK  7 active torsions:
REMARK  status: ('A' for Active; 'I' for Inactive)
REMARK    1  A    between atoms: C_1  and  C_2
REMARK    2  A    between atoms: C_2  and  C_3
REMARK    3  A    between atoms: C_2  and  C_4
REMARK    4  A    between atoms: C_2  and  N_5
REMARK    5  A    between atoms: C_6  and  C_8
REMARK    6  A    between atoms: C_17  and  C_18
REMARK    7  A    between atoms: C_17  and  C_19
REMARK                            x       y       z     vdW  Elec       q    Type
REMARK                         _______ _______ _______ _____ _____    ______ ____
ROOT
ATOM      1  C   UNL     1       3.085   5.833  19.329  0.00  0.00    +0.000 C 
ATOM      2  C   UNL     1       2.206   4.677  18.872  0.00  0.00    +0.000 C 
ATOM      3  C   UNL     1       3.054   3.904  17.926  0.00  0.00    +0.000 C 
ATOM      4  O   UNL     1       2.810   2.784  17.521  0.00  0.00    +0.000 OA
ATOM      5  O   UNL     1       4.114   4.653  17.527  0.00  0.00    +0.000 OA
ATOM      6  C   UNL     1       4.327   5.793  18.388  0.00  0.00    +0.000 C 
ATOM      7  C   UNL     1       4.548   7.034  17.508  0.00  0.00    +0.000 C 
ATOM      8  C   UNL     1       5.891   7.101  16.798  0.00  0.00    +0.000 C 
ATOM      9  O   UNL     1       6.969   6.855  17.693  0.00  0.00    +0.000 OA
ATOM     10  C   UNL     1       6.914   5.577  18.337  0.00  0.00    +0.000 C 
ATOM     11  C   UNL     1       7.069   4.444  17.309  0.00  0.00    +0.000 C 
ATOM     12  C   UNL     1       8.140   5.531  19.265  0.00  0.00    +0.000 C 
ATOM     13  C   UNL     1       5.623   5.500  19.187  0.00  0.00    +0.000 C 
ENDROOT
BRANCH   1  15
ATOM     14  N   UNL     1       1.929   7.501  20.691  0.00  0.00    +0.000 N 
ATOM     15  C   UNL     1       2.201   7.092  19.393  0.00  0.00    +0.000 C 
ATOM     16  O   UNL     1       1.728   7.657  18.418  0.00  0.00    +0.000 OA
ATOM     17  H   UNL     1       2.590   7.213  21.402  0.00  0.00    +0.000 HD
BRANCH  14  19
ATOM     18  C   UNL     1      -0.413   8.155  21.290  0.00  0.00    +0.000 C 
ATOM     19  C   UNL     1       1.036   8.622  21.058  0.00  0.00    +0.000 C 
ATOM     20  C   UNL     1       1.051   9.710  19.974  0.00  0.00    +0.000 C 
ATOM     21  C   UNL     1       1.551   9.214  22.385  0.00  0.00    +0.000 C 
ENDBRANCH  14  19
ENDBRANCH   1  15
TORSDOF 2
ENDMDL
MODEL 4
REMARK VINA RESULT:      -6.3      3.422      6.924
REMARK  Name = 
REMARK  7 active torsions:
REMARK  status: ('A' for Active; 'I' for Inactive)
REMARK    1  A    between atoms: C_1  and  C_2
REMARK    2  A    between atoms: C_2  and  C_3
REMARK    3  A    between atoms: C_2  and  C_4
REMARK    4  A    between atoms: C_2  and  N_5
REMARK    5  A    between atoms: C_6  and  C_8
REMARK    6  A    between atoms: C_17  and  C_18
REMARK    7  A    between atoms: C_17  and  C_19
REMARK                            x       y       z     vdW  Elec       q    Type
REMARK                         _______ _______ _______ _____ _____    ______ ____
ROOT
ATOM      1  C   UNL     1       3.135   4.974  20.213  0.00  0.00    +0.000 C 
ATOM      2  C   UNL     1       2.658   3.529  20.171  0.00  0.00    +0.000 C 
ATOM      3  C   UNL     1       3.470   2.891  19.100  0.00  0.00    +0.000 C 
ATOM      4  O   UNL     1       3.562   1.693  18.911  0.00  0.00    +0.000 OA
ATOM      5  O   UNL     1       4.047   3.840  18.320  0.00  0.00    +0.000 OA
ATOM      6  C   UNL     1       4.032   5.141  18.949  0.00  0.00    +0.000 C 
ATOM      7  C   UNL     1       3.558   6.176  17.916  0.00  0.00    +0.000 C 
ATOM      8  C   UNL     1       4.563   6.522  16.829  0.00  0.00    +0.000 C 
ATOM      9  O   UNL     1       5.840   6.826  17.374  0.00  0.00    +0.000 OA
ATOM     10  C   UNL     1       6.419   5.762  18.137  0.00  0.00    +0.000 C 
ATOM     11  C   UNL     1       6.720   4.551  17.238  0.00  0.00    +0.000 C 
ATOM     12  C   UNL     1       7.764   6.305  18.648  0.00  0.00    +0.000 C 
ATOM     13  C   UNL     1       5.499   5.452  19.343  0.00  0.00    +0.000 C 
ENDROOT
BRANCH   1  15
ATOM     14  N   UNL     1       2.215   7.199  20.632  0.00  0.00    +0.000 N 
ATOM     15  C   UNL     1       1.896   5.867  20.407  0.00  0.00    +0.000 C 
ATOM     16  O   UNL     1       0.744   5.459  20.425  0.00  0.00    +0.000 OA
ATOM     17  H   UNL     1       3.113   7.512  20.287  0.00  0.00    +0.000 HD
BRANCH  14  19
ATOM     18  C   UNL     1      -0.151   7.694  21.290  0.00  0.00    +0.000 C 
ATOM     19  C   UNL     1       1.236   8.265  20.942  0.00  0.00    +0.000 C 
ATOM     20  C   UNL     1       1.103   9.243  19.765  0.00  0.00    +0.000 C 
ATOM     21  C   UNL     1       1.750   9.023  22.183  0.00  0.00    +0.000 C 
ENDBRANCH  14  19
ENDBRANCH   1  15
TORSDOF 2
ENDMDL
MODEL 5
REMARK VINA RESULT:      -6.2      4.136      6.590
REMARK  Name = 
REMARK  7 active torsions:
REMARK  status: ('A' for Active; 'I' for Inactive)
REMARK    1  A    between atoms: C_1  and  C_2
REMARK    2  A    between atoms: C_2  and  C_3
REMARK    3  A    between atoms: C_2  and  C_4
REMARK    4  A    between atoms: C_2  and  N_5
REMARK    5  A    between atoms: C_6  and  C_8
REMARK    6  A    between atoms: C_17  and  C_18
REMARK    7  A    between atoms: C_17  and  C_19
REMARK                            x       y       z     vdW  Elec       q    Type
REMARK                         _______ _______ _______ _____ _____    ______ ____
ROOT
ATOM      1  C   UNL     1       2.302   6.854  18.371  0.00  0.00    +0.000 C 
ATOM      2  C   UNL     1       3.674   7.214  17.819  0.00  0.00    +0.000 C 
ATOM      3  C   UNL     1       4.496   5.990  18.014  0.00  0.00    +0.000 C 
ATOM      4  O   UNL     1       5.578   5.783  17.498  0.00  0.00    +0.000 OA
ATOM      5  O   UNL     1       3.895   5.157  18.902  0.00  0.00    +0.000 OA
ATOM      6  C   UNL     1       2.505   5.494  19.106  0.00  0.00    +0.000 C 
ATOM      7  C   UNL     1       2.219   5.493  20.616  0.00  0.00    +0.000 C 
ATOM      8  C   UNL     1       2.161   4.121  21.270  0.00  0.00    +0.000 C 
ATOM      9  O   UNL     1       1.323   3.231  20.545  0.00  0.00    +0.000 OA
ATOM     10  C   UNL     1       1.730   3.017  19.189  0.00  0.00    +0.000 C 
ATOM     11  C   UNL     1       3.094   2.307  19.137  0.00  0.00    +0.000 C 
ATOM     12  C   UNL     1       0.686   2.058  18.592  0.00  0.00    +0.000 C 
ATOM     13  C   UNL     1       1.681   4.367  18.433  0.00  0.00    +0.000 C 
ENDROOT
BRANCH   1  15
ATOM     14  N   UNL     1       0.907   8.860  18.388  0.00  0.00    +0.000 N 
ATOM     15  C   UNL     1       1.773   8.079  19.140  0.00  0.00    +0.000 C 
ATOM     16  O   UNL     1       2.112   8.384  20.273  0.00  0.00    +0.000 OA
ATOM     17  H   UNL     1       0.429   8.398  17.625  0.00  0.00    +0.000 HD
BRANCH  14  19
ATOM     18  C   UNL     1       1.326  11.303  18.748  0.00  0.00    +0.000 C 
ATOM     19  C   UNL     1       0.318  10.143  18.835  0.00  0.00    +0.000 C 
ATOM     20  C   UNL     1      -0.207  10.031  20.274  0.00  0.00    +0.000 C 
ATOM     21  C   UNL     1      -0.852  10.473  17.886  0.00  0.00    +0.000 C 
ENDBRANCH  14  19
ENDBRANCH   1  15
TORSDOF 2
ENDMDL
MODEL 6
REMARK VINA RESULT:      -6.1      2.639      4.462
REMARK  Name = 
REMARK  7 active torsions:
REMARK  status: ('A' for Active; 'I' for Inactive)
REMARK    1  A    between atoms: C_1  and  C_2
REMARK    2  A    between atoms: C_2  and  C_3
REMARK    3  A    between atoms: C_2  and  C_4
REMARK    4  A    between atoms: C_2  and  N_5
REMARK    5  A    between atoms: C_6  and  C_8
REMARK    6  A    between atoms: C_17  and  C_18
REMARK    7  A    between atoms: C_17  and  C_19
REMARK                            x       y       z     vdW  Elec       q    Type
REMARK                         _______ _______ _______ _____ _____    ______ ____
ROOT
ATOM      1  C   UNL     1       4.117   5.746  19.421  0.00  0.00    +0.000 C 
ATOM      2  C   UNL     1       3.514   6.890  18.618  0.00  0.00    +0.000 C 
ATOM      3  C   UNL     1       2.159   6.413  18.234  0.00  0.00    +0.000 C 
ATOM      4  O   UNL     1       1.270   7.114  17.789  0.00  0.00    +0.000 OA
ATOM      5  O   UNL     1       2.073   5.068  18.393  0.00  0.00    +0.000 OA
ATOM      6  C   UNL     1       3.139   4.550  19.218  0.00  0.00    +0.000 C 
ATOM      7  C   UNL     1       3.726   3.306  18.532  0.00  0.00    +0.000 C 
ATOM      8  C   UNL     1       2.854   2.061  18.577  0.00  0.00    +0.000 C 
ATOM      9  O   UNL     1       2.382   1.800  19.893  0.00  0.00    +0.000 OA
ATOM     10  C   UNL     1       1.604   2.861  20.457  0.00  0.00    +0.000 C 
ATOM     11  C   UNL     1       0.298   3.056  19.667  0.00  0.00    +0.000 C 
ATOM     12  C   UNL     1       1.224   2.387  21.870  0.00  0.00    +0.000 C 
ATOM     13  C   UNL     1       2.486   4.129  20.560  0.00  0.00    +0.000 C 
ENDROOT
BRANCH   1  15
ATOM     14  N   UNL     1       5.799   5.802  17.649  0.00  0.00    +0.000 N 
ATOM     15  C   UNL     1       5.595   5.618  19.010  0.00  0.00    +0.000 C 
ATOM     16  O   UNL     1       6.504   5.326  19.773  0.00  0.00    +0.000 OA
ATOM     17  H   UNL     1       5.101   6.344  17.157  0.00  0.00    +0.000 HD
BRANCH  14  19
ATOM     18  C   UNL     1       6.926   5.396  15.449  0.00  0.00    +0.000 C 
ATOM     19  C   UNL     1       7.099   5.647  16.958  0.00  0.00    +0.000 C 
ATOM     20  C   UNL     1       7.912   4.499  17.574  0.00  0.00    +0.000 C 
ATOM     21  C   UNL     1       7.874   6.970  17.122  0.00  0.00    +0.000 C 
ENDBRANCH  14  19
ENDBRANCH   1  15
TORSDOF 2
ENDMDL
MODEL 7
REMARK VINA RESULT:      -6.0      2.491      6.194
REMARK  Name = 
REMARK  7 active torsions:
REMARK  status: ('A' for Active; 'I' for Inactive)
REMARK    1  A    between atoms: C_1  and  C_2
REMARK    2  A    between atoms: C_2  and  C_3
REMARK    3  A    between atoms: C_2  and  C_4
REMARK    4  A    between atoms: C_2  and  N_5
REMARK    5  A    between atoms: C_6  and  C_8
REMARK    6  A    between atoms: C_17  and  C_18
REMARK    7  A    between atoms: C_17  and  C_19
REMARK                            x       y       z     vdW  Elec       q    Type
REMARK                         _______ _______ _______ _____ _____    ______ ____
ROOT
ATOM      1  C   UNL     1       3.309   4.682  17.379  0.00  0.00    +0.000 C 
ATOM      2  C   UNL     1       2.537   5.907  17.848  0.00  0.00    +0.000 C 
ATOM      3  C   UNL     1       3.522   7.020  17.800  0.00  0.00    +0.000 C 
ATOM      4  O   UNL     1       3.247   8.203  17.873  0.00  0.00    +0.000 OA
ATOM      5  O   UNL     1       4.785   6.526  17.727  0.00  0.00    +0.000 OA
ATOM      6  C   UNL     1       4.801   5.134  17.341  0.00  0.00    +0.000 C 
ATOM      7  C   UNL     1       5.759   4.380  18.276  0.00  0.00    +0.000 C 
ATOM      8  C   UNL     1       7.240   4.640  18.043  0.00  0.00    +0.000 C 
ATOM      9  O   UNL     1       7.584   4.509  16.670  0.00  0.00    +0.000 OA
ATOM     10  C   UNL     1       6.875   5.398  15.800  0.00  0.00    +0.000 C 
ATOM     11  C   UNL     1       7.247   6.860  16.099  0.00  0.00    +0.000 C 
ATOM     12  C   UNL     1       7.374   5.074  14.382  0.00  0.00    +0.000 C 
ATOM     13  C   UNL     1       5.361   5.089  15.896  0.00  0.00    +0.000 C 
ENDROOT
BRANCH   1  15
ATOM     14  N   UNL     1       2.686   3.849  19.590  0.00  0.00    +0.000 N 
ATOM     15  C   UNL     1       2.881   3.496  18.262  0.00  0.00    +0.000 C 
ATOM     16  O   UNL     1       2.775   2.343  17.871  0.00  0.00    +0.000 OA
ATOM     17  H   UNL     1       2.470   4.821  19.772  0.00  0.00    +0.000 HD
BRANCH  14  19
ATOM     18  C   UNL     1       3.526   1.942  20.979  0.00  0.00    +0.000 C 
ATOM     19  C   UNL     1       2.361   2.903  20.680  0.00  0.00    +0.000 C 
ATOM     20  C   UNL     1       1.105   2.088  20.340  0.00  0.00    +0.000 C 
ATOM     21  C   UNL     1       2.104   3.731  21.956  0.00  0.00    +0.000 C 
ENDBRANCH  14  19
ENDBRANCH   1  15
TORSDOF 2
ENDMDL
MODEL 8
REMARK VINA RESULT:      -6.0      4.084      6.495
REMARK  Name = 
REMARK  7 active torsions:
REMARK  status: ('A' for Active; 'I' for Inactive)
REMARK    1  A    between atoms: C_1  and  C_2
REMARK    2  A    between atoms: C_2  and  C_3
REMARK    3  A    between atoms: C_2  and  C_4
REMARK    4  A    between atoms: C_2  and  N_5
REMARK    5  A    between atoms: C_6  and  C_8
REMARK    6  A    between atoms: C_17  and  C_18
REMARK    7  A    between atoms: C_17  and  C_19
REMARK                            x       y       z     vdW  Elec       q    Type
REMARK                         _______ _______ _______ _____ _____    ______ ____
ROOT
ATOM      1  C   UNL     1       2.627   7.169  17.702  0.00  0.00    +0.000 C 
ATOM      2  C   UNL     1       4.084   7.371  17.310  0.00  0.00    +0.000 C 
ATOM      3  C   UNL     1       4.802   6.211  17.900  0.00  0.00    +0.000 C 
ATOM      4  O   UNL     1       5.938   5.875  17.622  0.00  0.00    +0.000 OA
ATOM      5  O   UNL     1       4.031   5.612  18.843  0.00  0.00    +0.000 OA
ATOM      6  C   UNL     1       2.646   6.009  18.743  0.00  0.00    +0.000 C 
ATOM      7  C   UNL     1       2.134   6.356  20.150  0.00  0.00    +0.000 C 
ATOM      8  C   UNL     1       1.907   5.170  21.074  0.00  0.00    +0.000 C 
ATOM      9  O   UNL     1       1.143   4.152  20.441  0.00  0.00    +0.000 OA
ATOM     10  C   UNL     1       1.739   3.629  19.249  0.00  0.00    +0.000 C 
ATOM     11  C   UNL     1       3.056   2.904  19.574  0.00  0.00    +0.000 C 
ATOM     12  C   UNL     1       0.749   2.577  18.721  0.00  0.00    +0.000 C 
ATOM     13  C   UNL     1       1.875   4.772  18.214  0.00  0.00    +0.000 C 
ENDROOT
BRANCH   1  15
ATOM     14  N   UNL     1       1.254   8.505  19.219  0.00  0.00    +0.000 N 
ATOM     15  C   UNL     1       2.053   8.545  18.085  0.00  0.00    +0.000 C 
ATOM     16  O   UNL     1       2.221   9.570  17.440  0.00  0.00    +0.000 OA
ATOM     17  H   UNL     1       1.422   7.742  19.862  0.00  0.00    +0.000 HD
BRANCH  14  19
ATOM     18  C   UNL     1      -0.643  10.094  18.832  0.00  0.00    +0.000 C 
ATOM     19  C   UNL     1       0.499   9.655  19.766  0.00  0.00    +0.000 C 
ATOM     20  C   UNL     1       1.432  10.847  20.025  0.00  0.00    +0.000 C 
ATOM     21  C   UNL     1      -0.137   9.203  21.096  0.00  0.00    +0.000 C 
ENDBRANCH  14  19
ENDBRANCH   1  15
TORSDOF 2
ENDMDL
MODEL 9
REMARK VINA RESULT:      -5.9      1.808      3.354
REMARK  Name = 
REMARK  7 active torsions:
REMARK  status: ('A' for Active; 'I' for Inactive)
REMARK    1  A    between atoms: C_1  and  C_2
REMARK    2  A    between atoms: C_2  and  C_3
REMARK    3  A    between atoms: C_2  and  C_4
REMARK    4  A    between atoms: C_2  and  N_5
REMARK    5  A    between atoms: C_6  and  C_8
REMARK    6  A    between atoms: C_17  and  C_18
REMARK    7  A    between atoms: C_17  and  C_19
REMARK                            x       y       z     vdW  Elec       q    Type
REMARK                         _______ _______ _______ _____ _____    ______ ____
ROOT
ATOM      1  C   UNL     1       4.641   5.504  18.197  0.00  0.00    +0.000 C 
ATOM      2  C   UNL     1       4.122   6.851  17.715  0.00  0.00    +0.000 C 
ATOM      3  C   UNL     1       2.663   6.821  17.997  0.00  0.00    +0.000 C 
ATOM      4  O   UNL     1       1.925   7.788  17.978  0.00  0.00    +0.000 OA
ATOM      5  O   UNL     1       2.254   5.546  18.221  0.00  0.00    +0.000 OA
ATOM      6  C   UNL     1       3.363   4.661  18.495  0.00  0.00    +0.000 C 
ATOM      7  C   UNL     1       3.187   3.384  17.658  0.00  0.00    +0.000 C 
ATOM      8  C   UNL     1       2.092   2.439  18.131  0.00  0.00    +0.000 C 
ATOM      9  O   UNL     1       2.190   2.181  19.526  0.00  0.00    +0.000 OA
ATOM     10  C   UNL     1       2.098   3.351  20.346  0.00  0.00    +0.000 C 
ATOM     11  C   UNL     1       0.704   3.991  20.222  0.00  0.00    +0.000 C 
ATOM     12  C   UNL     1       2.252   2.854  21.793  0.00  0.00    +0.000 C 
ATOM     13  C   UNL     1       3.271   4.300  19.999  0.00  0.00    +0.000 C 
ENDROOT
BRANCH   1  15
ATOM     14  N   UNL     1       5.202   5.041  15.864  0.00  0.00    +0.000 N 
ATOM     15  C   UNL     1       5.674   5.008  17.169  0.00  0.00    +0.000 C 
ATOM     16  O   UNL     1       6.779   4.571  17.453  0.00  0.00    +0.000 OA
ATOM     17  H   UNL     1       4.452   5.692  15.672  0.00  0.00    +0.000 HD
BRANCH  14  19
ATOM     18  C   UNL     1       7.213   5.360  14.406  0.00  0.00    +0.000 C 
ATOM     19  C   UNL     1       5.940   4.540  14.683  0.00  0.00    +0.000 C 
ATOM     20  C   UNL     1       5.045   4.553  13.434  0.00  0.00    +0.000 C 
ATOM     21  C   UNL     1       6.377   3.093  14.986  0.00  0.00    +0.000 C 
ENDBRANCH  14  19
ENDBRANCH   1  15
TORSDOF 2
ENDMDL
