MODEL 1
REMARK VINA RESULT:      -6.2      0.000      0.000
REMARK  Name = 
REMARK  8 active torsions:
REMARK  status: ('A' for Active; 'I' for Inactive)
REMARK    1  A    between atoms: C_1  and  C_2
REMARK    2  A    between atoms: C_2  and  N_3
REMARK    3  A    between atoms: N_3  and  C_4
REMARK    4  A    between atoms: N_3  and  C_6
REMARK    5  A    between atoms: C_4  and  C_5
REMARK    6  A    between atoms: C_6  and  C_7
REMARK    7  A    between atoms: N_9  and  C_10
REMARK    8  A    between atoms: C_14  and  C_15
REMARK                            x       y       z     vdW  Elec       q    Type
REMARK                         _______ _______ _______ _____ _____    ______ ____
ROOT
ATOM      1  C   UNL     1       4.462   4.137  17.460  0.00  0.00    +0.000 C 
ATOM      2  O   UNL     1       5.052   3.631  18.416  0.00  0.00    +0.000 OA
ATOM      3  N   UNL     1       3.182   4.675  17.509  0.00  0.00    +0.000 N 
ATOM      4  H   UNL     1       2.638   4.610  16.660  0.00  0.00    +0.000 HD
ENDROOT
BRANCH   3   5
ATOM      5  C   UNL     1       2.506   4.662  18.709  0.00  0.00    +0.000 A 
ATOM      6  S   UNL     1       2.818   6.017  19.686  0.00  0.00    +0.000 S 
ATOM      7  C   UNL     1       1.586   5.567  20.782  0.00  0.00    +0.000 A 
ATOM      8  C   UNL     1       1.043   4.339  20.465  0.00  0.00    +0.000 A 
ATOM      9  C   UNL     1       1.611   3.767  19.268  0.00  0.00    +0.000 A 
BRANCH   9  10
ATOM     10  C   UNL     1       1.370   2.424  18.755  0.00  0.00    +0.000 C 
ATOM     11  N   UNL     1       2.466   1.611  18.650  0.00  0.00    +0.000 N 
ATOM     12  O   UNL     1       0.283   2.017  18.364  0.00  0.00    +0.000 OA
ATOM     13  H   UNL     1       3.334   1.821  19.130  0.00  0.00    +0.000 HD
ATOM     14  H   UNL     1       2.282   0.653  18.387  0.00  0.00    +0.000 HD
ENDBRANCH   9  10
ENDBRANCH   3   5
BRANCH   1  15
ATOM     15  C   UNL     1       5.091   4.150  16.056  0.00  0.00    +0.000 C 
BRANCH  15  16
ATOM     16  N   UNL     1       6.402   4.841  16.046  0.00  0.00    +0.000 NA
BRANCH  16  18
ATOM     17  C   UNL     1       6.224   3.934  13.689  0.00  0.00    +0.000 C 
ATOM     18  C   UNL     1       7.005   4.767  14.698  0.00  0.00    +0.000 C 
ENDBRANCH  16  18
BRANCH  16  19
ATOM     19  C   UNL     1       6.290   6.216  16.561  0.00  0.00    +0.000 C 
ATOM     20  C   UNL     1       7.339   6.647  17.585  0.00  0.00    +0.000 C 
ENDBRANCH  16  19
ENDBRANCH  15  16
ENDBRANCH   1  15
TORSDOF 6
ENDMDL
MODEL 2
REMARK VINA RESULT:      -6.2      2.494      3.000
REMARK  Name = 
REMARK  8 active torsions:
REMARK  status: ('A' for Active; 'I' for Inactive)
REMARK    1  A    between atoms: C_1  and  C_2
REMARK    2  A    between atoms: C_2  and  N_3
REMARK    3  A    between atoms: N_3  and  C_4
REMARK    4  A    between atoms: N_3  and  C_6
REMARK    5  A    between atoms: C_4  and  C_5
REMARK    6  A    between atoms: C_6  and  C_7
REMARK    7  A    between atoms: N_9  and  C_10
REMARK    8  A    between atoms: C_14  and  C_15
REMARK                            x       y       z     vdW  Elec       q    Type
REMARK                         _______ _______ _______ _____ _____    ______ ____
ROOT
ATOM      1  C   UNL     1       6.476   4.632  18.774  0.00  0.00    +0.000 C 
ATOM      2  O   UNL     1       6.613   5.185  19.866  0.00  0.00    +0.000 OA
ATOM      3  N   UNL     1       5.345   3.929  18.373  0.00  0.00    +0.000 N 
ATOM      4  H   UNL     1       5.501   3.160  17.738  0.00  0.00    +0.000 HD
ENDROOT
BRANCH   3   5
ATOM      5  C   UNL     1       4.281   3.842  19.243  0.00  0.00    +0.000 A 
ATOM      6  S   UNL     1       4.078   2.299  19.926  0.00  0.00    +0.000 S 
ATOM      7  C   UNL     1       2.889   2.884  21.006  0.00  0.00    +0.000 A 
ATOM      8  C   UNL     1       2.572   4.203  20.753  0.00  0.00    +0.000 A 
ATOM      9  C   UNL     1       3.352   4.771  19.680  0.00  0.00    +0.000 A 
BRANCH   9  10
ATOM     10  C   UNL     1       3.154   6.079  19.067  0.00  0.00    +0.000 C 
ATOM     11  N   UNL     1       2.514   7.015  19.833  0.00  0.00    +0.000 N 
ATOM     12  O   UNL     1       3.462   6.357  17.915  0.00  0.00    +0.000 OA
ATOM     13  H   UNL     1       2.414   6.906  20.835  0.00  0.00    +0.000 HD
ATOM     14  H   UNL     1       2.465   7.945  19.443  0.00  0.00    +0.000 HD
ENDBRANCH   9  10
ENDBRANCH   3   5
BRANCH   1  15
ATOM     15  C   UNL     1       7.621   4.607  17.747  0.00  0.00    +0.000 C 
BRANCH  15  16
ATOM     16  N   UNL     1       7.465   5.667  16.723  0.00  0.00    +0.000 NA
BRANCH  16  18
ATOM     17  C   UNL     1       5.408   5.769  15.251  0.00  0.00    +0.000 C 
ATOM     18  C   UNL     1       6.760   5.130  15.539  0.00  0.00    +0.000 C 
ENDBRANCH  16  18
BRANCH  16  19
ATOM     19  C   UNL     1       6.829   6.870  17.284  0.00  0.00    +0.000 C 
ATOM     20  C   UNL     1       7.755   8.043  17.605  0.00  0.00    +0.000 C 
ENDBRANCH  16  19
ENDBRANCH  15  16
ENDBRANCH   1  15
TORSDOF 6
ENDMDL
MODEL 3
REMARK VINA RESULT:      -6.2      2.085      2.341
REMARK  Name = 
REMARK  8 active torsions:
REMARK  status: ('A' for Active; 'I' for Inactive)
REMARK    1  A    between atoms: C_1  and  C_2
REMARK    2  A    between atoms: C_2  and  N_3
REMARK    3  A    between atoms: N_3  and  C_4
REMARK    4  A    between atoms: N_3  and  C_6
REMARK    5  A    between atoms: C_4  and  C_5
REMARK    6  A    between atoms: C_6  and  C_7
REMARK    7  A    between atoms: N_9  and  C_10
REMARK    8  A    between atoms: C_14  and  C_15
REMARK                            x       y       z     vdW  Elec       q    Type
REMARK                         _______ _______ _______ _____ _____    ______ ____
ROOT
ATOM      1  C   UNL     1       6.405   4.894  18.604  0.00  0.00    +0.000 C 
ATOM      2  O   UNL     1       6.733   5.165  19.759  0.00  0.00    +0.000 OA
ATOM      3  N   UNL     1       5.138   4.477  18.213  0.00  0.00    +0.000 N 
ATOM      4  H   UNL     1       5.099   3.852  17.421  0.00  0.00    +0.000 HD
ENDROOT
BRANCH   3   5
ATOM      5  C   UNL     1       4.156   4.363  19.172  0.00  0.00    +0.000 A 
ATOM      6  S   UNL     1       3.283   5.797  19.433  0.00  0.00    +0.000 S 
ATOM      7  C   UNL     1       2.157   4.984  20.429  0.00  0.00    +0.000 A 
ATOM      8  C   UNL     1       2.524   3.673  20.652  0.00  0.00    +0.000 A 
ATOM      9  C   UNL     1       3.732   3.303  19.955  0.00  0.00    +0.000 A 
BRANCH   9  10
ATOM     10  C   UNL     1       4.466   2.052  20.103  0.00  0.00    +0.000 C 
ATOM     11  N   UNL     1       4.387   1.176  19.054  0.00  0.00    +0.000 N 
ATOM     12  O   UNL     1       5.078   1.724  21.112  0.00  0.00    +0.000 OA
ATOM     13  H   UNL     1       4.066   1.468  18.139  0.00  0.00    +0.000 HD
ATOM     14  H   UNL     1       4.973   0.356  19.119  0.00  0.00    +0.000 HD
ENDBRANCH   9  10
ENDBRANCH   3   5
BRANCH   1  15
ATOM     15  C   UNL     1       7.432   4.922  17.459  0.00  0.00    +0.000 C 
BRANCH  15  16
ATOM     16  N   UNL     1       7.169   6.031  16.511  0.00  0.00    +0.000 NA
BRANCH  16  18
ATOM     17  C   UNL     1       6.679   4.472  14.578  0.00  0.00    +0.000 C 
ATOM     18  C   UNL     1       6.199   5.600  15.482  0.00  0.00    +0.000 C 
ENDBRANCH  16  18
BRANCH  16  19
ATOM     19  C   UNL     1       6.767   7.258  17.216  0.00  0.00    +0.000 C 
ATOM     20  C   UNL     1       7.894   8.188  17.664  0.00  0.00    +0.000 C 
ENDBRANCH  16  19
ENDBRANCH  15  16
ENDBRANCH   1  15
TORSDOF 6
ENDMDL
MODEL 4
REMARK VINA RESULT:      -6.2      1.737      2.118
REMARK  Name = 
REMARK  8 active torsions:
REMARK  status: ('A' for Active; 'I' for Inactive)
REMARK    1  A    between atoms: C_1  and  C_2
REMARK    2  A    between atoms: C_2  and  N_3
REMARK    3  A    between atoms: N_3  and  C_4
REMARK    4  A    between atoms: N_3  and  C_6
REMARK    5  A    between atoms: C_4  and  C_5
REMARK    6  A    between atoms: C_6  and  C_7
REMARK    7  A    between atoms: N_9  and  C_10
REMARK    8  A    between atoms: C_14  and  C_15
REMARK                            x       y       z     vdW  Elec       q    Type
REMARK                         _______ _______ _______ _____ _____    ______ ____
ROOT
ATOM      1  C   UNL     1       4.119   4.455  17.511  0.00  0.00    +0.000 C 
ATOM      2  O   UNL     1       3.326   3.664  16.998  0.00  0.00    +0.000 OA
ATOM      3  N   UNL     1       4.207   4.725  18.872  0.00  0.00    +0.000 N 
ATOM      4  H   UNL     1       4.498   5.659  19.123  0.00  0.00    +0.000 HD
ENDROOT
BRANCH   3   5
ATOM      5  C   UNL     1       3.360   4.061  19.732  0.00  0.00    +0.000 A 
ATOM      6  S   UNL     1       2.135   5.043  20.381  0.00  0.00    +0.000 S 
ATOM      7  C   UNL     1       1.351   3.687  21.068  0.00  0.00    +0.000 A 
ATOM      8  C   UNL     1       2.088   2.533  20.905  0.00  0.00    +0.000 A 
ATOM      9  C   UNL     1       3.305   2.746  20.159  0.00  0.00    +0.000 A 
BRANCH   9  10
ATOM     10  C   UNL     1       4.371   1.773  19.951  0.00  0.00    +0.000 C 
ATOM     11  N   UNL     1       4.309   1.045  18.794  0.00  0.00    +0.000 N 
ATOM     12  O   UNL     1       5.258   1.535  20.762  0.00  0.00    +0.000 OA
ATOM     13  H   UNL     1       3.725   1.329  18.016  0.00  0.00    +0.000 HD
ATOM     14  H   UNL     1       5.099   0.444  18.608  0.00  0.00    +0.000 HD
ENDBRANCH   9  10
ENDBRANCH   3   5
BRANCH   1  15
ATOM     15  C   UNL     1       5.068   5.301  16.646  0.00  0.00    +0.000 C 
BRANCH  15  16
ATOM     16  N   UNL     1       6.462   4.800  16.706  0.00  0.00    +0.000 NA
BRANCH  16  18
ATOM     17  C   UNL     1       5.866   4.313  14.295  0.00  0.00    +0.000 C 
ATOM     18  C   UNL     1       6.954   4.500  15.344  0.00  0.00    +0.000 C 
ENDBRANCH  16  18
BRANCH  16  19
ATOM     19  C   UNL     1       7.334   5.722  17.452  0.00  0.00    +0.000 C 
ATOM     20  C   UNL     1       6.959   7.202  17.406  0.00  0.00    +0.000 C 
ENDBRANCH  16  19
ENDBRANCH  15  16
ENDBRANCH   1  15
TORSDOF 6
ENDMDL
MODEL 5
REMARK VINA RESULT:      -6.2      2.044      3.199
REMARK  Name = 
REMARK  8 active torsions:
REMARK  status: ('A' for Active; 'I' for Inactive)
REMARK    1  A    between atoms: C_1  and  C_2
REMARK    2  A    between atoms: C_2  and  N_3
REMARK    3  A    between atoms: N_3  and  C_4
REMARK    4  A    between atoms: N_3  and  C_6
REMARK    5  A    between atoms: C_4  and  C_5
REMARK    6  A    between atoms: C_6  and  C_7
REMARK    7  A    between atoms: N_9  and  C_10
REMARK    8  A    between atoms: C_14  and  C_15
REMARK                            x       y       z     vdW  Elec       q    Type
REMARK                         _______ _______ _______ _____ _____    ______ ____
ROOT
ATOM      1  C   UNL     1       5.284   4.184  18.441  0.00  0.00    +0.000 C 
ATOM      2  O   UNL     1       5.393   3.660  19.550  0.00  0.00    +0.000 OA
ATOM      3  N   UNL     1       4.081   4.432  17.791  0.00  0.00    +0.000 N 
ATOM      4  H   UNL     1       4.103   4.397  16.782  0.00  0.00    +0.000 HD
ENDROOT
BRANCH   3   5
ATOM      5  C   UNL     1       2.907   4.083  18.422  0.00  0.00    +0.000 A 
ATOM      6  S   UNL     1       2.302   2.566  17.952  0.00  0.00    +0.000 S 
ATOM      7  C   UNL     1       1.113   2.610  19.180  0.00  0.00    +0.000 A 
ATOM      8  C   UNL     1       1.108   3.819  19.845  0.00  0.00    +0.000 A 
ATOM      9  C   UNL     1       2.132   4.721  19.374  0.00  0.00    +0.000 A 
BRANCH   9  10
ATOM     10  C   UNL     1       2.292   6.119  19.755  0.00  0.00    +0.000 C 
ATOM     11  N   UNL     1       1.809   6.470  20.987  0.00  0.00    +0.000 N 
ATOM     12  O   UNL     1       2.762   6.985  19.027  0.00  0.00    +0.000 OA
ATOM     13  H   UNL     1       1.594   5.776  21.692  0.00  0.00    +0.000 HD
ATOM     14  H   UNL     1       2.008   7.415  21.286  0.00  0.00    +0.000 HD
ENDBRANCH   9  10
ENDBRANCH   3   5
BRANCH   1  15
ATOM     15  C   UNL     1       6.526   4.558  17.614  0.00  0.00    +0.000 C 
BRANCH  15  16
ATOM     16  N   UNL     1       6.176   5.395  16.442  0.00  0.00    +0.000 NA
BRANCH  16  18
ATOM     17  C   UNL     1       7.557   7.136  17.654  0.00  0.00    +0.000 C 
ATOM     18  C   UNL     1       6.358   6.826  16.768  0.00  0.00    +0.000 C 
ENDBRANCH  16  18
BRANCH  16  19
ATOM     19  C   UNL     1       6.911   4.972  15.239  0.00  0.00    +0.000 C 
ATOM     20  C   UNL     1       6.121   4.170  14.205  0.00  0.00    +0.000 C 
ENDBRANCH  16  19
ENDBRANCH  15  16
ENDBRANCH   1  15
TORSDOF 6
ENDMDL
MODEL 6
REMARK VINA RESULT:      -6.1      2.023      3.311
REMARK  Name = 
REMARK  8 active torsions:
REMARK  status: ('A' for Active; 'I' for Inactive)
REMARK    1  A    between atoms: C_1  and  C_2
REMARK    2  A    between atoms: C_2  and  N_3
REMARK    3  A    between atoms: N_3  and  C_4
REMARK    4  A    between atoms: N_3  and  C_6
REMARK    5  A    between atoms: C_4  and  C_5
REMARK    6  A    between atoms: C_6  and  C_7
REMARK    7  A    between atoms: N_9  and  C_10
REMARK    8  A    between atoms: C_14  and  C_15
REMARK                            x       y       z     vdW  Elec       q    Type
REMARK                         _______ _______ _______ _____ _____    ______ ____
ROOT
ATOM      1  C   UNL     1       4.793   4.212  17.908  0.00  0.00    +0.000 C 
ATOM      2  O   UNL     1       3.940   4.131  17.024  0.00  0.00    +0.000 OA
ATOM      3  N   UNL     1       4.527   4.222  19.273  0.00  0.00    +0.000 N 
ATOM      4  H   UNL     1       5.168   4.749  19.848  0.00  0.00    +0.000 HD
ENDROOT
BRANCH   3   5
ATOM      5  C   UNL     1       3.218   4.122  19.691  0.00  0.00    +0.000 A 
ATOM      6  S   UNL     1       2.667   2.522  19.841  0.00  0.00    +0.000 S 
ATOM      7  C   UNL     1       1.219   3.043  20.586  0.00  0.00    +0.000 A 
ATOM      8  C   UNL     1       1.116   4.419  20.597  0.00  0.00    +0.000 A 
ATOM      9  C   UNL     1       2.270   5.072  20.026  0.00  0.00    +0.000 A 
BRANCH   9  10
ATOM     10  C   UNL     1       2.406   6.497  19.748  0.00  0.00    +0.000 C 
ATOM     11  N   UNL     1       1.919   7.349  20.702  0.00  0.00    +0.000 N 
ATOM     12  O   UNL     1       2.859   6.958  18.708  0.00  0.00    +0.000 OA
ATOM     13  H   UNL     1       1.717   7.036  21.643  0.00  0.00    +0.000 HD
ATOM     14  H   UNL     1       2.102   8.331  20.550  0.00  0.00    +0.000 HD
ENDBRANCH   9  10
ENDBRANCH   3   5
BRANCH   1  15
ATOM     15  C   UNL     1       6.281   4.393  17.562  0.00  0.00    +0.000 C 
BRANCH  15  16
ATOM     16  N   UNL     1       6.482   5.427  16.520  0.00  0.00    +0.000 NA
BRANCH  16  18
ATOM     17  C   UNL     1       7.726   6.382  18.506  0.00  0.00    +0.000 C 
ATOM     18  C   UNL     1       7.229   6.574  17.079  0.00  0.00    +0.000 C 
ENDBRANCH  16  18
BRANCH  16  19
ATOM     19  C   UNL     1       7.100   4.860  15.310  0.00  0.00    +0.000 C 
ATOM     20  C   UNL     1       6.154   4.214  14.300  0.00  0.00    +0.000 C 
ENDBRANCH  16  19
ENDBRANCH  15  16
ENDBRANCH   1  15
TORSDOF 6
ENDMDL
MODEL 7
REMARK VINA RESULT:      -6.1      1.682      1.940
REMARK  Name = 
REMARK  8 active torsions:
REMARK  status: ('A' for Active; 'I' for Inactive)
REMARK    1  A    between atoms: C_1  and  C_2
REMARK    2  A    between atoms: C_2  and  N_3
REMARK    3  A    between atoms: N_3  and  C_4
REMARK    4  A    between atoms: N_3  and  C_6
REMARK    5  A    between atoms: C_4  and  C_5
REMARK    6  A    between atoms: C_6  and  C_7
REMARK    7  A    between atoms: N_9  and  C_10
REMARK    8  A    between atoms: C_14  and  C_15
REMARK                            x       y       z     vdW  Elec       q    Type
REMARK                         _______ _______ _______ _____ _____    ______ ____
ROOT
ATOM      1  C   UNL     1       4.809   4.903  18.864  0.00  0.00    +0.000 C 
ATOM      2  O   UNL     1       5.482   3.989  19.340  0.00  0.00    +0.000 OA
ATOM      3  N   UNL     1       3.427   5.008  18.958  0.00  0.00    +0.000 N 
ATOM      4  H   UNL     1       2.960   5.464  18.187  0.00  0.00    +0.000 HD
ENDROOT
BRANCH   3   5
ATOM      5  C   UNL     1       2.737   4.032  19.643  0.00  0.00    +0.000 A 
ATOM      6  S   UNL     1       2.257   4.499  21.205  0.00  0.00    +0.000 S 
ATOM      7  C   UNL     1       1.307   3.089  21.384  0.00  0.00    +0.000 A 
ATOM      8  C   UNL     1       1.464   2.228  20.317  0.00  0.00    +0.000 A 
ATOM      9  C   UNL     1       2.345   2.749  19.301  0.00  0.00    +0.000 A 
BRANCH   9  10
ATOM     10  C   UNL     1       2.838   2.029  18.133  0.00  0.00    +0.000 C 
ATOM     11  N   UNL     1       3.997   1.321  18.305  0.00  0.00    +0.000 N 
ATOM     12  O   UNL     1       2.323   2.074  17.023  0.00  0.00    +0.000 OA
ATOM     13  H   UNL     1       4.352   1.094  19.225  0.00  0.00    +0.000 HD
ATOM     14  H   UNL     1       4.283   0.747  17.524  0.00  0.00    +0.000 HD
ENDBRANCH   9  10
ENDBRANCH   3   5
BRANCH   1  15
ATOM     15  C   UNL     1       5.462   6.014  18.024  0.00  0.00    +0.000 C 
BRANCH  15  16
ATOM     16  N   UNL     1       6.872   5.698  17.693  0.00  0.00    +0.000 NA
BRANCH  16  18
ATOM     17  C   UNL     1       5.719   5.544  15.445  0.00  0.00    +0.000 C 
ATOM     18  C   UNL     1       7.021   5.503  16.235  0.00  0.00    +0.000 C 
ENDBRANCH  16  18
BRANCH  16  19
ATOM     19  C   UNL     1       7.794   6.705  18.245  0.00  0.00    +0.000 C 
ATOM     20  C   UNL     1       7.777   8.081  17.581  0.00  0.00    +0.000 C 
ENDBRANCH  16  19
ENDBRANCH  15  16
ENDBRANCH   1  15
TORSDOF 6
ENDMDL
MODEL 8
REMARK VINA RESULT:      -6.1      2.267      3.300
REMARK  Name = 
REMARK  8 active torsions:
REMARK  status: ('A' for Active; 'I' for Inactive)
REMARK    1  A    between atoms: C_1  and  C_2
REMARK    2  A    between atoms: C_2  and  N_3
REMARK    3  A    between atoms: N_3  and  C_4
REMARK    4  A    between atoms: N_3  and  C_6
REMARK    5  A    between atoms: C_4  and  C_5
REMARK    6  A    between atoms: C_6  and  C_7
REMARK    7  A    between atoms: N_9  and  C_10
REMARK    8  A    between atoms: C_14  and  C_15
REMARK                            x       y       z     vdW  Elec       q    Type
REMARK                         _______ _______ _______ _____ _____    ______ ____
ROOT
ATOM      1  C   UNL     1       5.776   4.613  18.785  0.00  0.00    +0.000 C 
ATOM      2  O   UNL     1       6.156   4.943  19.909  0.00  0.00    +0.000 OA
ATOM      3  N   UNL     1       4.501   4.153  18.477  0.00  0.00    +0.000 N 
ATOM      4  H   UNL     1       4.437   3.492  17.716  0.00  0.00    +0.000 HD
ENDROOT
BRANCH   3   5
ATOM      5  C   UNL     1       3.571   4.063  19.489  0.00  0.00    +0.000 A 
ATOM      6  S   UNL     1       3.385   2.492  20.111  0.00  0.00    +0.000 S 
ATOM      7  C   UNL     1       2.400   3.065  21.386  0.00  0.00    +0.000 A 
ATOM      8  C   UNL     1       2.123   4.410  21.253  0.00  0.00    +0.000 A 
ATOM      9  C   UNL     1       2.768   5.005  20.108  0.00  0.00    +0.000 A 
BRANCH   9  10
ATOM     10  C   UNL     1       2.556   6.356  19.602  0.00  0.00    +0.000 C 
ATOM     11  N   UNL     1       2.052   7.264  20.494  0.00  0.00    +0.000 N 
ATOM     12  O   UNL     1       2.737   6.696  18.440  0.00  0.00    +0.000 OA
ATOM     13  H   UNL     1       2.067   7.095  21.493  0.00  0.00    +0.000 HD
ATOM     14  H   UNL     1       1.998   8.219  20.169  0.00  0.00    +0.000 HD
ENDBRANCH   9  10
ENDBRANCH   3   5
BRANCH   1  15
ATOM     15  C   UNL     1       6.744   4.610  17.589  0.00  0.00    +0.000 C 
BRANCH  15  16
ATOM     16  N   UNL     1       6.216   5.400  16.452  0.00  0.00    +0.000 NA
BRANCH  16  18
ATOM     17  C   UNL     1       7.543   7.334  17.404  0.00  0.00    +0.000 C 
ATOM     18  C   UNL     1       6.245   6.842  16.777  0.00  0.00    +0.000 C 
ENDBRANCH  16  18
BRANCH  16  19
ATOM     19  C   UNL     1       6.912   5.071  15.197  0.00  0.00    +0.000 C 
ATOM     20  C   UNL     1       6.179   4.136  14.236  0.00  0.00    +0.000 C 
ENDBRANCH  16  19
ENDBRANCH  15  16
ENDBRANCH   1  15
TORSDOF 6
ENDMDL
MODEL 9
REMARK VINA RESULT:      -6.0      1.900      2.618
REMARK  Name = 
REMARK  8 active torsions:
REMARK  status: ('A' for Active; 'I' for Inactive)
REMARK    1  A    between atoms: C_1  and  C_2
REMARK    2  A    between atoms: C_2  and  N_3
REMARK    3  A    between atoms: N_3  and  C_4
REMARK    4  A    between atoms: N_3  and  C_6
REMARK    5  A    between atoms: C_4  and  C_5
REMARK    6  A    between atoms: C_6  and  C_7
REMARK    7  A    between atoms: N_9  and  C_10
REMARK    8  A    between atoms: C_14  and  C_15
REMARK                            x       y       z     vdW  Elec       q    Type
REMARK                         _______ _______ _______ _____ _____    ______ ____
ROOT
ATOM      1  C   UNL     1       4.599   3.762  17.915  0.00  0.00    +0.000 C 
ATOM      2  O   UNL     1       5.241   3.550  18.944  0.00  0.00    +0.000 OA
ATOM      3  N   UNL     1       3.219   3.912  17.853  0.00  0.00    +0.000 N 
ATOM      4  H   UNL     1       2.774   3.604  17.000  0.00  0.00    +0.000 HD
ENDROOT
BRANCH   3   5
ATOM      5  C   UNL     1       2.494   3.834  19.022  0.00  0.00    +0.000 A 
ATOM      6  S   UNL     1       1.898   2.278  19.356  0.00  0.00    +0.000 S 
ATOM      7  C   UNL     1       1.388   2.760  20.915  0.00  0.00    +0.000 A 
ATOM      8  C   UNL     1       1.560   4.114  21.114  0.00  0.00    +0.000 A 
ATOM      9  C   UNL     1       2.168   4.774  19.984  0.00  0.00    +0.000 A 
BRANCH   9  10
ATOM     10  C   UNL     1       2.340   6.211  19.814  0.00  0.00    +0.000 C 
ATOM     11  N   UNL     1       1.925   6.998  20.853  0.00  0.00    +0.000 N 
ATOM     12  O   UNL     1       2.764   6.742  18.794  0.00  0.00    +0.000 OA
ATOM     13  H   UNL     1       1.753   6.616  21.775  0.00  0.00    +0.000 HD
ATOM     14  H   UNL     1       2.134   7.983  20.772  0.00  0.00    +0.000 HD
ENDBRANCH   9  10
ENDBRANCH   3   5
BRANCH   1  15
ATOM     15  C   UNL     1       5.292   3.804  16.542  0.00  0.00    +0.000 C 
BRANCH  15  16
ATOM     16  N   UNL     1       6.392   4.798  16.511  0.00  0.00    +0.000 NA
BRANCH  16  18
ATOM     17  C   UNL     1       6.339   3.952  14.126  0.00  0.00    +0.000 C 
ATOM     18  C   UNL     1       7.037   4.801  15.181  0.00  0.00    +0.000 C 
ENDBRANCH  16  18
BRANCH  16  19
ATOM     19  C   UNL     1       5.929   6.128  16.939  0.00  0.00    +0.000 C 
ATOM     20  C   UNL     1       4.906   6.816  16.036  0.00  0.00    +0.000 C 
ENDBRANCH  16  19
ENDBRANCH  15  16
ENDBRANCH   1  15
TORSDOF 6
ENDMDL
