MODEL 1
REMARK VINA RESULT:      -6.1      0.000      0.000
REMARK  Name = 
REMARK  9 active torsions:
REMARK  status: ('A' for Active; 'I' for Inactive)
REMARK    1  A    between atoms: C_1  and  O_2
REMARK    2  A    between atoms: O_2  and  C_3
REMARK    3  A    between atoms: C_3  and  C_5
REMARK    4  A    between atoms: C_7  and  N_8
REMARK    5  A    between atoms: C_9  and  C_11
REMARK    6  A    between atoms: C_11  and  N_12
REMARK    7  A    between atoms: N_12  and  C_13
REMARK    8  A    between atoms: N_12  and  C_14
REMARK    9  A    between atoms: C_17  and  C_18
REMARK                            x       y       z     vdW  Elec       q    Type
REMARK                         _______ _______ _______ _____ _____    ______ ____
ROOT
ATOM      1  C   UNL     1       3.644   4.329  18.706  0.00  0.00    +0.000 A 
ATOM      2  C   UNL     1       3.341   5.506  19.420  0.00  0.00    +0.000 A 
ATOM      3  C   UNL     1       2.217   5.602  20.242  0.00  0.00    +0.000 A 
ATOM      4  C   UNL     1       1.356   4.508  20.330  0.00  0.00    +0.000 A 
ATOM      5  C   UNL     1       1.646   3.323  19.645  0.00  0.00    +0.000 A 
ATOM      6  C   UNL     1       2.792   3.212  18.836  0.00  0.00    +0.000 A 
ATOM      7  C   UNL     1       3.046   1.902  18.138  0.00  0.00    +0.000 C 
ENDROOT
BRANCH   3   8
ATOM      8  N   UNL     1       1.901   6.758  20.985  0.00  0.00    +0.000 N 
ATOM      9  C   UNL     1       1.662   8.027  20.479  0.00  0.00    +0.000 C 
ATOM     10  O   UNL     1       1.710   8.367  19.301  0.00  0.00    +0.000 OA
ATOM     11  H   UNL     1       2.004   6.719  21.995  0.00  0.00    +0.000 HD
BRANCH   9  12
ATOM     12  C   UNL     1       1.305   9.045  21.565  0.00  0.00    +0.000 C 
BRANCH  12  13
ATOM     13  N   UNL     1      -0.158   9.279  21.644  0.00  0.00    +0.000 NA
ATOM     14  C   UNL     1      -0.563   9.563  23.030  0.00  0.00    +0.000 C 
ATOM     15  C   UNL     1      -0.492  10.442  20.809  0.00  0.00    +0.000 C 
ENDBRANCH  12  13
ENDBRANCH   9  12
ENDBRANCH   3   8
BRANCH   1  16
ATOM     16  C   UNL     1       4.859   4.297  17.821  0.00  0.00    +0.000 C 
ATOM     17  O   UNL     1       4.832   4.331  16.602  0.00  0.00    +0.000 OA
BRANCH  16  19
ATOM     18  C   UNL     1       7.212   4.616  17.934  0.00  0.00    +0.000 C 
ATOM     19  O   UNL     1       5.987   4.249  18.574  0.00  0.00    +0.000 OA
ENDBRANCH  16  19
ENDBRANCH   1  16
TORSDOF 5
ENDMDL
MODEL 2
REMARK VINA RESULT:      -6.0      0.726      1.108
REMARK  Name = 
REMARK  9 active torsions:
REMARK  status: ('A' for Active; 'I' for Inactive)
REMARK    1  A    between atoms: C_1  and  O_2
REMARK    2  A    between atoms: O_2  and  C_3
REMARK    3  A    between atoms: C_3  and  C_5
REMARK    4  A    between atoms: C_7  and  N_8
REMARK    5  A    between atoms: C_9  and  C_11
REMARK    6  A    between atoms: C_11  and  N_12
REMARK    7  A    between atoms: N_12  and  C_13
REMARK    8  A    between atoms: N_12  and  C_14
REMARK    9  A    between atoms: C_17  and  C_18
REMARK                            x       y       z     vdW  Elec       q    Type
REMARK                         _______ _______ _______ _____ _____    ______ ____
ROOT
ATOM      1  C   UNL     1       3.574   4.445  18.863  0.00  0.00    +0.000 A 
ATOM      2  C   UNL     1       3.295   5.570  19.665  0.00  0.00    +0.000 A 
ATOM      3  C   UNL     1       2.106   5.684  20.388  0.00  0.00    +0.000 A 
ATOM      4  C   UNL     1       1.159   4.666  20.284  0.00  0.00    +0.000 A 
ATOM      5  C   UNL     1       1.421   3.532  19.508  0.00  0.00    +0.000 A 
ATOM      6  C   UNL     1       2.629   3.399  18.798  0.00  0.00    +0.000 A 
ATOM      7  C   UNL     1       2.848   2.146  17.993  0.00  0.00    +0.000 C 
ENDROOT
BRANCH   3   8
ATOM      8  N   UNL     1       1.810   6.786  21.216  0.00  0.00    +0.000 N 
ATOM      9  C   UNL     1       1.512   8.076  20.802  0.00  0.00    +0.000 C 
ATOM     10  O   UNL     1       1.480   8.485  19.646  0.00  0.00    +0.000 OA
ATOM     11  H   UNL     1       1.974   6.690  22.214  0.00  0.00    +0.000 HD
BRANCH   9  12
ATOM     12  C   UNL     1       1.198   9.019  21.967  0.00  0.00    +0.000 C 
BRANCH  12  13
ATOM     13  N   UNL     1       0.026   9.882  21.678  0.00  0.00    +0.000 NA
ATOM     14  C   UNL     1      -0.779  10.086  22.894  0.00  0.00    +0.000 C 
ATOM     15  C   UNL     1       0.510  11.188  21.210  0.00  0.00    +0.000 C 
ENDBRANCH  12  13
ENDBRANCH   9  12
ENDBRANCH   3   8
BRANCH   1  16
ATOM     16  C   UNL     1       4.864   4.393  18.092  0.00  0.00    +0.000 C 
ATOM     17  O   UNL     1       5.937   4.044  18.554  0.00  0.00    +0.000 OA
BRANCH  16  19
ATOM     18  C   UNL     1       5.389   4.065  15.796  0.00  0.00    +0.000 C 
ATOM     19  O   UNL     1       4.656   4.767  16.804  0.00  0.00    +0.000 OA
ENDBRANCH  16  19
ENDBRANCH   1  16
TORSDOF 5
ENDMDL
MODEL 3
REMARK VINA RESULT:      -5.8      2.881      3.636
REMARK  Name = 
REMARK  9 active torsions:
REMARK  status: ('A' for Active; 'I' for Inactive)
REMARK    1  A    between atoms: C_1  and  O_2
REMARK    2  A    between atoms: O_2  and  C_3
REMARK    3  A    between atoms: C_3  and  C_5
REMARK    4  A    between atoms: C_7  and  N_8
REMARK    5  A    between atoms: C_9  and  C_11
REMARK    6  A    between atoms: C_11  and  N_12
REMARK    7  A    between atoms: N_12  and  C_13
REMARK    8  A    between atoms: N_12  and  C_14
REMARK    9  A    between atoms: C_17  and  C_18
REMARK                            x       y       z     vdW  Elec       q    Type
REMARK                         _______ _______ _______ _____ _____    ______ ____
ROOT
ATOM      1  C   UNL     1       1.948   3.799  18.665  0.00  0.00    +0.000 A 
ATOM      2  C   UNL     1       1.672   5.173  18.504  0.00  0.00    +0.000 A 
ATOM      3  C   UNL     1       2.600   6.050  17.940  0.00  0.00    +0.000 A 
ATOM      4  C   UNL     1       3.844   5.553  17.556  0.00  0.00    +0.000 A 
ATOM      5  C   UNL     1       4.134   4.191  17.690  0.00  0.00    +0.000 A 
ATOM      6  C   UNL     1       3.193   3.296  18.233  0.00  0.00    +0.000 A 
ATOM      7  C   UNL     1       3.570   1.842  18.335  0.00  0.00    +0.000 C 
ENDROOT
BRANCH   3   8
ATOM      8  N   UNL     1       2.343   7.423  17.746  0.00  0.00    +0.000 N 
ATOM      9  C   UNL     1       1.963   8.339  18.715  0.00  0.00    +0.000 C 
ATOM     10  O   UNL     1       1.760   8.107  19.903  0.00  0.00    +0.000 OA
ATOM     11  H   UNL     1       2.273   7.765  16.791  0.00  0.00    +0.000 HD
BRANCH   9  12
ATOM     12  C   UNL     1       1.808   9.759  18.166  0.00  0.00    +0.000 C 
BRANCH  12  13
ATOM     13  N   UNL     1       0.853  10.562  18.970  0.00  0.00    +0.000 NA
ATOM     14  C   UNL     1       1.302  11.960  19.064  0.00  0.00    +0.000 C 
ATOM     15  C   UNL     1      -0.458  10.533  18.306  0.00  0.00    +0.000 C 
ENDBRANCH  12  13
ENDBRANCH   9  12
ENDBRANCH   3   8
BRANCH   1  16
ATOM     16  C   UNL     1       0.914   2.911  19.300  0.00  0.00    +0.000 C 
ATOM     17  O   UNL     1       0.319   2.015  18.724  0.00  0.00    +0.000 OA
BRANCH  16  19
ATOM     18  C   UNL     1       1.631   2.598  21.545  0.00  0.00    +0.000 C 
ATOM     19  O   UNL     1       0.757   3.234  20.608  0.00  0.00    +0.000 OA
ENDBRANCH  16  19
ENDBRANCH   1  16
TORSDOF 5
ENDMDL
MODEL 4
REMARK VINA RESULT:      -5.8      4.510      7.901
REMARK  Name = 
REMARK  9 active torsions:
REMARK  status: ('A' for Active; 'I' for Inactive)
REMARK    1  A    between atoms: C_1  and  O_2
REMARK    2  A    between atoms: O_2  and  C_3
REMARK    3  A    between atoms: C_3  and  C_5
REMARK    4  A    between atoms: C_7  and  N_8
REMARK    5  A    between atoms: C_9  and  C_11
REMARK    6  A    between atoms: C_11  and  N_12
REMARK    7  A    between atoms: N_12  and  C_13
REMARK    8  A    between atoms: N_12  and  C_14
REMARK    9  A    between atoms: C_17  and  C_18
REMARK                            x       y       z     vdW  Elec       q    Type
REMARK                         _______ _______ _______ _____ _____    ______ ____
ROOT
ATOM      1  C   UNL     1       4.163   3.857  17.969  0.00  0.00    +0.000 A 
ATOM      2  C   UNL     1       4.616   3.558  16.668  0.00  0.00    +0.000 A 
ATOM      3  C   UNL     1       5.005   4.558  15.774  0.00  0.00    +0.000 A 
ATOM      4  C   UNL     1       4.909   5.889  16.176  0.00  0.00    +0.000 A 
ATOM      5  C   UNL     1       4.480   6.209  17.469  0.00  0.00    +0.000 A 
ATOM      6  C   UNL     1       4.113   5.205  18.383  0.00  0.00    +0.000 A 
ATOM      7  C   UNL     1       3.672   5.623  19.761  0.00  0.00    +0.000 C 
ENDROOT
BRANCH   3   8
ATOM      8  N   UNL     1       5.482   4.287  14.476  0.00  0.00    +0.000 N 
ATOM      9  C   UNL     1       6.729   4.619  13.967  0.00  0.00    +0.000 C 
ATOM     10  O   UNL     1       7.621   5.227  14.551  0.00  0.00    +0.000 OA
ATOM     11  H   UNL     1       4.817   3.957  13.782  0.00  0.00    +0.000 HD
BRANCH   9  12
ATOM     12  C   UNL     1       6.934   4.136  12.528  0.00  0.00    +0.000 C 
BRANCH  12  13
ATOM     13  N   UNL     1       6.149   2.911  12.239  0.00  0.00    +0.000 NA
ATOM     14  C   UNL     1       4.873   3.254  11.592  0.00  0.00    +0.000 C 
ATOM     15  C   UNL     1       6.927   2.061  11.326  0.00  0.00    +0.000 C 
ENDBRANCH  12  13
ENDBRANCH   9  12
ENDBRANCH   3   8
BRANCH   1  16
ATOM     16  C   UNL     1       3.739   2.735  18.877  0.00  0.00    +0.000 C 
ATOM     17  O   UNL     1       4.418   2.277  19.780  0.00  0.00    +0.000 OA
BRANCH  16  19
ATOM     18  C   UNL     1       1.462   2.552  19.533  0.00  0.00    +0.000 C 
ATOM     19  O   UNL     1       2.485   2.325  18.560  0.00  0.00    +0.000 OA
ENDBRANCH  16  19
ENDBRANCH   1  16
TORSDOF 5
ENDMDL
MODEL 5
REMARK VINA RESULT:      -5.8      1.056      1.474
REMARK  Name = 
REMARK  9 active torsions:
REMARK  status: ('A' for Active; 'I' for Inactive)
REMARK    1  A    between atoms: C_1  and  O_2
REMARK    2  A    between atoms: O_2  and  C_3
REMARK    3  A    between atoms: C_3  and  C_5
REMARK    4  A    between atoms: C_7  and  N_8
REMARK    5  A    between atoms: C_9  and  C_11
REMARK    6  A    between atoms: C_11  and  N_12
REMARK    7  A    between atoms: N_12  and  C_13
REMARK    8  A    between atoms: N_12  and  C_14
REMARK    9  A    between atoms: C_17  and  C_18
REMARK                            x       y       z     vdW  Elec       q    Type
REMARK                         _______ _______ _______ _____ _____    ______ ____
ROOT
ATOM      1  C   UNL     1       3.759   4.245  19.110  0.00  0.00    +0.000 A 
ATOM      2  C   UNL     1       3.332   5.494  19.603  0.00  0.00    +0.000 A 
ATOM      3  C   UNL     1       2.131   5.640  20.301  0.00  0.00    +0.000 A 
ATOM      4  C   UNL     1       1.322   4.520  20.483  0.00  0.00    +0.000 A 
ATOM      5  C   UNL     1       1.734   3.266  20.018  0.00  0.00    +0.000 A 
ATOM      6  C   UNL     1       2.955   3.108  19.338  0.00  0.00    +0.000 A 
ATOM      7  C   UNL     1       3.339   1.727  18.877  0.00  0.00    +0.000 C 
ENDROOT
BRANCH   3   8
ATOM      8  N   UNL     1       1.690   6.873  20.825  0.00  0.00    +0.000 N 
ATOM      9  C   UNL     1       1.624   8.083  20.151  0.00  0.00    +0.000 C 
ATOM     10  O   UNL     1       1.964   8.295  18.991  0.00  0.00    +0.000 OA
ATOM     11  H   UNL     1       1.547   6.940  21.829  0.00  0.00    +0.000 HD
BRANCH   9  12
ATOM     12  C   UNL     1       1.056   9.215  21.011  0.00  0.00    +0.000 C 
BRANCH  12  13
ATOM     13  N   UNL     1       0.674  10.392  20.192  0.00  0.00    +0.000 NA
ATOM     14  C   UNL     1      -0.695  10.240  19.672  0.00  0.00    +0.000 C 
ATOM     15  C   UNL     1       0.723  11.590  21.043  0.00  0.00    +0.000 C 
ENDBRANCH  12  13
ENDBRANCH   9  12
ENDBRANCH   3   8
BRANCH   1  16
ATOM     16  C   UNL     1       5.052   4.158  18.348  0.00  0.00    +0.000 C 
ATOM     17  O   UNL     1       6.158   4.092  18.859  0.00  0.00    +0.000 OA
BRANCH  16  19
ATOM     18  C   UNL     1       5.201   5.293  16.264  0.00  0.00    +0.000 C 
ATOM     19  O   UNL     1       4.810   4.139  17.013  0.00  0.00    +0.000 OA
ENDBRANCH  16  19
ENDBRANCH   1  16
TORSDOF 5
ENDMDL
MODEL 6
REMARK VINA RESULT:      -5.8      0.949      1.110
REMARK  Name = 
REMARK  9 active torsions:
REMARK  status: ('A' for Active; 'I' for Inactive)
REMARK    1  A    between atoms: C_1  and  O_2
REMARK    2  A    between atoms: O_2  and  C_3
REMARK    3  A    between atoms: C_3  and  C_5
REMARK    4  A    between atoms: C_7  and  N_8
REMARK    5  A    between atoms: C_9  and  C_11
REMARK    6  A    between atoms: C_11  and  N_12
REMARK    7  A    between atoms: N_12  and  C_13
REMARK    8  A    between atoms: N_12  and  C_14
REMARK    9  A    between atoms: C_17  and  C_18
REMARK                            x       y       z     vdW  Elec       q    Type
REMARK                         _______ _______ _______ _____ _____    ______ ____
ROOT
ATOM      1  C   UNL     1       3.813   4.251  18.869  0.00  0.00    +0.000 A 
ATOM      2  C   UNL     1       3.386   5.500  19.364  0.00  0.00    +0.000 A 
ATOM      3  C   UNL     1       2.249   5.626  20.165  0.00  0.00    +0.000 A 
ATOM      4  C   UNL     1       1.502   4.485  20.452  0.00  0.00    +0.000 A 
ATOM      5  C   UNL     1       1.916   3.232  19.987  0.00  0.00    +0.000 A 
ATOM      6  C   UNL     1       3.076   3.094  19.202  0.00  0.00    +0.000 A 
ATOM      7  C   UNL     1       3.467   1.713  18.746  0.00  0.00    +0.000 C 
ENDROOT
BRANCH   3   8
ATOM      8  N   UNL     1       1.812   6.858  20.692  0.00  0.00    +0.000 N 
ATOM      9  C   UNL     1       1.690   8.057  20.005  0.00  0.00    +0.000 C 
ATOM     10  O   UNL     1       1.967   8.256  18.826  0.00  0.00    +0.000 OA
ATOM     11  H   UNL     1       1.718   6.939  21.701  0.00  0.00    +0.000 HD
BRANCH   9  12
ATOM     12  C   UNL     1       1.144   9.192  20.875  0.00  0.00    +0.000 C 
BRANCH  12  13
ATOM     13  N   UNL     1       0.733  10.363  20.062  0.00  0.00    +0.000 NA
ATOM     14  C   UNL     1      -0.699  10.288  19.733  0.00  0.00    +0.000 C 
ATOM     15  C   UNL     1       0.973  11.584  20.845  0.00  0.00    +0.000 C 
ENDBRANCH  12  13
ENDBRANCH   9  12
ENDBRANCH   3   8
BRANCH   1  16
ATOM     16  C   UNL     1       5.034   4.184  17.994  0.00  0.00    +0.000 C 
ATOM     17  O   UNL     1       5.014   4.090  16.778  0.00  0.00    +0.000 OA
BRANCH  16  19
ATOM     18  C   UNL     1       7.226   5.070  18.238  0.00  0.00    +0.000 C 
ATOM     19  O   UNL     1       6.157   4.269  18.750  0.00  0.00    +0.000 OA
ENDBRANCH  16  19
ENDBRANCH   1  16
TORSDOF 5
ENDMDL
MODEL 7
REMARK VINA RESULT:      -5.8      2.337      6.963
REMARK  Name = 
REMARK  9 active torsions:
REMARK  status: ('A' for Active; 'I' for Inactive)
REMARK    1  A    between atoms: C_1  and  O_2
REMARK    2  A    between atoms: O_2  and  C_3
REMARK    3  A    between atoms: C_3  and  C_5
REMARK    4  A    between atoms: C_7  and  N_8
REMARK    5  A    between atoms: C_9  and  C_11
REMARK    6  A    between atoms: C_11  and  N_12
REMARK    7  A    between atoms: N_12  and  C_13
REMARK    8  A    between atoms: N_12  and  C_14
REMARK    9  A    between atoms: C_17  and  C_18
REMARK                            x       y       z     vdW  Elec       q    Type
REMARK                         _______ _______ _______ _____ _____    ______ ____
ROOT
ATOM      1  C   UNL     1       1.449   8.724  20.474  0.00  0.00    +0.000 A 
ATOM      2  C   UNL     1       2.011   7.457  20.219  0.00  0.00    +0.000 A 
ATOM      3  C   UNL     1       2.329   7.037  18.925  0.00  0.00    +0.000 A 
ATOM      4  C   UNL     1       2.049   7.889  17.857  0.00  0.00    +0.000 A 
ATOM      5  C   UNL     1       1.509   9.159  18.088  0.00  0.00    +0.000 A 
ATOM      6  C   UNL     1       1.212   9.598  19.391  0.00  0.00    +0.000 A 
ATOM      7  C   UNL     1       0.643  10.981  19.564  0.00  0.00    +0.000 C 
ENDROOT
BRANCH   3   8
ATOM      8  N   UNL     1       2.912   5.785  18.642  0.00  0.00    +0.000 N 
ATOM      9  C   UNL     1       4.194   5.559  18.163  0.00  0.00    +0.000 C 
ATOM     10  O   UNL     1       5.031   6.410  17.879  0.00  0.00    +0.000 OA
ATOM     11  H   UNL     1       2.308   4.969  18.634  0.00  0.00    +0.000 HD
BRANCH   9  12
ATOM     12  C   UNL     1       4.518   4.070  18.007  0.00  0.00    +0.000 C 
BRANCH  12  13
ATOM     13  N   UNL     1       3.568   3.216  18.762  0.00  0.00    +0.000 NA
ATOM     14  C   UNL     1       2.955   2.214  17.875  0.00  0.00    +0.000 C 
ATOM     15  C   UNL     1       4.309   2.515  19.821  0.00  0.00    +0.000 C 
ENDBRANCH  12  13
ENDBRANCH   9  12
ENDBRANCH   3   8
BRANCH   1  16
ATOM     16  C   UNL     1       1.111   9.108  21.887  0.00  0.00    +0.000 C 
ATOM     17  O   UNL     1       1.926   9.443  22.731  0.00  0.00    +0.000 OA
BRANCH  16  19
ATOM     18  C   UNL     1      -0.792   9.966  23.025  0.00  0.00    +0.000 C 
ATOM     19  O   UNL     1      -0.231   9.050  22.081  0.00  0.00    +0.000 OA
ENDBRANCH  16  19
ENDBRANCH   1  16
TORSDOF 5
ENDMDL
MODEL 8
REMARK VINA RESULT:      -5.7      3.988      6.439
REMARK  Name = 
REMARK  9 active torsions:
REMARK  status: ('A' for Active; 'I' for Inactive)
REMARK    1  A    between atoms: C_1  and  O_2
REMARK    2  A    between atoms: O_2  and  C_3
REMARK    3  A    between atoms: C_3  and  C_5
REMARK    4  A    between atoms: C_7  and  N_8
REMARK    5  A    between atoms: C_9  and  C_11
REMARK    6  A    between atoms: C_11  and  N_12
REMARK    7  A    between atoms: N_12  and  C_13
REMARK    8  A    between atoms: N_12  and  C_14
REMARK    9  A    between atoms: C_17  and  C_18
REMARK                            x       y       z     vdW  Elec       q    Type
REMARK                         _______ _______ _______ _____ _____    ______ ____
ROOT
ATOM      1  C   UNL     1       6.094   3.908  13.661  0.00  0.00    +0.000 A 
ATOM      2  C   UNL     1       5.330   3.470  14.763  0.00  0.00    +0.000 A 
ATOM      3  C   UNL     1       5.590   3.910  16.062  0.00  0.00    +0.000 A 
ATOM      4  C   UNL     1       6.657   4.783  16.272  0.00  0.00    +0.000 A 
ATOM      5  C   UNL     1       7.418   5.244  15.193  0.00  0.00    +0.000 A 
ATOM      6  C   UNL     1       7.143   4.826  13.878  0.00  0.00    +0.000 A 
ATOM      7  C   UNL     1       7.996   5.373  12.764  0.00  0.00    +0.000 C 
ENDROOT
BRANCH   3   8
ATOM      8  N   UNL     1       4.830   3.507  17.179  0.00  0.00    +0.000 N 
ATOM      9  C   UNL     1       3.916   4.280  17.880  0.00  0.00    +0.000 C 
ATOM     10  O   UNL     1       3.632   5.454  17.665  0.00  0.00    +0.000 OA
ATOM     11  H   UNL     1       5.067   2.626  17.624  0.00  0.00    +0.000 HD
BRANCH   9  12
ATOM     12  C   UNL     1       3.235   3.513  19.017  0.00  0.00    +0.000 C 
BRANCH  12  13
ATOM     13  N   UNL     1       1.755   3.587  18.924  0.00  0.00    +0.000 NA
ATOM     14  C   UNL     1       1.183   2.250  18.703  0.00  0.00    +0.000 C 
ATOM     15  C   UNL     1       1.233   4.119  20.191  0.00  0.00    +0.000 C 
ENDBRANCH  12  13
ENDBRANCH   9  12
ENDBRANCH   3   8
BRANCH   1  16
ATOM     16  C   UNL     1       5.776   3.380  12.290  0.00  0.00    +0.000 C 
ATOM     17  O   UNL     1       4.726   3.568  11.698  0.00  0.00    +0.000 OA
BRANCH  16  19
ATOM     18  C   UNL     1       6.548   1.459  11.121  0.00  0.00    +0.000 C 
ATOM     19  O   UNL     1       6.833   2.686  11.798  0.00  0.00    +0.000 OA
ENDBRANCH  16  19
ENDBRANCH   1  16
TORSDOF 5
ENDMDL
MODEL 9
REMARK VINA RESULT:      -5.7      2.389      3.188
REMARK  Name = 
REMARK  9 active torsions:
REMARK  status: ('A' for Active; 'I' for Inactive)
REMARK    1  A    between atoms: C_1  and  O_2
REMARK    2  A    between atoms: O_2  and  C_3
REMARK    3  A    between atoms: C_3  and  C_5
REMARK    4  A    between atoms: C_7  and  N_8
REMARK    5  A    between atoms: C_9  and  C_11
REMARK    6  A    between atoms: C_11  and  N_12
REMARK    7  A    between atoms: N_12  and  C_13
REMARK    8  A    between atoms: N_12  and  C_14
REMARK    9  A    between atoms: C_17  and  C_18
REMARK                            x       y       z     vdW  Elec       q    Type
REMARK                         _______ _______ _______ _____ _____    ______ ____
ROOT
ATOM      1  C   UNL     1       3.127   4.508  17.924  0.00  0.00    +0.000 A 
ATOM      2  C   UNL     1       2.425   5.543  18.574  0.00  0.00    +0.000 A 
ATOM      3  C   UNL     1       2.797   6.882  18.442  0.00  0.00    +0.000 A 
ATOM      4  C   UNL     1       3.916   7.194  17.670  0.00  0.00    +0.000 A 
ATOM      5  C   UNL     1       4.617   6.185  17.002  0.00  0.00    +0.000 A 
ATOM      6  C   UNL     1       4.231   4.837  17.108  0.00  0.00    +0.000 A 
ATOM      7  C   UNL     1       5.026   3.806  16.350  0.00  0.00    +0.000 C 
ENDROOT
BRANCH   3   8
ATOM      8  N   UNL     1       2.101   7.940  19.062  0.00  0.00    +0.000 N 
ATOM      9  C   UNL     1       1.678   9.116  18.462  0.00  0.00    +0.000 C 
ATOM     10  O   UNL     1       1.859   9.450  17.295  0.00  0.00    +0.000 OA
ATOM     11  H   UNL     1       2.025   7.932  20.075  0.00  0.00    +0.000 HD
BRANCH   9  12
ATOM     12  C   UNL     1       0.910  10.032  19.419  0.00  0.00    +0.000 C 
BRANCH  12  13
ATOM     13  N   UNL     1       0.676  11.374  18.830  0.00  0.00    +0.000 NA
ATOM     14  C   UNL     1      -0.724  11.787  19.022  0.00  0.00    +0.000 C 
ATOM     15  C   UNL     1       1.549  12.342  19.510  0.00  0.00    +0.000 C 
ENDBRANCH  12  13
ENDBRANCH   9  12
ENDBRANCH   3   8
BRANCH   1  16
ATOM     16  C   UNL     1       2.689   3.083  18.122  0.00  0.00    +0.000 C 
ATOM     17  O   UNL     1       2.210   2.375  17.252  0.00  0.00    +0.000 OA
BRANCH  16  19
ATOM     18  C   UNL     1       4.261   2.306  19.727  0.00  0.00    +0.000 C 
ATOM     19  O   UNL     1       2.924   2.694  19.401  0.00  0.00    +0.000 OA
ENDBRANCH  16  19
ENDBRANCH   1  16
TORSDOF 5
ENDMDL
