MODEL 1
REMARK VINA RESULT:      -8.1      0.000      0.000
REMARK  Name = 
REMARK  14 active torsions:
REMARK  status: ('A' for Active; 'I' for Inactive)
REMARK    1  A    between atoms: C_1  and  O_2
REMARK    2  A    between atoms: O_2  and  C_3
REMARK    3  A    between atoms: C_3  and  C_4
REMARK    4  A    between atoms: C_4  and  O_5
REMARK    5  A    between atoms: O_5  and  C_6
REMARK    6  A    between atoms: C_11  and  N_12
REMARK    7  A    between atoms: N_15  and  C_16
REMARK    8  A    between atoms: C_16  and  C_17
REMARK    9  A    between atoms: C_16  and  C_24
REMARK   10  A    between atoms: C_24  and  C_25
REMARK   11  A    between atoms: C_24  and  C_26
REMARK   12  A    between atoms: C_24  and  O_27
REMARK   13  A    between atoms: CA_29  and  C_30
REMARK   14  A    between atoms: C_30  and  O_31
REMARK                            x       y       z     vdW  Elec       q    Type
REMARK                         _______ _______ _______ _____ _____    ______ ____
ROOT
ATOM      1  N   UNL     1       2.670   7.055  20.217  0.00  0.00    +0.000 N 
ATOM      2  C   UNL     1       2.601   5.997  19.325  0.00  0.00    +0.000 C 
ATOM      3  O   UNL     1       1.692   5.783  18.531  0.00  0.00    +0.000 OA
ATOM      4  N   UNL     1       3.662   5.126  19.442  0.00  0.00    +0.000 N 
ATOM      5  H   UNL     1       3.317   6.994  20.978  0.00  0.00    +0.000 HD
ATOM      6  H   UNL     1       4.461   5.351  20.006  0.00  0.00    +0.000 HD
ENDROOT
BRANCH   1  12
ATOM      7  C   UNL     1      -0.881  11.309  19.934  0.00  0.00    +0.000 A 
ATOM      8  N   UNL     1      -0.630  11.740  18.696  0.00  0.00    +0.000 NA
ATOM      9  N   UNL     1       0.286  10.878  18.236  0.00  0.00    +0.000 N 
ATOM     10  C   UNL     1       0.661   9.920  19.142  0.00  0.00    +0.000 A 
ATOM     11  C   UNL     1       1.575   8.860  19.050  0.00  0.00    +0.000 A 
ATOM     12  C   UNL     1       1.734   8.108  20.207  0.00  0.00    +0.000 A 
ATOM     13  N   UNL     1       1.015   8.345  21.314  0.00  0.00    +0.000 NA
ATOM     14  CA  UNL     1       0.101   9.363  21.404  0.00  0.00    +0.000 A 
ATOM     15  C   UNL     1      -0.079  10.195  20.293  0.00  0.00    +0.000 A 
ATOM     16  H   UNL     1       0.618  11.001  17.288  0.00  0.00    +0.000 HD
BRANCH   7  17
ATOM     17  O   UNL     1      -1.801  11.955  20.694  0.00  0.00    +0.000 OA
BRANCH  17  18
ATOM     18  C   UNL     1      -1.346  13.252  21.113  0.00  0.00    +0.000 C 
BRANCH  18  19
ATOM     19  C   UNL     1      -0.259  13.164  22.182  0.00  0.00    +0.000 C 
BRANCH  19  21
ATOM     20  C   UNL     1      -1.349  14.473  23.839  0.00  0.00    +0.000 C 
ATOM     21  O   UNL     1      -0.272  14.392  22.919  0.00  0.00    +0.000 OA
ENDBRANCH  19  21
ENDBRANCH  18  19
ENDBRANCH  17  18
ENDBRANCH   7  17
BRANCH  14  22
ATOM     22  C   UNL     1      -0.591   9.477  22.739  0.00  0.00    +0.000 C 
BRANCH  22  23
ATOM     23  O   UNL     1       0.382   9.689  23.765  0.00  0.00    +0.000 OA
ATOM     24  H   UNL     1       0.153   9.032  24.465  0.00  0.00    +0.000 HD
ENDBRANCH  22  23
ENDBRANCH  14  22
ENDBRANCH   1  12
BRANCH   4  25
ATOM     25  C   UNL     1       3.760   3.955  18.553  0.00  0.00    +0.000 C 
BRANCH  25  26
ATOM     26  C   UNL     1       4.864   4.160  17.515  0.00  0.00    +0.000 A 
ATOM     27  C   UNL     1       4.655   3.912  16.147  0.00  0.00    +0.000 A 
ATOM     28  C   UNL     1       5.646   4.214  15.208  0.00  0.00    +0.000 A 
ATOM     29  C   UNL     1       6.849   4.764  15.631  0.00  0.00    +0.000 A 
ATOM     30  F   UNL     1       7.783   5.084  14.724  0.00  0.00    +0.000 F 
ATOM     31  C   UNL     1       7.094   4.991  16.977  0.00  0.00    +0.000 A 
ATOM     32  C   UNL     1       6.110   4.683  17.918  0.00  0.00    +0.000 A 
ENDBRANCH  25  26
BRANCH  25  33
ATOM     33  C   UNL     1       3.891   2.618  19.373  0.00  0.00    +0.000 C 
ATOM     34  C   UNL     1       3.007   2.657  20.634  0.00  0.00    +0.000 C 
ATOM     35  C   UNL     1       3.478   1.396  18.539  0.00  0.00    +0.000 C 
BRANCH  33  36
ATOM     36  O   UNL     1       5.256   2.414  19.787  0.00  0.00    +0.000 OA
ATOM     37  H   UNL     1       5.805   2.326  18.992  0.00  0.00    +0.000 HD
ENDBRANCH  33  36
ENDBRANCH  25  33
ENDBRANCH   4  25
TORSDOF 11
ENDMDL
MODEL 2
REMARK VINA RESULT:      -8.0      1.232      1.361
REMARK  Name = 
REMARK  14 active torsions:
REMARK  status: ('A' for Active; 'I' for Inactive)
REMARK    1  A    between atoms: C_1  and  O_2
REMARK    2  A    between atoms: O_2  and  C_3
REMARK    3  A    between atoms: C_3  and  C_4
REMARK    4  A    between atoms: C_4  and  O_5
REMARK    5  A    between atoms: O_5  and  C_6
REMARK    6  A    between atoms: C_11  and  N_12
REMARK    7  A    between atoms: N_15  and  C_16
REMARK    8  A    between atoms: C_16  and  C_17
REMARK    9  A    between atoms: C_16  and  C_24
REMARK   10  A    between atoms: C_24  and  C_25
REMARK   11  A    between atoms: C_24  and  C_26
REMARK   12  A    between atoms: C_24  and  O_27
REMARK   13  A    between atoms: CA_29  and  C_30
REMARK   14  A    between atoms: C_30  and  O_31
REMARK                            x       y       z     vdW  Elec       q    Type
REMARK                         _______ _______ _______ _____ _____    ______ ____
ROOT
ATOM      1  N   UNL     1       2.682   6.844  19.962  0.00  0.00    +0.000 N 
ATOM      2  C   UNL     1       2.577   5.882  18.971  0.00  0.00    +0.000 C 
ATOM      3  O   UNL     1       1.670   5.788  18.152  0.00  0.00    +0.000 OA
ATOM      4  N   UNL     1       3.595   4.955  19.014  0.00  0.00    +0.000 N 
ATOM      5  H   UNL     1       3.316   6.680  20.719  0.00  0.00    +0.000 HD
ATOM      6  H   UNL     1       4.395   5.086  19.603  0.00  0.00    +0.000 HD
ENDROOT
BRANCH   1  12
ATOM      7  C   UNL     1      -0.669  11.265  20.055  0.00  0.00    +0.000 A 
ATOM      8  N   UNL     1      -0.408  11.781  18.852  0.00  0.00    +0.000 NA
ATOM      9  N   UNL     1       0.464  10.917  18.315  0.00  0.00    +0.000 N 
ATOM     10  C   UNL     1       0.800   9.874  19.138  0.00  0.00    +0.000 A 
ATOM     11  C   UNL     1       1.663   8.784  18.953  0.00  0.00    +0.000 A 
ATOM     12  C   UNL     1       1.796   7.936  20.045  0.00  0.00    +0.000 A 
ATOM     13  N   UNL     1       1.097   8.117  21.176  0.00  0.00    +0.000 NA
ATOM     14  CA  UNL     1       0.233   9.166  21.356  0.00  0.00    +0.000 A 
ATOM     15  C   UNL     1       0.082  10.090  20.316  0.00  0.00    +0.000 A 
ATOM     16  H   UNL     1       0.794  11.099  17.376  0.00  0.00    +0.000 HD
BRANCH   7  17
ATOM     17  O   UNL     1      -1.552  11.890  20.874  0.00  0.00    +0.000 OA
BRANCH  17  18
ATOM     18  C   UNL     1      -2.586  12.570  20.142  0.00  0.00    +0.000 C 
BRANCH  18  19
ATOM     19  C   UNL     1      -3.754  12.975  21.038  0.00  0.00    +0.000 C 
BRANCH  19  21
ATOM     20  C   UNL     1      -4.293  12.862  23.350  0.00  0.00    +0.000 C 
ATOM     21  O   UNL     1      -3.649  12.228  22.255  0.00  0.00    +0.000 OA
ENDBRANCH  19  21
ENDBRANCH  18  19
ENDBRANCH  17  18
ENDBRANCH   7  17
BRANCH  14  22
ATOM     22  C   UNL     1      -0.443   9.205  22.703  0.00  0.00    +0.000 C 
BRANCH  22  23
ATOM     23  O   UNL     1      -0.211  10.476  23.317  0.00  0.00    +0.000 OA
ATOM     24  H   UNL     1      -0.895  11.070  22.926  0.00  0.00    +0.000 HD
ENDBRANCH  22  23
ENDBRANCH  14  22
ENDBRANCH   1  12
BRANCH   4  25
ATOM     25  C   UNL     1       3.651   3.870  18.016  0.00  0.00    +0.000 C 
BRANCH  25  26
ATOM     26  C   UNL     1       4.817   4.089  17.052  0.00  0.00    +0.000 A 
ATOM     27  C   UNL     1       4.649   4.045  15.657  0.00  0.00    +0.000 A 
ATOM     28  C   UNL     1       5.709   4.358  14.801  0.00  0.00    +0.000 A 
ATOM     29  C   UNL     1       6.941   4.714  15.333  0.00  0.00    +0.000 A 
ATOM     30  F   UNL     1       7.944   5.046  14.509  0.00  0.00    +0.000 F 
ATOM     31  C   UNL     1       7.145   4.736  16.705  0.00  0.00    +0.000 A 
ATOM     32  C   UNL     1       6.091   4.415  17.563  0.00  0.00    +0.000 A 
ENDBRANCH  25  26
BRANCH  25  33
ATOM     33  C   UNL     1       3.642   2.455  18.701  0.00  0.00    +0.000 C 
ATOM     34  C   UNL     1       4.428   2.480  20.026  0.00  0.00    +0.000 C 
ATOM     35  C   UNL     1       2.213   1.978  19.005  0.00  0.00    +0.000 C 
BRANCH  33  36
ATOM     36  O   UNL     1       4.249   1.473  17.838  0.00  0.00    +0.000 OA
ATOM     37  H   UNL     1       5.140   1.780  17.611  0.00  0.00    +0.000 HD
ENDBRANCH  33  36
ENDBRANCH  25  33
ENDBRANCH   4  25
TORSDOF 11
ENDMDL
MODEL 3
REMARK VINA RESULT:      -8.0      1.234      2.135
REMARK  Name = 
REMARK  14 active torsions:
REMARK  status: ('A' for Active; 'I' for Inactive)
REMARK    1  A    between atoms: C_1  and  O_2
REMARK    2  A    between atoms: O_2  and  C_3
REMARK    3  A    between atoms: C_3  and  C_4
REMARK    4  A    between atoms: C_4  and  O_5
REMARK    5  A    between atoms: O_5  and  C_6
REMARK    6  A    between atoms: C_11  and  N_12
REMARK    7  A    between atoms: N_15  and  C_16
REMARK    8  A    between atoms: C_16  and  C_17
REMARK    9  A    between atoms: C_16  and  C_24
REMARK   10  A    between atoms: C_24  and  C_25
REMARK   11  A    between atoms: C_24  and  C_26
REMARK   12  A    between atoms: C_24  and  O_27
REMARK   13  A    between atoms: CA_29  and  C_30
REMARK   14  A    between atoms: C_30  and  O_31
REMARK                            x       y       z     vdW  Elec       q    Type
REMARK                         _______ _______ _______ _____ _____    ______ ____
ROOT
ATOM      1  N   UNL     1       2.579   7.080  20.327  0.00  0.00    +0.000 N 
ATOM      2  C   UNL     1       2.556   6.075  19.374  0.00  0.00    +0.000 C 
ATOM      3  O   UNL     1       1.704   5.925  18.506  0.00  0.00    +0.000 OA
ATOM      4  N   UNL     1       3.589   5.174  19.518  0.00  0.00    +0.000 N 
ATOM      5  H   UNL     1       3.168   6.962  21.128  0.00  0.00    +0.000 HD
ATOM      6  H   UNL     1       4.348   5.349  20.150  0.00  0.00    +0.000 HD
ENDROOT
BRANCH   1  12
ATOM      7  C   UNL     1      -0.879  11.407  20.009  0.00  0.00    +0.000 A 
ATOM      8  N   UNL     1      -0.633  11.811  18.761  0.00  0.00    +0.000 NA
ATOM      9  N   UNL     1       0.258  10.921  18.306  0.00  0.00    +0.000 N 
ATOM     10  C   UNL     1       0.622   9.970  19.224  0.00  0.00    +0.000 A 
ATOM     11  C   UNL     1       1.511   8.888  19.141  0.00  0.00    +0.000 A 
ATOM     12  C   UNL     1       1.667   8.153  20.309  0.00  0.00    +0.000 A 
ATOM     13  N   UNL     1       0.966   8.425  21.420  0.00  0.00    +0.000 NA
ATOM     14  CA  UNL     1       0.076   9.465  21.502  0.00  0.00    +0.000 A 
ATOM     15  C   UNL     1      -0.099  10.281  20.379  0.00  0.00    +0.000 A 
ATOM     16  H   UNL     1       0.582  11.020  17.352  0.00  0.00    +0.000 HD
BRANCH   7  17
ATOM     17  O   UNL     1      -1.776  12.086  20.768  0.00  0.00    +0.000 OA
BRANCH  17  18
ATOM     18  C   UNL     1      -2.622  12.939  19.978  0.00  0.00    +0.000 C 
BRANCH  18  19
ATOM     19  C   UNL     1      -4.026  12.361  19.811  0.00  0.00    +0.000 C 
BRANCH  19  21
ATOM     20  C   UNL     1      -5.390  12.101  17.882  0.00  0.00    +0.000 C 
ATOM     21  O   UNL     1      -4.128  11.844  18.479  0.00  0.00    +0.000 OA
ENDBRANCH  19  21
ENDBRANCH  18  19
ENDBRANCH  17  18
ENDBRANCH   7  17
BRANCH  14  22
ATOM     22  C   UNL     1      -0.598   9.617  22.842  0.00  0.00    +0.000 C 
BRANCH  22  23
ATOM     23  O   UNL     1       0.391   9.629  23.876  0.00  0.00    +0.000 OA
ATOM     24  H   UNL     1       1.208   9.962  23.434  0.00  0.00    +0.000 HD
ENDBRANCH  22  23
ENDBRANCH  14  22
ENDBRANCH   1  12
BRANCH   4  25
ATOM     25  C   UNL     1       3.729   4.051  18.574  0.00  0.00    +0.000 C 
BRANCH  25  26
ATOM     26  C   UNL     1       4.827   4.345  17.551  0.00  0.00    +0.000 A 
ATOM     27  C   UNL     1       6.060   4.907  17.924  0.00  0.00    +0.000 A 
ATOM     28  C   UNL     1       7.086   5.062  16.986  0.00  0.00    +0.000 A 
ATOM     29  C   UNL     1       6.884   4.658  15.673  0.00  0.00    +0.000 A 
ATOM     30  F   UNL     1       7.882   4.777  14.786  0.00  0.00    +0.000 F 
ATOM     31  C   UNL     1       5.667   4.129  15.270  0.00  0.00    +0.000 A 
ATOM     32  C   UNL     1       4.638   3.981  16.202  0.00  0.00    +0.000 A 
ENDBRANCH  25  26
BRANCH  25  33
ATOM     33  C   UNL     1       3.905   2.682  19.328  0.00  0.00    +0.000 C 
ATOM     34  C   UNL     1       3.071   2.656  20.623  0.00  0.00    +0.000 C 
ATOM     35  C   UNL     1       3.470   1.493  18.457  0.00  0.00    +0.000 C 
BRANCH  33  36
ATOM     36  O   UNL     1       5.287   2.475  19.680  0.00  0.00    +0.000 OA
ATOM     37  H   UNL     1       5.396   1.549  19.947  0.00  0.00    +0.000 HD
ENDBRANCH  33  36
ENDBRANCH  25  33
ENDBRANCH   4  25
TORSDOF 11
ENDMDL
MODEL 4
REMARK VINA RESULT:      -8.0      0.950      1.329
REMARK  Name = 
REMARK  14 active torsions:
REMARK  status: ('A' for Active; 'I' for Inactive)
REMARK    1  A    between atoms: C_1  and  O_2
REMARK    2  A    between atoms: O_2  and  C_3
REMARK    3  A    between atoms: C_3  and  C_4
REMARK    4  A    between atoms: C_4  and  O_5
REMARK    5  A    between atoms: O_5  and  C_6
REMARK    6  A    between atoms: C_11  and  N_12
REMARK    7  A    between atoms: N_15  and  C_16
REMARK    8  A    between atoms: C_16  and  C_17
REMARK    9  A    between atoms: C_16  and  C_24
REMARK   10  A    between atoms: C_24  and  C_25
REMARK   11  A    between atoms: C_24  and  C_26
REMARK   12  A    between atoms: C_24  and  O_27
REMARK   13  A    between atoms: CA_29  and  C_30
REMARK   14  A    between atoms: C_30  and  O_31
REMARK                            x       y       z     vdW  Elec       q    Type
REMARK                         _______ _______ _______ _____ _____    ______ ____
ROOT
ATOM      1  N   UNL     1       2.535   6.816  20.141  0.00  0.00    +0.000 N 
ATOM      2  C   UNL     1       2.512   5.928  19.078  0.00  0.00    +0.000 C 
ATOM      3  O   UNL     1       1.715   5.939  18.147  0.00  0.00    +0.000 OA
ATOM      4  N   UNL     1       3.471   4.944  19.180  0.00  0.00    +0.000 N 
ATOM      5  H   UNL     1       3.058   6.567  20.958  0.00  0.00    +0.000 HD
ATOM      6  H   UNL     1       4.194   4.991  19.874  0.00  0.00    +0.000 HD
ENDROOT
BRANCH   1  12
ATOM      7  C   UNL     1      -0.609  11.387  20.107  0.00  0.00    +0.000 A 
ATOM      8  N   UNL     1      -0.294  11.878  18.906  0.00  0.00    +0.000 NA
ATOM      9  N   UNL     1       0.549  10.969  18.400  0.00  0.00    +0.000 N 
ATOM     10  C   UNL     1       0.816   9.921  19.241  0.00  0.00    +0.000 A 
ATOM     11  C   UNL     1       1.632   8.790  19.089  0.00  0.00    +0.000 A 
ATOM     12  C   UNL     1       1.698   7.949  20.192  0.00  0.00    +0.000 A 
ATOM     13  N   UNL     1       0.981   8.174  21.302  0.00  0.00    +0.000 NA
ATOM     14  CA  UNL     1       0.162   9.263  21.451  0.00  0.00    +0.000 A 
ATOM     15  C   UNL     1       0.080  10.182  20.398  0.00  0.00    +0.000 A 
ATOM     16  H   UNL     1       0.911  11.126  17.468  0.00  0.00    +0.000 HD
BRANCH   7  17
ATOM     17  O   UNL     1      -1.483  12.061  20.897  0.00  0.00    +0.000 OA
BRANCH  17  18
ATOM     18  C   UNL     1      -0.823  13.011  21.750  0.00  0.00    +0.000 C 
BRANCH  18  19
ATOM     19  C   UNL     1      -1.386  12.998  23.170  0.00  0.00    +0.000 C 
BRANCH  19  21
ATOM     20  C   UNL     1      -3.629  12.897  23.947  0.00  0.00    +0.000 C 
ATOM     21  O   UNL     1      -2.632  12.293  23.138  0.00  0.00    +0.000 OA
ENDBRANCH  19  21
ENDBRANCH  18  19
ENDBRANCH  17  18
ENDBRANCH   7  17
BRANCH  14  22
ATOM     22  C   UNL     1      -0.545   9.348  22.779  0.00  0.00    +0.000 C 
BRANCH  22  23
ATOM     23  O   UNL     1       0.397   9.686  23.801  0.00  0.00    +0.000 OA
ATOM     24  H   UNL     1       0.673  10.609  23.590  0.00  0.00    +0.000 HD
ENDBRANCH  22  23
ENDBRANCH  14  22
ENDBRANCH   1  12
BRANCH   4  25
ATOM     25  C   UNL     1       3.602   3.926  18.122  0.00  0.00    +0.000 C 
BRANCH  25  26
ATOM     26  C   UNL     1       4.779   4.257  17.203  0.00  0.00    +0.000 A 
ATOM     27  C   UNL     1       6.087   4.411  17.695  0.00  0.00    +0.000 A 
ATOM     28  C   UNL     1       7.160   4.603  16.819  0.00  0.00    +0.000 A 
ATOM     29  C   UNL     1       6.931   4.645  15.450  0.00  0.00    +0.000 A 
ATOM     30  F   UNL     1       7.967   4.795  14.613  0.00  0.00    +0.000 F 
ATOM     31  C   UNL     1       5.647   4.527  14.939  0.00  0.00    +0.000 A 
ATOM     32  C   UNL     1       4.572   4.343  15.811  0.00  0.00    +0.000 A 
ENDBRANCH  25  26
BRANCH  25  33
ATOM     33  C   UNL     1       3.647   2.473  18.722  0.00  0.00    +0.000 C 
ATOM     34  C   UNL     1       4.476   2.438  20.020  0.00  0.00    +0.000 C 
ATOM     35  C   UNL     1       2.239   1.946  19.043  0.00  0.00    +0.000 C 
BRANCH  33  36
ATOM     36  O   UNL     1       4.245   1.558  17.782  0.00  0.00    +0.000 OA
ATOM     37  H   UNL     1       3.987   1.831  16.888  0.00  0.00    +0.000 HD
ENDBRANCH  33  36
ENDBRANCH  25  33
ENDBRANCH   4  25
TORSDOF 11
ENDMDL
MODEL 5
REMARK VINA RESULT:      -7.9      1.062      1.527
REMARK  Name = 
REMARK  14 active torsions:
REMARK  status: ('A' for Active; 'I' for Inactive)
REMARK    1  A    between atoms: C_1  and  O_2
REMARK    2  A    between atoms: O_2  and  C_3
REMARK    3  A    between atoms: C_3  and  C_4
REMARK    4  A    between atoms: C_4  and  O_5
REMARK    5  A    between atoms: O_5  and  C_6
REMARK    6  A    between atoms: C_11  and  N_12
REMARK    7  A    between atoms: N_15  and  C_16
REMARK    8  A    between atoms: C_16  and  C_17
REMARK    9  A    between atoms: C_16  and  C_24
REMARK   10  A    between atoms: C_24  and  C_25
REMARK   11  A    between atoms: C_24  and  C_26
REMARK   12  A    between atoms: C_24  and  O_27
REMARK   13  A    between atoms: CA_29  and  C_30
REMARK   14  A    between atoms: C_30  and  O_31
REMARK                            x       y       z     vdW  Elec       q    Type
REMARK                         _______ _______ _______ _____ _____    ______ ____
ROOT
ATOM      1  N   UNL     1       2.599   7.087  20.315  0.00  0.00    +0.000 N 
ATOM      2  C   UNL     1       2.552   6.067  19.379  0.00  0.00    +0.000 C 
ATOM      3  O   UNL     1       1.662   5.887  18.555  0.00  0.00    +0.000 OA
ATOM      4  N   UNL     1       3.610   5.191  19.487  0.00  0.00    +0.000 N 
ATOM      5  H   UNL     1       3.228   6.995  21.088  0.00  0.00    +0.000 HD
ATOM      6  H   UNL     1       4.394   5.392  20.078  0.00  0.00    +0.000 HD
ENDROOT
BRANCH   1  12
ATOM      7  C   UNL     1      -0.956  11.342  20.107  0.00  0.00    +0.000 A 
ATOM      8  N   UNL     1      -0.744  11.762  18.859  0.00  0.00    +0.000 NA
ATOM      9  N   UNL     1       0.156  10.895  18.377  0.00  0.00    +0.000 N 
ATOM     10  C   UNL     1       0.559   9.945  19.279  0.00  0.00    +0.000 A 
ATOM     11  C   UNL     1       1.468   8.883  19.168  0.00  0.00    +0.000 A 
ATOM     12  C   UNL     1       1.664   8.141  20.326  0.00  0.00    +0.000 A 
ATOM     13  N   UNL     1       0.980   8.388  21.453  0.00  0.00    +0.000 NA
ATOM     14  CA  UNL     1       0.071   9.408  21.563  0.00  0.00    +0.000 A 
ATOM     15  C   UNL     1      -0.145  10.230  20.451  0.00  0.00    +0.000 A 
ATOM     16  H   UNL     1       0.458  11.010  17.418  0.00  0.00    +0.000 HD
BRANCH   7  17
ATOM     17  O   UNL     1      -1.851  11.995  20.891  0.00  0.00    +0.000 OA
BRANCH  17  18
ATOM     18  C   UNL     1      -2.272  13.242  20.313  0.00  0.00    +0.000 C 
BRANCH  18  19
ATOM     19  C   UNL     1      -3.733  13.558  20.627  0.00  0.00    +0.000 C 
BRANCH  19  21
ATOM     20  C   UNL     1      -4.651  13.129  22.776  0.00  0.00    +0.000 C 
ATOM     21  O   UNL     1      -4.204  12.570  21.551  0.00  0.00    +0.000 OA
ENDBRANCH  19  21
ENDBRANCH  18  19
ENDBRANCH  17  18
ENDBRANCH   7  17
BRANCH  14  22
ATOM     22  C   UNL     1      -0.579   9.534  22.918  0.00  0.00    +0.000 C 
BRANCH  22  23
ATOM     23  O   UNL     1       0.432   9.649  23.923  0.00  0.00    +0.000 OA
ATOM     24  H   UNL     1      -0.009  10.128  24.665  0.00  0.00    +0.000 HD
ENDBRANCH  22  23
ENDBRANCH  14  22
ENDBRANCH   1  12
BRANCH   4  25
ATOM     25  C   UNL     1       3.728   4.057  18.553  0.00  0.00    +0.000 C 
BRANCH  25  26
ATOM     26  C   UNL     1       4.817   4.329  17.515  0.00  0.00    +0.000 A 
ATOM     27  C   UNL     1       6.124   4.693  17.884  0.00  0.00    +0.000 A 
ATOM     28  C   UNL     1       7.127   4.828  16.919  0.00  0.00    +0.000 A 
ATOM     29  C   UNL     1       6.829   4.601  15.582  0.00  0.00    +0.000 A 
ATOM     30  F   UNL     1       7.801   4.697  14.664  0.00  0.00    +0.000 F 
ATOM     31  C   UNL     1       5.541   4.271  15.185  0.00  0.00    +0.000 A 
ATOM     32  C   UNL     1       4.536   4.144  16.145  0.00  0.00    +0.000 A 
ENDBRANCH  25  26
BRANCH  25  33
ATOM     33  C   UNL     1       3.900   2.694  19.320  0.00  0.00    +0.000 C 
ATOM     34  C   UNL     1       3.008   2.653  20.575  0.00  0.00    +0.000 C 
ATOM     35  C   UNL     1       3.533   1.492  18.435  0.00  0.00    +0.000 C 
BRANCH  33  36
ATOM     36  O   UNL     1       5.269   2.520  19.736  0.00  0.00    +0.000 OA
ATOM     37  H   UNL     1       5.466   3.182  20.416  0.00  0.00    +0.000 HD
ENDBRANCH  33  36
ENDBRANCH  25  33
ENDBRANCH   4  25
TORSDOF 11
ENDMDL
MODEL 6
REMARK VINA RESULT:      -7.9      1.288      1.749
REMARK  Name = 
REMARK  14 active torsions:
REMARK  status: ('A' for Active; 'I' for Inactive)
REMARK    1  A    between atoms: C_1  and  O_2
REMARK    2  A    between atoms: O_2  and  C_3
REMARK    3  A    between atoms: C_3  and  C_4
REMARK    4  A    between atoms: C_4  and  O_5
REMARK    5  A    between atoms: O_5  and  C_6
REMARK    6  A    between atoms: C_11  and  N_12
REMARK    7  A    between atoms: N_15  and  C_16
REMARK    8  A    between atoms: C_16  and  C_17
REMARK    9  A    between atoms: C_16  and  C_24
REMARK   10  A    between atoms: C_24  and  C_25
REMARK   11  A    between atoms: C_24  and  C_26
REMARK   12  A    between atoms: C_24  and  O_27
REMARK   13  A    between atoms: CA_29  and  C_30
REMARK   14  A    between atoms: C_30  and  O_31
REMARK                            x       y       z     vdW  Elec       q    Type
REMARK                         _______ _______ _______ _____ _____    ______ ____
ROOT
ATOM      1  N   UNL     1       2.674   7.036  20.261  0.00  0.00    +0.000 N 
ATOM      2  C   UNL     1       2.615   5.991  19.354  0.00  0.00    +0.000 C 
ATOM      3  O   UNL     1       1.735   5.811  18.520  0.00  0.00    +0.000 OA
ATOM      4  N   UNL     1       3.645   5.089  19.506  0.00  0.00    +0.000 N 
ATOM      5  H   UNL     1       3.287   6.948  21.048  0.00  0.00    +0.000 HD
ATOM      6  H   UNL     1       4.425   5.285  20.106  0.00  0.00    +0.000 HD
ENDROOT
BRANCH   1  12
ATOM      7  C   UNL     1      -0.745  11.388  19.876  0.00  0.00    +0.000 A 
ATOM      8  N   UNL     1      -0.451  11.807  18.644  0.00  0.00    +0.000 NA
ATOM      9  N   UNL     1       0.451  10.918  18.209  0.00  0.00    +0.000 N 
ATOM     10  C   UNL     1       0.776   9.953  19.127  0.00  0.00    +0.000 A 
ATOM     11  C   UNL     1       1.661   8.866  19.062  0.00  0.00    +0.000 A 
ATOM     12  C   UNL     1       1.769   8.115  20.224  0.00  0.00    +0.000 A 
ATOM     13  N   UNL     1       1.030   8.377  21.313  0.00  0.00    +0.000 NA
ATOM     14  CA  UNL     1       0.144   9.421  21.377  0.00  0.00    +0.000 A 
ATOM     15  C   UNL     1       0.015  10.253  20.259  0.00  0.00    +0.000 A 
ATOM     16  H   UNL     1       0.810  11.027  17.269  0.00  0.00    +0.000 HD
BRANCH   7  17
ATOM     17  O   UNL     1      -1.665  12.063  20.611  0.00  0.00    +0.000 OA
BRANCH  17  18
ATOM     18  C   UNL     1      -2.898  12.252  19.898  0.00  0.00    +0.000 C 
BRANCH  18  19
ATOM     19  C   UNL     1      -3.984  12.866  20.779  0.00  0.00    +0.000 C 
BRANCH  19  21
ATOM     20  C   UNL     1      -6.246  12.562  20.115  0.00  0.00    +0.000 C 
ATOM     21  O   UNL     1      -5.048  13.298  19.922  0.00  0.00    +0.000 OA
ENDBRANCH  19  21
ENDBRANCH  18  19
ENDBRANCH  17  18
ENDBRANCH   7  17
BRANCH  14  22
ATOM     22  C   UNL     1      -0.577   9.559  22.693  0.00  0.00    +0.000 C 
BRANCH  22  23
ATOM     23  O   UNL     1      -0.355  10.868  23.225  0.00  0.00    +0.000 OA
ATOM     24  H   UNL     1      -0.879  11.467  22.641  0.00  0.00    +0.000 HD
ENDBRANCH  22  23
ENDBRANCH  14  22
ENDBRANCH   1  12
BRANCH   4  25
ATOM     25  C   UNL     1       3.748   3.925  18.607  0.00  0.00    +0.000 C 
BRANCH  25  26
ATOM     26  C   UNL     1       4.858   4.140  17.577  0.00  0.00    +0.000 A 
ATOM     27  C   UNL     1       4.657   3.904  16.206  0.00  0.00    +0.000 A 
ATOM     28  C   UNL     1       5.653   4.215  15.275  0.00  0.00    +0.000 A 
ATOM     29  C   UNL     1       6.854   4.761  15.710  0.00  0.00    +0.000 A 
ATOM     30  F   UNL     1       7.792   5.089  14.811  0.00  0.00    +0.000 F 
ATOM     31  C   UNL     1       7.091   4.975  17.059  0.00  0.00    +0.000 A 
ATOM     32  C   UNL     1       6.102   4.658  17.992  0.00  0.00    +0.000 A 
ENDBRANCH  25  26
BRANCH  25  33
ATOM     33  C   UNL     1       3.875   2.582  19.415  0.00  0.00    +0.000 C 
ATOM     34  C   UNL     1       2.918   2.573  20.622  0.00  0.00    +0.000 C 
ATOM     35  C   UNL     1       3.552   1.359  18.543  0.00  0.00    +0.000 C 
BRANCH  33  36
ATOM     36  O   UNL     1       5.220   2.416  19.908  0.00  0.00    +0.000 OA
ATOM     37  H   UNL     1       5.202   2.505  20.873  0.00  0.00    +0.000 HD
ENDBRANCH  33  36
ENDBRANCH  25  33
ENDBRANCH   4  25
TORSDOF 11
ENDMDL
MODEL 7
REMARK VINA RESULT:      -7.8      0.863      1.080
REMARK  Name = 
REMARK  14 active torsions:
REMARK  status: ('A' for Active; 'I' for Inactive)
REMARK    1  A    between atoms: C_1  and  O_2
REMARK    2  A    between atoms: O_2  and  C_3
REMARK    3  A    between atoms: C_3  and  C_4
REMARK    4  A    between atoms: C_4  and  O_5
REMARK    5  A    between atoms: O_5  and  C_6
REMARK    6  A    between atoms: C_11  and  N_12
REMARK    7  A    between atoms: N_15  and  C_16
REMARK    8  A    between atoms: C_16  and  C_17
REMARK    9  A    between atoms: C_16  and  C_24
REMARK   10  A    between atoms: C_24  and  C_25
REMARK   11  A    between atoms: C_24  and  C_26
REMARK   12  A    between atoms: C_24  and  O_27
REMARK   13  A    between atoms: CA_29  and  C_30
REMARK   14  A    between atoms: C_30  and  O_31
REMARK                            x       y       z     vdW  Elec       q    Type
REMARK                         _______ _______ _______ _____ _____    ______ ____
ROOT
ATOM      1  N   UNL     1       2.648   7.104  20.278  0.00  0.00    +0.000 N 
ATOM      2  C   UNL     1       2.597   6.065  19.363  0.00  0.00    +0.000 C 
ATOM      3  O   UNL     1       1.706   5.871  18.544  0.00  0.00    +0.000 OA
ATOM      4  N   UNL     1       3.651   5.188  19.488  0.00  0.00    +0.000 N 
ATOM      5  H   UNL     1       3.278   7.026  21.052  0.00  0.00    +0.000 HD
ATOM      6  H   UNL     1       4.437   5.398  20.075  0.00  0.00    +0.000 HD
ENDROOT
BRANCH   1  12
ATOM      7  C   UNL     1      -0.886  11.371  19.989  0.00  0.00    +0.000 A 
ATOM      8  N   UNL     1      -0.652  11.784  18.743  0.00  0.00    +0.000 NA
ATOM      9  N   UNL     1       0.254  10.912  18.281  0.00  0.00    +0.000 N 
ATOM     10  C   UNL     1       0.637   9.964  19.194  0.00  0.00    +0.000 A 
ATOM     11  C   UNL     1       1.544   8.899  19.103  0.00  0.00    +0.000 A 
ATOM     12  C   UNL     1       1.717   8.161  20.267  0.00  0.00    +0.000 A 
ATOM     13  N   UNL     1       1.015   8.417  21.382  0.00  0.00    +0.000 NA
ATOM     14  CA  UNL     1       0.108   9.441  21.472  0.00  0.00    +0.000 A 
ATOM     15  C   UNL     1      -0.085  10.258  20.352  0.00  0.00    +0.000 A 
ATOM     16  H   UNL     1       0.572  11.021  17.326  0.00  0.00    +0.000 HD
BRANCH   7  17
ATOM     17  O   UNL     1      -1.792  12.031  20.754  0.00  0.00    +0.000 OA
BRANCH  17  18
ATOM     18  C   UNL     1      -2.196  13.279  20.165  0.00  0.00    +0.000 C 
BRANCH  18  19
ATOM     19  C   UNL     1      -1.629  14.481  20.917  0.00  0.00    +0.000 C 
BRANCH  19  21
ATOM     20  C   UNL     1      -0.757  16.173  19.494  0.00  0.00    +0.000 C 
ATOM     21  O   UNL     1      -0.496  14.959  20.183  0.00  0.00    +0.000 OA
ENDBRANCH  19  21
ENDBRANCH  18  19
ENDBRANCH  17  18
ENDBRANCH   7  17
BRANCH  14  22
ATOM     22  C   UNL     1      -0.564   9.575  22.814  0.00  0.00    +0.000 C 
BRANCH  22  23
ATOM     23  O   UNL     1       0.430   9.659  23.840  0.00  0.00    +0.000 OA
ATOM     24  H   UNL     1       1.243   9.967  23.373  0.00  0.00    +0.000 HD
ENDBRANCH  22  23
ENDBRANCH  14  22
ENDBRANCH   1  12
BRANCH   4  25
ATOM     25  C   UNL     1       3.765   4.034  18.578  0.00  0.00    +0.000 C 
BRANCH  25  26
ATOM     26  C   UNL     1       4.882   4.263  17.559  0.00  0.00    +0.000 A 
ATOM     27  C   UNL     1       4.784   3.813  16.231  0.00  0.00    +0.000 A 
ATOM     28  C   UNL     1       5.771   4.133  15.294  0.00  0.00    +0.000 A 
ATOM     29  C   UNL     1       6.861   4.902  15.680  0.00  0.00    +0.000 A 
ATOM     30  F   UNL     1       7.787   5.236  14.770  0.00  0.00    +0.000 F 
ATOM     31  C   UNL     1       7.000   5.334  16.990  0.00  0.00    +0.000 A 
ATOM     32  C   UNL     1       6.020   5.009  17.930  0.00  0.00    +0.000 A 
ENDBRANCH  25  26
BRANCH  25  33
ATOM     33  C   UNL     1       3.889   2.682  19.373  0.00  0.00    +0.000 C 
ATOM     34  C   UNL     1       2.985   2.692  20.620  0.00  0.00    +0.000 C 
ATOM     35  C   UNL     1       3.494   1.475  18.508  0.00  0.00    +0.000 C 
BRANCH  33  36
ATOM     36  O   UNL     1       5.248   2.476  19.805  0.00  0.00    +0.000 OA
ATOM     37  H   UNL     1       5.309   1.593  20.202  0.00  0.00    +0.000 HD
ENDBRANCH  33  36
ENDBRANCH  25  33
ENDBRANCH   4  25
TORSDOF 11
ENDMDL
MODEL 8
REMARK VINA RESULT:      -7.6      0.842      1.274
REMARK  Name = 
REMARK  14 active torsions:
REMARK  status: ('A' for Active; 'I' for Inactive)
REMARK    1  A    between atoms: C_1  and  O_2
REMARK    2  A    between atoms: O_2  and  C_3
REMARK    3  A    between atoms: C_3  and  C_4
REMARK    4  A    between atoms: C_4  and  O_5
REMARK    5  A    between atoms: O_5  and  C_6
REMARK    6  A    between atoms: C_11  and  N_12
REMARK    7  A    between atoms: N_15  and  C_16
REMARK    8  A    between atoms: C_16  and  C_17
REMARK    9  A    between atoms: C_16  and  C_24
REMARK   10  A    between atoms: C_24  and  C_25
REMARK   11  A    between atoms: C_24  and  C_26
REMARK   12  A    between atoms: C_24  and  O_27
REMARK   13  A    between atoms: CA_29  and  C_30
REMARK   14  A    between atoms: C_30  and  O_31
REMARK                            x       y       z     vdW  Elec       q    Type
REMARK                         _______ _______ _______ _____ _____    ______ ____
ROOT
ATOM      1  N   UNL     1       2.532   6.783  20.142  0.00  0.00    +0.000 N 
ATOM      2  C   UNL     1       2.517   5.908  19.068  0.00  0.00    +0.000 C 
ATOM      3  O   UNL     1       1.752   5.957  18.111  0.00  0.00    +0.000 OA
ATOM      4  N   UNL     1       3.437   4.891  19.191  0.00  0.00    +0.000 N 
ATOM      5  H   UNL     1       3.018   6.508  20.973  0.00  0.00    +0.000 HD
ATOM      6  H   UNL     1       4.138   4.906  19.909  0.00  0.00    +0.000 HD
ENDROOT
BRANCH   1  12
ATOM      7  C   UNL     1      -0.451  11.461  20.057  0.00  0.00    +0.000 A 
ATOM      8  N   UNL     1      -0.068  11.960  18.881  0.00  0.00    +0.000 NA
ATOM      9  N   UNL     1       0.766  11.032  18.394  0.00  0.00    +0.000 N 
ATOM     10  C   UNL     1       0.961   9.960  19.227  0.00  0.00    +0.000 A 
ATOM     11  C   UNL     1       1.743   8.805  19.088  0.00  0.00    +0.000 A 
ATOM     12  C   UNL     1       1.733   7.943  20.177  0.00  0.00    +0.000 A 
ATOM     13  N   UNL     1       0.976   8.174  21.260  0.00  0.00    +0.000 NA
ATOM     14  CA  UNL     1       0.189   9.289  21.394  0.00  0.00    +0.000 A 
ATOM     15  C   UNL     1       0.184  10.228  20.356  0.00  0.00    +0.000 A 
ATOM     16  H   UNL     1       1.172  11.192  17.481  0.00  0.00    +0.000 HD
BRANCH   7  17
ATOM     17  O   UNL     1      -1.334  12.151  20.822  0.00  0.00    +0.000 OA
BRANCH  17  18
ATOM     18  C   UNL     1      -0.956  13.529  20.981  0.00  0.00    +0.000 C 
BRANCH  18  19
ATOM     19  C   UNL     1      -0.451  13.828  22.390  0.00  0.00    +0.000 C 
BRANCH  19  21
ATOM     20  C   UNL     1       1.444  15.180  21.911  0.00  0.00    +0.000 C 
ATOM     21  O   UNL     1       0.105  15.148  22.382  0.00  0.00    +0.000 OA
ENDBRANCH  19  21
ENDBRANCH  18  19
ENDBRANCH  17  18
ENDBRANCH   7  17
BRANCH  14  22
ATOM     22  C   UNL     1      -0.572   9.375  22.692  0.00  0.00    +0.000 C 
BRANCH  22  23
ATOM     23  O   UNL     1      -0.217  10.582  23.374  0.00  0.00    +0.000 OA
ATOM     24  H   UNL     1      -0.164  10.324  24.325  0.00  0.00    +0.000 HD
ENDBRANCH  22  23
ENDBRANCH  14  22
ENDBRANCH   1  12
BRANCH   4  25
ATOM     25  C   UNL     1       3.571   3.881  18.126  0.00  0.00    +0.000 C 
BRANCH  25  26
ATOM     26  C   UNL     1       4.747   4.222  17.209  0.00  0.00    +0.000 A 
ATOM     27  C   UNL     1       6.048   4.410  17.705  0.00  0.00    +0.000 A 
ATOM     28  C   UNL     1       7.122   4.610  16.833  0.00  0.00    +0.000 A 
ATOM     29  C   UNL     1       6.901   4.625  15.463  0.00  0.00    +0.000 A 
ATOM     30  F   UNL     1       7.939   4.783  14.629  0.00  0.00    +0.000 F 
ATOM     31  C   UNL     1       5.623   4.473  14.945  0.00  0.00    +0.000 A 
ATOM     32  C   UNL     1       4.547   4.281  15.814  0.00  0.00    +0.000 A 
ENDBRANCH  25  26
BRANCH  25  33
ATOM     33  C   UNL     1       3.619   2.424  18.716  0.00  0.00    +0.000 C 
ATOM     34  C   UNL     1       4.448   2.382  20.014  0.00  0.00    +0.000 C 
ATOM     35  C   UNL     1       2.213   1.890  19.031  0.00  0.00    +0.000 C 
BRANCH  33  36
ATOM     36  O   UNL     1       4.221   1.517  17.770  0.00  0.00    +0.000 OA
ATOM     37  H   UNL     1       3.518   0.973  17.382  0.00  0.00    +0.000 HD
ENDBRANCH  33  36
ENDBRANCH  25  33
ENDBRANCH   4  25
TORSDOF 11
ENDMDL
MODEL 9
REMARK VINA RESULT:      -7.5      2.654      3.847
REMARK  Name = 
REMARK  14 active torsions:
REMARK  status: ('A' for Active; 'I' for Inactive)
REMARK    1  A    between atoms: C_1  and  O_2
REMARK    2  A    between atoms: O_2  and  C_3
REMARK    3  A    between atoms: C_3  and  C_4
REMARK    4  A    between atoms: C_4  and  O_5
REMARK    5  A    between atoms: O_5  and  C_6
REMARK    6  A    between atoms: C_11  and  N_12
REMARK    7  A    between atoms: N_15  and  C_16
REMARK    8  A    between atoms: C_16  and  C_17
REMARK    9  A    between atoms: C_16  and  C_24
REMARK   10  A    between atoms: C_24  and  C_25
REMARK   11  A    between atoms: C_24  and  C_26
REMARK   12  A    between atoms: C_24  and  O_27
REMARK   13  A    between atoms: CA_29  and  C_30
REMARK   14  A    between atoms: C_30  and  O_31
REMARK                            x       y       z     vdW  Elec       q    Type
REMARK                         _______ _______ _______ _____ _____    ______ ____
ROOT
ATOM      1  N   UNL     1       2.006   8.982  17.736  0.00  0.00    +0.000 N 
ATOM      2  C   UNL     1       2.556   7.927  18.446  0.00  0.00    +0.000 C 
ATOM      3  O   UNL     1       2.305   7.635  19.610  0.00  0.00    +0.000 OA
ATOM      4  N   UNL     1       3.498   7.227  17.724  0.00  0.00    +0.000 N 
ATOM      5  H   UNL     1       2.460   9.276  16.893  0.00  0.00    +0.000 HD
ATOM      6  H   UNL     1       3.627   7.387  16.743  0.00  0.00    +0.000 HD
ENDROOT
BRANCH   1  12
ATOM      7  C   UNL     1      -2.270  12.028  19.530  0.00  0.00    +0.000 A 
ATOM      8  N   UNL     1      -3.230  11.584  18.718  0.00  0.00    +0.000 NA
ATOM      9  N   UNL     1      -2.620  10.643  17.985  0.00  0.00    +0.000 N 
ATOM     10  C   UNL     1      -1.290  10.481  18.273  0.00  0.00    +0.000 A 
ATOM     11  C   UNL     1      -0.320   9.620  17.739  0.00  0.00    +0.000 A 
ATOM     12  C   UNL     1       0.961   9.773  18.253  0.00  0.00    +0.000 A 
ATOM     13  N   UNL     1       1.234  10.643  19.236  0.00  0.00    +0.000 NA
ATOM     14  CA  UNL     1       0.288  11.471  19.782  0.00  0.00    +0.000 A 
ATOM     15  C   UNL     1      -1.018  11.408  19.282  0.00  0.00    +0.000 A 
ATOM     16  H   UNL     1      -3.172  10.145  17.299  0.00  0.00    +0.000 HD
BRANCH   7  17
ATOM     17  O   UNL     1      -2.557  12.992  20.442  0.00  0.00    +0.000 OA
BRANCH  17  18
ATOM     18  C   UNL     1      -3.961  13.056  20.742  0.00  0.00    +0.000 C 
BRANCH  18  19
ATOM     19  C   UNL     1      -4.222  13.399  22.207  0.00  0.00    +0.000 C 
BRANCH  19  21
ATOM     20  C   UNL     1      -4.113  12.437  24.378  0.00  0.00    +0.000 C 
ATOM     21  O   UNL     1      -3.861  12.257  22.993  0.00  0.00    +0.000 OA
ENDBRANCH  19  21
ENDBRANCH  18  19
ENDBRANCH  17  18
ENDBRANCH   7  17
BRANCH  14  22
ATOM     22  C   UNL     1       0.797  12.390  20.863  0.00  0.00    +0.000 C 
BRANCH  22  23
ATOM     23  O   UNL     1       0.027  12.199  22.053  0.00  0.00    +0.000 OA
ATOM     24  H   UNL     1       0.259  11.289  22.357  0.00  0.00    +0.000 HD
ENDBRANCH  22  23
ENDBRANCH  14  22
ENDBRANCH   1  12
BRANCH   4  25
ATOM     25  C   UNL     1       4.168   6.058  18.322  0.00  0.00    +0.000 C 
BRANCH  25  26
ATOM     26  C   UNL     1       3.158   4.942  18.593  0.00  0.00    +0.000 A 
ATOM     27  C   UNL     1       2.225   4.531  17.626  0.00  0.00    +0.000 A 
ATOM     28  C   UNL     1       1.389   3.435  17.862  0.00  0.00    +0.000 A 
ATOM     29  C   UNL     1       1.480   2.747  19.064  0.00  0.00    +0.000 A 
ATOM     30  F   UNL     1       0.701   1.677  19.273  0.00  0.00    +0.000 F 
ATOM     31  C   UNL     1       2.370   3.150  20.049  0.00  0.00    +0.000 A 
ATOM     32  C   UNL     1       3.200   4.249  19.820  0.00  0.00    +0.000 A 
ENDBRANCH  25  26
BRANCH  25  33
ATOM     33  C   UNL     1       5.409   5.606  17.467  0.00  0.00    +0.000 C 
ATOM     34  C   UNL     1       5.187   5.907  15.973  0.00  0.00    +0.000 C 
ATOM     35  C   UNL     1       6.696   6.318  17.910  0.00  0.00    +0.000 C 
BRANCH  33  36
ATOM     36  O   UNL     1       5.630   4.189  17.611  0.00  0.00    +0.000 OA
ATOM     37  H   UNL     1       5.347   3.753  16.792  0.00  0.00    +0.000 HD
ENDBRANCH  33  36
ENDBRANCH  25  33
ENDBRANCH   4  25
TORSDOF 11
ENDMDL
