MODEL 1
REMARK VINA RESULT:      -8.5      0.000      0.000
REMARK  Name = 
REMARK  11 active torsions:
REMARK  status: ('A' for Active; 'I' for Inactive)
REMARK    1  A    between atoms: C_1  and  O_2
REMARK    2  A    between atoms: O_2  and  C_3
REMARK    3  A    between atoms: C_3  and  C_5
REMARK    4  A    between atoms: C_5  and  C_6
REMARK    5  A    between atoms: C_7  and  C_8
REMARK    6  A    between atoms: C_13  and  C_14
REMARK    7  A    between atoms: N_21  and  C_22
REMARK    8  A    between atoms: C_22  and  C_23
REMARK    9  A    between atoms: C_23  and  C_24
REMARK   10  A    between atoms: C_27  and  O_28
REMARK   11  A    between atoms: O_28  and  C_29
REMARK                            x       y       z     vdW  Elec       q    Type
REMARK                         _______ _______ _______ _____ _____    ______ ____
ROOT
ATOM      1  C   UNL     1       3.298   5.102  18.849  0.00  0.00    +0.000 A 
ATOM      2  C   UNL     1       2.582   5.468  19.932  0.00  0.00    +0.000 A 
ATOM      3  C   UNL     1       2.287   4.546  21.090  0.00  0.00    +0.000 C 
ATOM      4  C   UNL     1       2.056   6.843  20.001  0.00  0.00    +0.000 A 
ATOM      5  C   UNL     1       1.243   7.288  21.045  0.00  0.00    +0.000 A 
ATOM      6  C   UNL     1       0.707   8.585  21.045  0.00  0.00    +0.000 A 
ATOM      7  C   UNL     1       0.968   9.453  19.984  0.00  0.00    +0.000 A 
ATOM      8  C   UNL     1       1.813   9.055  18.941  0.00  0.00    +0.000 A 
ATOM      9  C   UNL     1       2.151   9.970  17.798  0.00  0.00    +0.000 C 
ATOM     10  C   UNL     1       2.334   7.746  18.975  0.00  0.00    +0.000 A 
ATOM     11  O   UNL     1       3.151   7.356  17.896  0.00  0.00    +0.000 OA
ATOM     12  C   UNL     1       3.650   6.072  17.780  0.00  0.00    +0.000 A 
ATOM     13  O   UNL     1       4.338   5.744  16.818  0.00  0.00    +0.000 OA
ATOM     14  O   UNL     1       0.430  10.713  19.949  0.00  0.00    +0.000 OA
ATOM     15  C   UNL     1      -0.636  10.935  20.885  0.00  0.00    +0.000 C 
ATOM     16  N   UNL     1      -0.330  10.462  22.235  0.00  0.00    +0.000 NA
ATOM     17  C   UNL     1      -0.185   9.009  22.173  0.00  0.00    +0.000 C 
ENDROOT
BRANCH   1  18
ATOM     18  C   UNL     1       3.824   3.709  18.594  0.00  0.00    +0.000 C 
BRANCH  18  19
ATOM     19  C   UNL     1       2.761   2.841  17.952  0.00  0.00    +0.000 C 
ATOM     20  O   UNL     1       2.420   2.873  16.778  0.00  0.00    +0.000 OA
BRANCH  19  22
ATOM     21  C   UNL     1       0.852   2.008  19.017  0.00  0.00    +0.000 C 
ATOM     22  O   UNL     1       2.272   1.970  18.883  0.00  0.00    +0.000 OA
ENDBRANCH  19  22
ENDBRANCH  18  19
ENDBRANCH   1  18
BRANCH  16  23
ATOM     23  C   UNL     1      -1.375  10.861  23.191  0.00  0.00    +0.000 C 
BRANCH  23  24
ATOM     24  C   UNL     1      -1.699  12.363  23.105  0.00  0.00    +0.000 C 
BRANCH  24  25
ATOM     25  C   UNL     1      -3.180  12.631  23.136  0.00  0.00    +0.000 A 
ATOM     26  C   UNL     1      -3.840  13.088  21.989  0.00  0.00    +0.000 A 
ATOM     27  C   UNL     1      -5.214  13.328  22.017  0.00  0.00    +0.000 A 
ATOM     28  C   UNL     1      -5.945  13.104  23.183  0.00  0.00    +0.000 A 
ATOM     29  C   UNL     1      -5.290  12.669  24.336  0.00  0.00    +0.000 A 
ATOM     30  C   UNL     1      -3.911  12.434  24.312  0.00  0.00    +0.000 A 
BRANCH  28  31
ATOM     31  O   UNL     1      -7.282  13.381  23.097  0.00  0.00    +0.000 OA
ATOM     32  C   UNL     1      -7.880  13.875  24.290  0.00  0.00    +0.000 C 
ENDBRANCH  28  31
ENDBRANCH  24  25
ENDBRANCH  23  24
ENDBRANCH  16  23
TORSDOF 7
ENDMDL
MODEL 2
REMARK VINA RESULT:      -8.4      3.059      4.590
REMARK  Name = 
REMARK  11 active torsions:
REMARK  status: ('A' for Active; 'I' for Inactive)
REMARK    1  A    between atoms: C_1  and  O_2
REMARK    2  A    between atoms: O_2  and  C_3
REMARK    3  A    between atoms: C_3  and  C_5
REMARK    4  A    between atoms: C_5  and  C_6
REMARK    5  A    between atoms: C_7  and  C_8
REMARK    6  A    between atoms: C_13  and  C_14
REMARK    7  A    between atoms: N_21  and  C_22
REMARK    8  A    between atoms: C_22  and  C_23
REMARK    9  A    between atoms: C_23  and  C_24
REMARK   10  A    between atoms: C_27  and  O_28
REMARK   11  A    between atoms: O_28  and  C_29
REMARK                            x       y       z     vdW  Elec       q    Type
REMARK                         _______ _______ _______ _____ _____    ______ ____
ROOT
ATOM      1  C   UNL     1       4.831   4.637  16.911  0.00  0.00    +0.000 A 
ATOM      2  C   UNL     1       4.357   5.898  16.827  0.00  0.00    +0.000 A 
ATOM      3  C   UNL     1       4.711   6.851  15.712  0.00  0.00    +0.000 C 
ATOM      4  C   UNL     1       3.441   6.381  17.874  0.00  0.00    +0.000 A 
ATOM      5  C   UNL     1       2.961   7.692  17.912  0.00  0.00    +0.000 A 
ATOM      6  C   UNL     1       2.141   8.136  18.961  0.00  0.00    +0.000 A 
ATOM      7  C   UNL     1       1.801   7.270  20.002  0.00  0.00    +0.000 A 
ATOM      8  C   UNL     1       2.230   5.937  19.976  0.00  0.00    +0.000 A 
ATOM      9  C   UNL     1       1.857   4.961  21.056  0.00  0.00    +0.000 C 
ATOM     10  C   UNL     1       3.052   5.527  18.907  0.00  0.00    +0.000 A 
ATOM     11  O   UNL     1       3.500   4.192  18.922  0.00  0.00    +0.000 OA
ATOM     12  C   UNL     1       4.376   3.701  17.971  0.00  0.00    +0.000 A 
ATOM     13  O   UNL     1       4.777   2.542  18.018  0.00  0.00    +0.000 OA
ATOM     14  O   UNL     1       1.027   7.691  21.051  0.00  0.00    +0.000 OA
ATOM     15  C   UNL     1       0.877   9.116  21.151  0.00  0.00    +0.000 C 
ATOM     16  N   UNL     1       0.542   9.753  19.877  0.00  0.00    +0.000 NA
ATOM     17  C   UNL     1       1.674   9.560  18.974  0.00  0.00    +0.000 C 
ENDROOT
BRANCH   1  18
ATOM     18  C   UNL     1       5.843   4.032  15.967  0.00  0.00    +0.000 C 
BRANCH  18  19
ATOM     19  C   UNL     1       7.190   4.710  16.116  0.00  0.00    +0.000 C 
ATOM     20  O   UNL     1       7.706   5.468  15.305  0.00  0.00    +0.000 OA
BRANCH  19  22
ATOM     21  C   UNL     1       7.735   5.466  18.260  0.00  0.00    +0.000 C 
ATOM     22  O   UNL     1       7.723   4.385  17.329  0.00  0.00    +0.000 OA
ENDBRANCH  19  22
ENDBRANCH  18  19
ENDBRANCH   1  18
BRANCH  16  23
ATOM     23  C   UNL     1       0.232  11.179  20.059  0.00  0.00    +0.000 C 
BRANCH  23  24
ATOM     24  C   UNL     1      -0.251  11.841  18.757  0.00  0.00    +0.000 C 
BRANCH  24  25
ATOM     25  C   UNL     1      -1.719  11.615  18.510  0.00  0.00    +0.000 A 
ATOM     26  C   UNL     1      -2.142  10.821  17.438  0.00  0.00    +0.000 A 
ATOM     27  C   UNL     1      -3.502  10.606  17.216  0.00  0.00    +0.000 A 
ATOM     28  C   UNL     1      -4.453  11.169  18.067  0.00  0.00    +0.000 A 
ATOM     29  C   UNL     1      -4.039  11.980  19.125  0.00  0.00    +0.000 A 
ATOM     30  C   UNL     1      -2.676  12.202  19.345  0.00  0.00    +0.000 A 
BRANCH  28  31
ATOM     31  O   UNL     1      -5.755  10.898  17.748  0.00  0.00    +0.000 OA
ATOM     32  C   UNL     1      -6.643  12.008  17.816  0.00  0.00    +0.000 C 
ENDBRANCH  28  31
ENDBRANCH  24  25
ENDBRANCH  23  24
ENDBRANCH  16  23
TORSDOF 7
ENDMDL
MODEL 3
REMARK VINA RESULT:      -8.4      2.152      3.808
REMARK  Name = 
REMARK  11 active torsions:
REMARK  status: ('A' for Active; 'I' for Inactive)
REMARK    1  A    between atoms: C_1  and  O_2
REMARK    2  A    between atoms: O_2  and  C_3
REMARK    3  A    between atoms: C_3  and  C_5
REMARK    4  A    between atoms: C_5  and  C_6
REMARK    5  A    between atoms: C_7  and  C_8
REMARK    6  A    between atoms: C_13  and  C_14
REMARK    7  A    between atoms: N_21  and  C_22
REMARK    8  A    between atoms: C_22  and  C_23
REMARK    9  A    between atoms: C_23  and  C_24
REMARK   10  A    between atoms: C_27  and  O_28
REMARK   11  A    between atoms: O_28  and  C_29
REMARK                            x       y       z     vdW  Elec       q    Type
REMARK                         _______ _______ _______ _____ _____    ______ ____
ROOT
ATOM      1  C   UNL     1       4.824   4.642  16.876  0.00  0.00    +0.000 A 
ATOM      2  C   UNL     1       4.382   5.915  16.822  0.00  0.00    +0.000 A 
ATOM      3  C   UNL     1       4.780   6.894  15.746  0.00  0.00    +0.000 C 
ATOM      4  C   UNL     1       3.455   6.386  17.866  0.00  0.00    +0.000 A 
ATOM      5  C   UNL     1       3.004   7.706  17.937  0.00  0.00    +0.000 A 
ATOM      6  C   UNL     1       2.174   8.135  18.982  0.00  0.00    +0.000 A 
ATOM      7  C   UNL     1       1.793   7.245  19.988  0.00  0.00    +0.000 A 
ATOM      8  C   UNL     1       2.191   5.905  19.928  0.00  0.00    +0.000 A 
ATOM      9  C   UNL     1       1.775   4.904  20.969  0.00  0.00    +0.000 C 
ATOM     10  C   UNL     1       3.026   5.509  18.863  0.00  0.00    +0.000 A 
ATOM     11  O   UNL     1       3.443   4.164  18.844  0.00  0.00    +0.000 OA
ATOM     12  C   UNL     1       4.327   3.683  17.896  0.00  0.00    +0.000 A 
ATOM     13  O   UNL     1       4.701   2.514  17.913  0.00  0.00    +0.000 OA
ATOM     14  O   UNL     1       1.007   7.651  21.035  0.00  0.00    +0.000 OA
ATOM     15  C   UNL     1       0.887   9.075  21.177  0.00  0.00    +0.000 C 
ATOM     16  N   UNL     1       0.593   9.760  19.918  0.00  0.00    +0.000 NA
ATOM     17  C   UNL     1       1.739   9.569  19.032  0.00  0.00    +0.000 C 
ENDROOT
BRANCH   1  18
ATOM     18  C   UNL     1       5.842   4.043  15.933  0.00  0.00    +0.000 C 
BRANCH  18  19
ATOM     19  C   UNL     1       7.225   4.595  16.213  0.00  0.00    +0.000 C 
ATOM     20  O   UNL     1       7.834   4.506  17.270  0.00  0.00    +0.000 OA
BRANCH  19  22
ATOM     21  C   UNL     1       7.015   4.792  13.892  0.00  0.00    +0.000 C 
ATOM     22  O   UNL     1       7.716   5.169  15.076  0.00  0.00    +0.000 OA
ENDBRANCH  19  22
ENDBRANCH  18  19
ENDBRANCH   1  18
BRANCH  16  23
ATOM     23  C   UNL     1       0.312  11.186  20.140  0.00  0.00    +0.000 C 
BRANCH  23  24
ATOM     24  C   UNL     1       0.038  11.503  21.621  0.00  0.00    +0.000 C 
BRANCH  24  25
ATOM     25  C   UNL     1      -1.379  11.951  21.859  0.00  0.00    +0.000 A 
ATOM     26  C   UNL     1      -2.161  12.415  20.794  0.00  0.00    +0.000 A 
ATOM     27  C   UNL     1      -3.477  12.822  21.014  0.00  0.00    +0.000 A 
ATOM     28  C   UNL     1      -4.030  12.760  22.293  0.00  0.00    +0.000 A 
ATOM     29  C   UNL     1      -3.249  12.319  23.362  0.00  0.00    +0.000 A 
ATOM     30  C   UNL     1      -1.927  11.917  23.145  0.00  0.00    +0.000 A 
BRANCH  28  31
ATOM     31  O   UNL     1      -5.324  13.193  22.391  0.00  0.00    +0.000 OA
ATOM     32  C   UNL     1      -5.689  13.742  23.652  0.00  0.00    +0.000 C 
ENDBRANCH  28  31
ENDBRANCH  24  25
ENDBRANCH  23  24
ENDBRANCH  16  23
TORSDOF 7
ENDMDL
MODEL 4
REMARK VINA RESULT:      -8.4      3.436      5.181
REMARK  Name = 
REMARK  11 active torsions:
REMARK  status: ('A' for Active; 'I' for Inactive)
REMARK    1  A    between atoms: C_1  and  O_2
REMARK    2  A    between atoms: O_2  and  C_3
REMARK    3  A    between atoms: C_3  and  C_5
REMARK    4  A    between atoms: C_5  and  C_6
REMARK    5  A    between atoms: C_7  and  C_8
REMARK    6  A    between atoms: C_13  and  C_14
REMARK    7  A    between atoms: N_21  and  C_22
REMARK    8  A    between atoms: C_22  and  C_23
REMARK    9  A    between atoms: C_23  and  C_24
REMARK   10  A    between atoms: C_27  and  O_28
REMARK   11  A    between atoms: O_28  and  C_29
REMARK                            x       y       z     vdW  Elec       q    Type
REMARK                         _______ _______ _______ _____ _____    ______ ____
ROOT
ATOM      1  C   UNL     1       4.794   4.457  16.820  0.00  0.00    +0.000 A 
ATOM      2  C   UNL     1       4.361   5.731  16.921  0.00  0.00    +0.000 A 
ATOM      3  C   UNL     1       4.768   6.830  15.970  0.00  0.00    +0.000 C 
ATOM      4  C   UNL     1       3.438   6.081  18.015  0.00  0.00    +0.000 A 
ATOM      5  C   UNL     1       2.998   7.386  18.244  0.00  0.00    +0.000 A 
ATOM      6  C   UNL     1       2.172   7.693  19.335  0.00  0.00    +0.000 A 
ATOM      7  C   UNL     1       1.783   6.691  20.227  0.00  0.00    +0.000 A 
ATOM      8  C   UNL     1       2.171   5.365  20.005  0.00  0.00    +0.000 A 
ATOM      9  C   UNL     1       1.746   4.249  20.918  0.00  0.00    +0.000 C 
ATOM     10  C   UNL     1       3.002   5.093  18.899  0.00  0.00    +0.000 A 
ATOM     11  O   UNL     1       3.408   3.758  18.718  0.00  0.00    +0.000 OA
ATOM     12  C   UNL     1       4.288   3.387  17.718  0.00  0.00    +0.000 A 
ATOM     13  O   UNL     1       4.652   2.221  17.593  0.00  0.00    +0.000 OA
ATOM     14  O   UNL     1       1.001   6.975  21.315  0.00  0.00    +0.000 OA
ATOM     15  C   UNL     1       0.892   8.372  21.628  0.00  0.00    +0.000 C 
ATOM     16  N   UNL     1       0.604   9.206  20.461  0.00  0.00    +0.000 NA
ATOM     17  C   UNL     1       1.748   9.114  19.557  0.00  0.00    +0.000 C 
ENDROOT
BRANCH   1  18
ATOM     18  C   UNL     1       5.806   3.969  15.811  0.00  0.00    +0.000 C 
BRANCH  18  19
ATOM     19  C   UNL     1       7.183   4.520  16.120  0.00  0.00    +0.000 C 
ATOM     20  O   UNL     1       7.885   4.209  17.073  0.00  0.00    +0.000 OA
BRANCH  19  22
ATOM     21  C   UNL     1       7.241   4.929  13.818  0.00  0.00    +0.000 C 
ATOM     22  O   UNL     1       7.549   5.389  15.133  0.00  0.00    +0.000 OA
ENDBRANCH  19  22
ENDBRANCH  18  19
ENDBRANCH   1  18
BRANCH  16  23
ATOM     23  C   UNL     1       0.335  10.598  20.854  0.00  0.00    +0.000 C 
BRANCH  23  24
ATOM     24  C   UNL     1       0.287  11.545  19.642  0.00  0.00    +0.000 C 
BRANCH  24  25
ATOM     25  C   UNL     1      -0.927  11.315  18.782  0.00  0.00    +0.000 A 
ATOM     26  C   UNL     1      -0.872  10.420  17.706  0.00  0.00    +0.000 A 
ATOM     27  C   UNL     1      -2.000  10.202  16.917  0.00  0.00    +0.000 A 
ATOM     28  C   UNL     1      -3.196  10.861  17.197  0.00  0.00    +0.000 A 
ATOM     29  C   UNL     1      -3.252  11.771  18.254  0.00  0.00    +0.000 A 
ATOM     30  C   UNL     1      -2.120  11.997  19.043  0.00  0.00    +0.000 A 
BRANCH  28  31
ATOM     31  O   UNL     1      -4.232  10.577  16.351  0.00  0.00    +0.000 OA
ATOM     32  C   UNL     1      -3.865  10.325  15.000  0.00  0.00    +0.000 C 
ENDBRANCH  28  31
ENDBRANCH  24  25
ENDBRANCH  23  24
ENDBRANCH  16  23
TORSDOF 7
ENDMDL
MODEL 5
REMARK VINA RESULT:      -8.1      4.079      6.332
REMARK  Name = 
REMARK  11 active torsions:
REMARK  status: ('A' for Active; 'I' for Inactive)
REMARK    1  A    between atoms: C_1  and  O_2
REMARK    2  A    between atoms: O_2  and  C_3
REMARK    3  A    between atoms: C_3  and  C_5
REMARK    4  A    between atoms: C_5  and  C_6
REMARK    5  A    between atoms: C_7  and  C_8
REMARK    6  A    between atoms: C_13  and  C_14
REMARK    7  A    between atoms: N_21  and  C_22
REMARK    8  A    between atoms: C_22  and  C_23
REMARK    9  A    between atoms: C_23  and  C_24
REMARK   10  A    between atoms: C_27  and  O_28
REMARK   11  A    between atoms: O_28  and  C_29
REMARK                            x       y       z     vdW  Elec       q    Type
REMARK                         _______ _______ _______ _____ _____    ______ ____
ROOT
ATOM      1  C   UNL     1       4.835   4.583  16.845  0.00  0.00    +0.000 A 
ATOM      2  C   UNL     1       4.397   5.858  16.807  0.00  0.00    +0.000 A 
ATOM      3  C   UNL     1       4.789   6.845  15.735  0.00  0.00    +0.000 C 
ATOM      4  C   UNL     1       3.482   6.324  17.863  0.00  0.00    +0.000 A 
ATOM      5  C   UNL     1       3.036   7.644  17.949  0.00  0.00    +0.000 A 
ATOM      6  C   UNL     1       2.217   8.068  19.006  0.00  0.00    +0.000 A 
ATOM      7  C   UNL     1       1.842   7.170  20.007  0.00  0.00    +0.000 A 
ATOM      8  C   UNL     1       2.235   5.829  19.932  0.00  0.00    +0.000 A 
ATOM      9  C   UNL     1       1.824   4.821  20.968  0.00  0.00    +0.000 C 
ATOM     10  C   UNL     1       3.058   5.440  18.856  0.00  0.00    +0.000 A 
ATOM     11  O   UNL     1       3.470   4.094  18.822  0.00  0.00    +0.000 OA
ATOM     12  C   UNL     1       4.343   3.617  17.861  0.00  0.00    +0.000 A 
ATOM     13  O   UNL     1       4.713   2.447  17.865  0.00  0.00    +0.000 OA
ATOM     14  O   UNL     1       1.068   7.570  21.064  0.00  0.00    +0.000 OA
ATOM     15  C   UNL     1       0.954   8.993  21.220  0.00  0.00    +0.000 C 
ATOM     16  N   UNL     1       0.651   9.690  19.970  0.00  0.00    +0.000 NA
ATOM     17  C   UNL     1       1.788   9.503  19.071  0.00  0.00    +0.000 C 
ENDROOT
BRANCH   1  18
ATOM     18  C   UNL     1       5.842   3.989  15.888  0.00  0.00    +0.000 C 
BRANCH  18  19
ATOM     19  C   UNL     1       7.228   4.539  16.154  0.00  0.00    +0.000 C 
ATOM     20  O   UNL     1       7.881   4.378  17.176  0.00  0.00    +0.000 OA
BRANCH  19  22
ATOM     21  C   UNL     1       7.078   4.750  13.830  0.00  0.00    +0.000 C 
ATOM     22  O   UNL     1       7.665   5.207  15.047  0.00  0.00    +0.000 OA
ENDBRANCH  19  22
ENDBRANCH  18  19
ENDBRANCH   1  18
BRANCH  16  23
ATOM     23  C   UNL     1       0.378  11.116  20.207  0.00  0.00    +0.000 C 
BRANCH  23  24
ATOM     24  C   UNL     1       0.655  11.976  18.961  0.00  0.00    +0.000 C 
BRANCH  24  25
ATOM     25  C   UNL     1       1.779  12.954  19.180  0.00  0.00    +0.000 A 
ATOM     26  C   UNL     1       2.189  13.282  20.478  0.00  0.00    +0.000 A 
ATOM     27  C   UNL     1       3.235  14.181  20.678  0.00  0.00    +0.000 A 
ATOM     28  C   UNL     1       3.891  14.754  19.589  0.00  0.00    +0.000 A 
ATOM     29  C   UNL     1       3.473  14.449  18.292  0.00  0.00    +0.000 A 
ATOM     30  C   UNL     1       2.420  13.552  18.090  0.00  0.00    +0.000 A 
BRANCH  28  31
ATOM     31  O   UNL     1       4.895  15.628  19.905  0.00  0.00    +0.000 OA
ATOM     32  C   UNL     1       5.304  16.493  18.853  0.00  0.00    +0.000 C 
ENDBRANCH  28  31
ENDBRANCH  24  25
ENDBRANCH  23  24
ENDBRANCH  16  23
TORSDOF 7
ENDMDL
MODEL 6
REMARK VINA RESULT:      -8.1      3.985      5.829
REMARK  Name = 
REMARK  11 active torsions:
REMARK  status: ('A' for Active; 'I' for Inactive)
REMARK    1  A    between atoms: C_1  and  O_2
REMARK    2  A    between atoms: O_2  and  C_3
REMARK    3  A    between atoms: C_3  and  C_5
REMARK    4  A    between atoms: C_5  and  C_6
REMARK    5  A    between atoms: C_7  and  C_8
REMARK    6  A    between atoms: C_13  and  C_14
REMARK    7  A    between atoms: N_21  and  C_22
REMARK    8  A    between atoms: C_22  and  C_23
REMARK    9  A    between atoms: C_23  and  C_24
REMARK   10  A    between atoms: C_27  and  O_28
REMARK   11  A    between atoms: O_28  and  C_29
REMARK                            x       y       z     vdW  Elec       q    Type
REMARK                         _______ _______ _______ _____ _____    ______ ____
ROOT
ATOM      1  C   UNL     1       4.810   4.556  16.752  0.00  0.00    +0.000 A 
ATOM      2  C   UNL     1       4.390   5.838  16.781  0.00  0.00    +0.000 A 
ATOM      3  C   UNL     1       4.803   6.876  15.765  0.00  0.00    +0.000 C 
ATOM      4  C   UNL     1       3.477   6.259  17.857  0.00  0.00    +0.000 A 
ATOM      5  C   UNL     1       3.050   7.579  18.012  0.00  0.00    +0.000 A 
ATOM      6  C   UNL     1       2.232   7.957  19.087  0.00  0.00    +0.000 A 
ATOM      7  C   UNL     1       1.839   7.013  20.037  0.00  0.00    +0.000 A 
ATOM      8  C   UNL     1       2.213   5.672  19.891  0.00  0.00    +0.000 A 
ATOM      9  C   UNL     1       1.782   4.616  20.869  0.00  0.00    +0.000 C 
ATOM     10  C   UNL     1       3.035   5.329  18.799  0.00  0.00    +0.000 A 
ATOM     11  O   UNL     1       3.428   3.981  18.694  0.00  0.00    +0.000 OA
ATOM     12  C   UNL     1       4.299   3.544  17.712  0.00  0.00    +0.000 A 
ATOM     13  O   UNL     1       4.652   2.370  17.654  0.00  0.00    +0.000 OA
ATOM     14  O   UNL     1       1.065   7.367  21.111  0.00  0.00    +0.000 OA
ATOM     15  C   UNL     1       0.971   8.781  21.342  0.00  0.00    +0.000 C 
ATOM     16  N   UNL     1       0.684   9.548  20.131  0.00  0.00    +0.000 NA
ATOM     17  C   UNL     1       1.823   9.393  19.228  0.00  0.00    +0.000 C 
ENDROOT
BRANCH   1  18
ATOM     18  C   UNL     1       5.813   4.000  15.769  0.00  0.00    +0.000 C 
BRANCH  18  19
ATOM     19  C   UNL     1       7.203   4.527  16.061  0.00  0.00    +0.000 C 
ATOM     20  O   UNL     1       7.904   4.216  17.014  0.00  0.00    +0.000 OA
BRANCH  19  22
ATOM     21  C   UNL     1       7.226   4.914  13.754  0.00  0.00    +0.000 C 
ATOM     22  O   UNL     1       7.581   5.372  15.058  0.00  0.00    +0.000 OA
ENDBRANCH  19  22
ENDBRANCH  18  19
ENDBRANCH   1  18
BRANCH  16  23
ATOM     23  C   UNL     1       0.431  10.963  20.443  0.00  0.00    +0.000 C 
BRANCH  23  24
ATOM     24  C   UNL     1      -0.214  11.713  19.264  0.00  0.00    +0.000 C 
BRANCH  24  25
ATOM     25  C   UNL     1       0.425  13.054  19.019  0.00  0.00    +0.000 A 
ATOM     26  C   UNL     1      -0.345  14.222  19.062  0.00  0.00    +0.000 A 
ATOM     27  C   UNL     1       0.251  15.464  18.844  0.00  0.00    +0.000 A 
ATOM     28  C   UNL     1       1.620  15.556  18.593  0.00  0.00    +0.000 A 
ATOM     29  C   UNL     1       2.389  14.393  18.528  0.00  0.00    +0.000 A 
ATOM     30  C   UNL     1       1.792  13.146  18.739  0.00  0.00    +0.000 A 
BRANCH  28  31
ATOM     31  O   UNL     1       2.092  16.823  18.385  0.00  0.00    +0.000 OA
ATOM     32  C   UNL     1       2.768  17.027  17.150  0.00  0.00    +0.000 C 
ENDBRANCH  28  31
ENDBRANCH  24  25
ENDBRANCH  23  24
ENDBRANCH  16  23
TORSDOF 7
ENDMDL
MODEL 7
REMARK VINA RESULT:      -8.0      2.938      4.465
REMARK  Name = 
REMARK  11 active torsions:
REMARK  status: ('A' for Active; 'I' for Inactive)
REMARK    1  A    between atoms: C_1  and  O_2
REMARK    2  A    between atoms: O_2  and  C_3
REMARK    3  A    between atoms: C_3  and  C_5
REMARK    4  A    between atoms: C_5  and  C_6
REMARK    5  A    between atoms: C_7  and  C_8
REMARK    6  A    between atoms: C_13  and  C_14
REMARK    7  A    between atoms: N_21  and  C_22
REMARK    8  A    between atoms: C_22  and  C_23
REMARK    9  A    between atoms: C_23  and  C_24
REMARK   10  A    between atoms: C_27  and  O_28
REMARK   11  A    between atoms: O_28  and  C_29
REMARK                            x       y       z     vdW  Elec       q    Type
REMARK                         _______ _______ _______ _____ _____    ______ ____
ROOT
ATOM      1  C   UNL     1       5.088   5.119  17.504  0.00  0.00    +0.000 A 
ATOM      2  C   UNL     1       4.498   6.259  17.086  0.00  0.00    +0.000 A 
ATOM      3  C   UNL     1       4.843   6.952  15.790  0.00  0.00    +0.000 C 
ATOM      4  C   UNL     1       3.457   6.868  17.931  0.00  0.00    +0.000 A 
ATOM      5  C   UNL     1       2.846   8.084  17.619  0.00  0.00    +0.000 A 
ATOM      6  C   UNL     1       1.905   8.667  18.480  0.00  0.00    +0.000 A 
ATOM      7  C   UNL     1       1.572   8.042  19.684  0.00  0.00    +0.000 A 
ATOM      8  C   UNL     1       2.133   6.802  20.010  0.00  0.00    +0.000 A 
ATOM      9  C   UNL     1       1.775   6.076  21.276  0.00  0.00    +0.000 C 
ATOM     10  C   UNL     1       3.075   6.246  19.120  0.00  0.00    +0.000 A 
ATOM     11  O   UNL     1       3.653   5.016  19.488  0.00  0.00    +0.000 OA
ATOM     12  C   UNL     1       4.646   4.417  18.736  0.00  0.00    +0.000 A 
ATOM     13  O   UNL     1       5.157   3.358  19.088  0.00  0.00    +0.000 OA
ATOM     14  O   UNL     1       0.678   8.609  20.554  0.00  0.00    +0.000 OA
ATOM     15  C   UNL     1       0.378   9.988  20.290  0.00  0.00    +0.000 C 
ATOM     16  N   UNL     1       0.083  10.258  18.883  0.00  0.00    +0.000 NA
ATOM     17  C   UNL     1       1.298   9.988  18.117  0.00  0.00    +0.000 C 
ENDROOT
BRANCH   1  18
ATOM     18  C   UNL     1       6.228   4.428  16.793  0.00  0.00    +0.000 C 
BRANCH  18  19
ATOM     19  C   UNL     1       7.551   4.752  17.457  0.00  0.00    +0.000 C 
ATOM     20  O   UNL     1       8.469   3.966  17.651  0.00  0.00    +0.000 OA
BRANCH  19  22
ATOM     21  C   UNL     1       8.056   6.358  19.080  0.00  0.00    +0.000 C 
ATOM     22  O   UNL     1       7.586   6.082  17.761  0.00  0.00    +0.000 OA
ENDBRANCH  19  22
ENDBRANCH  18  19
ENDBRANCH   1  18
BRANCH  16  23
ATOM     23  C   UNL     1      -0.382  11.640  18.691  0.00  0.00    +0.000 C 
BRANCH  23  24
ATOM     24  C   UNL     1      -1.452  12.043  19.721  0.00  0.00    +0.000 C 
BRANCH  24  25
ATOM     25  C   UNL     1      -2.845  11.977  19.155  0.00  0.00    +0.000 A 
ATOM     26  C   UNL     1      -3.929  12.484  19.883  0.00  0.00    +0.000 A 
ATOM     27  C   UNL     1      -5.217  12.430  19.353  0.00  0.00    +0.000 A 
ATOM     28  C   UNL     1      -5.438  11.880  18.090  0.00  0.00    +0.000 A 
ATOM     29  C   UNL     1      -4.366  11.353  17.369  0.00  0.00    +0.000 A 
ATOM     30  C   UNL     1      -3.074  11.401  17.902  0.00  0.00    +0.000 A 
BRANCH  28  31
ATOM     31  O   UNL     1      -6.742  11.872  17.677  0.00  0.00    +0.000 OA
ATOM     32  C   UNL     1      -7.480  13.055  17.961  0.00  0.00    +0.000 C 
ENDBRANCH  28  31
ENDBRANCH  24  25
ENDBRANCH  23  24
ENDBRANCH  16  23
TORSDOF 7
ENDMDL
MODEL 8
REMARK VINA RESULT:      -8.0      1.197      1.544
REMARK  Name = 
REMARK  11 active torsions:
REMARK  status: ('A' for Active; 'I' for Inactive)
REMARK    1  A    between atoms: C_1  and  O_2
REMARK    2  A    between atoms: O_2  and  C_3
REMARK    3  A    between atoms: C_3  and  C_5
REMARK    4  A    between atoms: C_5  and  C_6
REMARK    5  A    between atoms: C_7  and  C_8
REMARK    6  A    between atoms: C_13  and  C_14
REMARK    7  A    between atoms: N_21  and  C_22
REMARK    8  A    between atoms: C_22  and  C_23
REMARK    9  A    between atoms: C_23  and  C_24
REMARK   10  A    between atoms: C_27  and  O_28
REMARK   11  A    between atoms: O_28  and  C_29
REMARK                            x       y       z     vdW  Elec       q    Type
REMARK                         _______ _______ _______ _____ _____    ______ ____
ROOT
ATOM      1  C   UNL     1       3.239   5.428  18.695  0.00  0.00    +0.000 A 
ATOM      2  C   UNL     1       2.527   5.777  19.787  0.00  0.00    +0.000 A 
ATOM      3  C   UNL     1       2.233   4.835  20.929  0.00  0.00    +0.000 C 
ATOM      4  C   UNL     1       2.006   7.152  19.882  0.00  0.00    +0.000 A 
ATOM      5  C   UNL     1       1.197   7.582  20.935  0.00  0.00    +0.000 A 
ATOM      6  C   UNL     1       0.665   8.879  20.960  0.00  0.00    +0.000 A 
ATOM      7  C   UNL     1       0.925   9.766  19.913  0.00  0.00    +0.000 A 
ATOM      8  C   UNL     1       1.766   9.383  18.861  0.00  0.00    +0.000 A 
ATOM      9  C   UNL     1       2.103  10.317  17.734  0.00  0.00    +0.000 C 
ATOM     10  C   UNL     1       2.283   8.072  18.870  0.00  0.00    +0.000 A 
ATOM     11  O   UNL     1       3.096   7.699  17.783  0.00  0.00    +0.000 OA
ATOM     12  C   UNL     1       3.591   6.415  17.642  0.00  0.00    +0.000 A 
ATOM     13  O   UNL     1       4.275   6.102  16.672  0.00  0.00    +0.000 OA
ATOM     14  O   UNL     1       0.391  11.027  19.903  0.00  0.00    +0.000 OA
ATOM     15  C   UNL     1      -0.671  11.236  20.846  0.00  0.00    +0.000 C 
ATOM     16  N   UNL     1      -0.362  10.738  22.186  0.00  0.00    +0.000 NA
ATOM     17  C   UNL     1      -0.223   9.286  22.098  0.00  0.00    +0.000 C 
ENDROOT
BRANCH   1  18
ATOM     18  C   UNL     1       3.760   4.038  18.414  0.00  0.00    +0.000 C 
BRANCH  18  19
ATOM     19  C   UNL     1       5.029   3.770  19.197  0.00  0.00    +0.000 C 
ATOM     20  O   UNL     1       5.999   4.512  19.269  0.00  0.00    +0.000 OA
BRANCH  19  22
ATOM     21  C   UNL     1       3.845   1.761  19.375  0.00  0.00    +0.000 C 
ATOM     22  O   UNL     1       4.904   2.584  19.861  0.00  0.00    +0.000 OA
ENDBRANCH  19  22
ENDBRANCH  18  19
ENDBRANCH   1  18
BRANCH  16  23
ATOM     23  C   UNL     1      -1.403  11.123  23.151  0.00  0.00    +0.000 C 
BRANCH  23  24
ATOM     24  C   UNL     1      -1.602  12.648  23.216  0.00  0.00    +0.000 C 
BRANCH  24  25
ATOM     25  C   UNL     1      -3.045  13.030  23.410  0.00  0.00    +0.000 A 
ATOM     26  C   UNL     1      -3.897  12.213  24.163  0.00  0.00    +0.000 A 
ATOM     27  C   UNL     1      -5.232  12.573  24.349  0.00  0.00    +0.000 A 
ATOM     28  C   UNL     1      -5.727  13.754  23.798  0.00  0.00    +0.000 A 
ATOM     29  C   UNL     1      -4.889  14.561  23.027  0.00  0.00    +0.000 A 
ATOM     30  C   UNL     1      -3.553  14.199  22.834  0.00  0.00    +0.000 A 
BRANCH  28  31
ATOM     31  O   UNL     1      -7.052  13.999  24.037  0.00  0.00    +0.000 OA
ATOM     32  C   UNL     1      -7.552  15.218  23.501  0.00  0.00    +0.000 C 
ENDBRANCH  28  31
ENDBRANCH  24  25
ENDBRANCH  23  24
ENDBRANCH  16  23
TORSDOF 7
ENDMDL
MODEL 9
REMARK VINA RESULT:      -8.0      2.016      3.782
REMARK  Name = 
REMARK  11 active torsions:
REMARK  status: ('A' for Active; 'I' for Inactive)
REMARK    1  A    between atoms: C_1  and  O_2
REMARK    2  A    between atoms: O_2  and  C_3
REMARK    3  A    between atoms: C_3  and  C_5
REMARK    4  A    between atoms: C_5  and  C_6
REMARK    5  A    between atoms: C_7  and  C_8
REMARK    6  A    between atoms: C_13  and  C_14
REMARK    7  A    between atoms: N_21  and  C_22
REMARK    8  A    between atoms: C_22  and  C_23
REMARK    9  A    between atoms: C_23  and  C_24
REMARK   10  A    between atoms: C_27  and  O_28
REMARK   11  A    between atoms: O_28  and  C_29
REMARK                            x       y       z     vdW  Elec       q    Type
REMARK                         _______ _______ _______ _____ _____    ______ ____
ROOT
ATOM      1  C   UNL     1       4.652   4.487  16.866  0.00  0.00    +0.000 A 
ATOM      2  C   UNL     1       4.264   5.779  16.909  0.00  0.00    +0.000 A 
ATOM      3  C   UNL     1       4.722   6.823  15.921  0.00  0.00    +0.000 C 
ATOM      4  C   UNL     1       3.340   6.205  17.975  0.00  0.00    +0.000 A 
ATOM      5  C   UNL     1       2.944   7.532  18.145  0.00  0.00    +0.000 A 
ATOM      6  C   UNL     1       2.115   7.912  19.211  0.00  0.00    +0.000 A 
ATOM      7  C   UNL     1       1.680   6.962  20.137  0.00  0.00    +0.000 A 
ATOM      8  C   UNL     1       2.022   5.615  19.974  0.00  0.00    +0.000 A 
ATOM      9  C   UNL     1       1.546   4.553  20.925  0.00  0.00    +0.000 C 
ATOM     10  C   UNL     1       2.857   5.270  18.892  0.00  0.00    +0.000 A 
ATOM     11  O   UNL     1       3.218   3.914  18.771  0.00  0.00    +0.000 OA
ATOM     12  C   UNL     1       4.097   3.472  17.798  0.00  0.00    +0.000 A 
ATOM     13  O   UNL     1       4.421   2.291  17.726  0.00  0.00    +0.000 OA
ATOM     14  O   UNL     1       0.894   7.317  21.202  0.00  0.00    +0.000 OA
ATOM     15  C   UNL     1       0.831   8.728  21.456  0.00  0.00    +0.000 C 
ATOM     16  N   UNL     1       0.587   9.524  20.253  0.00  0.00    +0.000 NA
ATOM     17  C   UNL     1       1.739   9.355  19.370  0.00  0.00    +0.000 C 
ENDROOT
BRANCH   1  18
ATOM     18  C   UNL     1       5.659   3.923  15.892  0.00  0.00    +0.000 C 
BRANCH  18  19
ATOM     19  C   UNL     1       7.036   4.500  16.147  0.00  0.00    +0.000 C 
ATOM     20  O   UNL     1       7.726   5.100  15.333  0.00  0.00    +0.000 OA
BRANCH  19  22
ATOM     21  C   UNL     1       7.680   5.492  18.165  0.00  0.00    +0.000 C 
ATOM     22  O   UNL     1       7.374   4.293  17.453  0.00  0.00    +0.000 OA
ENDBRANCH  19  22
ENDBRANCH  18  19
ENDBRANCH   1  18
BRANCH  16  23
ATOM     23  C   UNL     1       0.363  10.939  20.585  0.00  0.00    +0.000 C 
BRANCH  23  24
ATOM     24  C   UNL     1      -0.185  11.123  22.012  0.00  0.00    +0.000 C 
BRANCH  24  25
ATOM     25  C   UNL     1      -1.524  11.811  22.027  0.00  0.00    +0.000 A 
ATOM     26  C   UNL     1      -2.275  11.869  23.207  0.00  0.00    +0.000 A 
ATOM     27  C   UNL     1      -3.511  12.514  23.221  0.00  0.00    +0.000 A 
ATOM     28  C   UNL     1      -4.005  13.118  22.065  0.00  0.00    +0.000 A 
ATOM     29  C   UNL     1      -3.271  13.045  20.880  0.00  0.00    +0.000 A 
ATOM     30  C   UNL     1      -2.034  12.393  20.862  0.00  0.00    +0.000 A 
BRANCH  28  31
ATOM     31  O   UNL     1      -5.230  13.713  22.194  0.00  0.00    +0.000 OA
ATOM     32  C   UNL     1      -6.336  12.821  22.265  0.00  0.00    +0.000 C 
ENDBRANCH  28  31
ENDBRANCH  24  25
ENDBRANCH  23  24
ENDBRANCH  16  23
TORSDOF 7
ENDMDL
