MODEL 1
REMARK VINA RESULT:      -7.5      0.000      0.000
REMARK  Name = 
REMARK  6 active torsions:
REMARK  status: ('A' for Active; 'I' for Inactive)
REMARK    1  A    between atoms: C_2  and  C_3
REMARK    2  A    between atoms: C_3  and  C_4
REMARK    3  A    between atoms: C_4  and  S_5
REMARK    4  A    between atoms: S_5  and  C_6
REMARK    5  A    between atoms: C_6  and  C_7
REMARK    6  A    between atoms: N_17  and  C_18
REMARK                            x       y       z     vdW  Elec       q    Type
REMARK                         _______ _______ _______ _____ _____    ______ ____
ROOT
ATOM      1  O   UNL     1       7.740   6.245  16.124  0.00  0.00    +0.000 OA
ATOM      2  C   UNL     1       7.377   6.401  17.290  0.00  0.00    +0.000 C 
ATOM      3  N   UNL     1       6.249   5.773  17.796  0.00  0.00    +0.000 N 
ATOM      4  C   UNL     1       5.745   5.881  19.182  0.00  0.00    +0.000 C 
ATOM      5  C   UNL     1       4.197   5.856  19.255  0.00  0.00    +0.000 C 
ATOM      6  N   UNL     1       3.697   4.699  18.498  0.00  0.00    +0.000 N 
ATOM      7  C   UNL     1       4.116   4.678  17.086  0.00  0.00    +0.000 C 
ATOM      8  C   UNL     1       5.649   4.679  17.013  0.00  0.00    +0.000 C 
ENDROOT
BRANCH   6   9
ATOM      9  C   UNL     1       2.661   3.896  18.931  0.00  0.00    +0.000 A 
ATOM     10  C   UNL     1       1.732   3.387  18.005  0.00  0.00    +0.000 A 
ATOM     11  C   UNL     1       0.685   2.543  18.390  0.00  0.00    +0.000 A 
ATOM     12  C   UNL     1       0.540   2.189  19.722  0.00  0.00    +0.000 A 
ATOM     13  C   UNL     1       1.446   2.679  20.658  0.00  0.00    +0.000 A 
ATOM     14 CL   UNL     1       1.264   2.250  22.317  0.00  0.00    +0.000 Cl
ATOM     15  C   UNL     1       2.497   3.516  20.269  0.00  0.00    +0.000 A 
ENDBRANCH   6   9
BRANCH   2  16
ATOM     16  C   UNL     1       8.160   7.301  18.235  0.00  0.00    +0.000 C 
BRANCH  16  17
ATOM     17  C   UNL     1       8.098   8.765  17.795  0.00  0.00    +0.000 C 
BRANCH  17  18
ATOM     18  S   UNL     1       9.058   9.805  18.955  0.00  0.00    +0.000 S 
BRANCH  18  19
ATOM     19  C   UNL     1       8.900  11.414  18.110  0.00  0.00    +0.000 C 
BRANCH  19  20
ATOM     20  C   UNL     1      10.075  12.325  18.390  0.00  0.00    +0.000 A 
ATOM     21  C   UNL     1      10.995  12.591  17.356  0.00  0.00    +0.000 A 
ATOM     22  C   UNL     1      12.111  13.403  17.571  0.00  0.00    +0.000 A 
ATOM     23  C   UNL     1      12.333  13.968  18.822  0.00  0.00    +0.000 A 
ATOM     24  C   UNL     1      11.423  13.731  19.856  0.00  0.00    +0.000 A 
ATOM     25  C   UNL     1      10.299  12.925  19.639  0.00  0.00    +0.000 A 
ATOM     26 CL   UNL     1       9.214  12.709  20.967  0.00  0.00    +0.000 Cl
ENDBRANCH  19  20
ENDBRANCH  18  19
ENDBRANCH  17  18
ENDBRANCH  16  17
ENDBRANCH   2  16
TORSDOF 6
ENDMDL
MODEL 2
REMARK VINA RESULT:      -7.5      6.057      9.467
REMARK  Name = 
REMARK  6 active torsions:
REMARK  status: ('A' for Active; 'I' for Inactive)
REMARK    1  A    between atoms: C_2  and  C_3
REMARK    2  A    between atoms: C_3  and  C_4
REMARK    3  A    between atoms: C_4  and  S_5
REMARK    4  A    between atoms: S_5  and  C_6
REMARK    5  A    between atoms: C_6  and  C_7
REMARK    6  A    between atoms: N_17  and  C_18
REMARK                            x       y       z     vdW  Elec       q    Type
REMARK                         _______ _______ _______ _____ _____    ______ ____
ROOT
ATOM      1  O   UNL     1       4.316   7.014  17.061  0.00  0.00    +0.000 OA
ATOM      2  C   UNL     1       3.701   6.808  18.107  0.00  0.00    +0.000 C 
ATOM      3  N   UNL     1       2.695   7.656  18.545  0.00  0.00    +0.000 N 
ATOM      4  C   UNL     1       1.888   7.483  19.771  0.00  0.00    +0.000 C 
ATOM      5  C   UNL     1       1.531   8.835  20.443  0.00  0.00    +0.000 C 
ATOM      6  N   UNL     1       0.951   9.735  19.436  0.00  0.00    +0.000 N 
ATOM      7  C   UNL     1       1.826   9.986  18.278  0.00  0.00    +0.000 C 
ATOM      8  C   UNL     1       2.161   8.651  17.599  0.00  0.00    +0.000 C 
ENDROOT
BRANCH   6   9
ATOM      9  C   UNL     1      -0.133  10.552  19.681  0.00  0.00    +0.000 A 
ATOM     10  C   UNL     1      -1.026  10.869  18.640  0.00  0.00    +0.000 A 
ATOM     11  C   UNL     1      -2.157  11.665  18.846  0.00  0.00    +0.000 A 
ATOM     12  C   UNL     1      -2.421  12.172  20.108  0.00  0.00    +0.000 A 
ATOM     13  C   UNL     1      -1.555  11.875  21.156  0.00  0.00    +0.000 A 
ATOM     14 CL   UNL     1      -1.874  12.510  22.725  0.00  0.00    +0.000 Cl
ATOM     15  C   UNL     1      -0.429  11.070  20.949  0.00  0.00    +0.000 A 
ENDBRANCH   6   9
BRANCH   2  16
ATOM     16  C   UNL     1       4.022   5.598  18.973  0.00  0.00    +0.000 C 
BRANCH  16  17
ATOM     17  C   UNL     1       4.934   4.610  18.241  0.00  0.00    +0.000 C 
BRANCH  17  18
ATOM     18  S   UNL     1       3.985   3.728  16.949  0.00  0.00    +0.000 S 
BRANCH  18  19
ATOM     19  C   UNL     1       3.593   2.198  17.864  0.00  0.00    +0.000 C 
BRANCH  19  20
ATOM     20  C   UNL     1       2.788   2.471  19.115  0.00  0.00    +0.000 A 
ATOM     21  C   UNL     1       1.445   2.877  18.988  0.00  0.00    +0.000 A 
ATOM     22  C   UNL     1       0.667   3.167  20.112  0.00  0.00    +0.000 A 
ATOM     23  C   UNL     1       1.212   3.059  21.387  0.00  0.00    +0.000 A 
ATOM     24  C   UNL     1       2.538   2.641  21.534  0.00  0.00    +0.000 A 
ATOM     25  C   UNL     1       3.315   2.340  20.409  0.00  0.00    +0.000 A 
ATOM     26 CL   UNL     1       4.935   1.806  20.689  0.00  0.00    +0.000 Cl
ENDBRANCH  19  20
ENDBRANCH  18  19
ENDBRANCH  17  18
ENDBRANCH  16  17
ENDBRANCH   2  16
TORSDOF 6
ENDMDL
MODEL 3
REMARK VINA RESULT:      -7.4      5.397      8.363
REMARK  Name = 
REMARK  6 active torsions:
REMARK  status: ('A' for Active; 'I' for Inactive)
REMARK    1  A    between atoms: C_2  and  C_3
REMARK    2  A    between atoms: C_3  and  C_4
REMARK    3  A    between atoms: C_4  and  S_5
REMARK    4  A    between atoms: S_5  and  C_6
REMARK    5  A    between atoms: C_6  and  C_7
REMARK    6  A    between atoms: N_17  and  C_18
REMARK                            x       y       z     vdW  Elec       q    Type
REMARK                         _______ _______ _______ _____ _____    ______ ____
ROOT
ATOM      1  O   UNL     1       1.767   5.769  20.848  0.00  0.00    +0.000 OA
ATOM      2  C   UNL     1       2.185   6.276  19.807  0.00  0.00    +0.000 C 
ATOM      3  N   UNL     1       1.986   7.617  19.514  0.00  0.00    +0.000 N 
ATOM      4  C   UNL     1       2.465   8.320  18.305  0.00  0.00    +0.000 C 
ATOM      5  C   UNL     1       1.474   9.409  17.820  0.00  0.00    +0.000 C 
ATOM      6  N   UNL     1       1.124  10.281  18.951  0.00  0.00    +0.000 N 
ATOM      7  C   UNL     1       0.537   9.569  20.099  0.00  0.00    +0.000 C 
ATOM      8  C   UNL     1       1.527   8.506  20.595  0.00  0.00    +0.000 C 
ENDROOT
BRANCH   6   9
ATOM      9  C   UNL     1       1.011  11.652  18.848  0.00  0.00    +0.000 A 
ATOM     10  C   UNL     1      -0.218  12.280  19.126  0.00  0.00    +0.000 A 
ATOM     11  C   UNL     1      -0.373  13.668  19.068  0.00  0.00    +0.000 A 
ATOM     12  C   UNL     1       0.705  14.468  18.723  0.00  0.00    +0.000 A 
ATOM     13  C   UNL     1       1.931  13.873  18.443  0.00  0.00    +0.000 A 
ATOM     14 CL   UNL     1       3.272  14.863  18.005  0.00  0.00    +0.000 Cl
ATOM     15  C   UNL     1       2.086  12.484  18.511  0.00  0.00    +0.000 A 
ENDBRANCH   6   9
BRANCH   2  16
ATOM     16  C   UNL     1       2.946   5.442  18.787  0.00  0.00    +0.000 C 
BRANCH  16  17
ATOM     17  C   UNL     1       2.907   3.953  19.139  0.00  0.00    +0.000 C 
BRANCH  17  18
ATOM     18  S   UNL     1       4.586   3.238  19.006  0.00  0.00    +0.000 S 
BRANCH  18  19
ATOM     19  C   UNL     1       5.127   4.039  17.458  0.00  0.00    +0.000 C 
BRANCH  19  20
ATOM     20  C   UNL     1       6.122   5.151  17.708  0.00  0.00    +0.000 A 
ATOM     21  C   UNL     1       7.040   5.021  18.769  0.00  0.00    +0.000 A 
ATOM     22  C   UNL     1       7.961   6.030  19.058  0.00  0.00    +0.000 A 
ATOM     23  C   UNL     1       7.987   7.192  18.294  0.00  0.00    +0.000 A 
ATOM     24  C   UNL     1       7.096   7.333  17.226  0.00  0.00    +0.000 A 
ATOM     25  C   UNL     1       6.179   6.318  16.930  0.00  0.00    +0.000 A 
ATOM     26 CL   UNL     1       5.135   6.568  15.575  0.00  0.00    +0.000 Cl
ENDBRANCH  19  20
ENDBRANCH  18  19
ENDBRANCH  17  18
ENDBRANCH  16  17
ENDBRANCH   2  16
TORSDOF 6
ENDMDL
MODEL 4
REMARK VINA RESULT:      -7.4      6.293      8.573
REMARK  Name = 
REMARK  6 active torsions:
REMARK  status: ('A' for Active; 'I' for Inactive)
REMARK    1  A    between atoms: C_2  and  C_3
REMARK    2  A    between atoms: C_3  and  C_4
REMARK    3  A    between atoms: C_4  and  S_5
REMARK    4  A    between atoms: S_5  and  C_6
REMARK    5  A    between atoms: C_6  and  C_7
REMARK    6  A    between atoms: N_17  and  C_18
REMARK                            x       y       z     vdW  Elec       q    Type
REMARK                         _______ _______ _______ _____ _____    ______ ____
ROOT
ATOM      1  O   UNL     1       2.720   7.546  18.253  0.00  0.00    +0.000 OA
ATOM      2  C   UNL     1       2.261   7.359  19.379  0.00  0.00    +0.000 C 
ATOM      3  N   UNL     1       1.560   8.346  20.057  0.00  0.00    +0.000 N 
ATOM      4  C   UNL     1       0.954   8.212  21.398  0.00  0.00    +0.000 C 
ATOM      5  C   UNL     1       1.029   9.527  22.217  0.00  0.00    +0.000 C 
ATOM      6  N   UNL     1       0.503  10.633  21.403  0.00  0.00    +0.000 N 
ATOM      7  C   UNL     1       1.204  10.820  20.120  0.00  0.00    +0.000 C 
ATOM      8  C   UNL     1       1.111   9.527  19.300  0.00  0.00    +0.000 C 
ENDROOT
BRANCH   6   9
ATOM      9  C   UNL     1      -0.313  11.626  21.904  0.00  0.00    +0.000 A 
ATOM     10  C   UNL     1      -0.048  12.974  21.600  0.00  0.00    +0.000 A 
ATOM     11  C   UNL     1      -0.865  14.013  22.055  0.00  0.00    +0.000 A 
ATOM     12  C   UNL     1      -1.972  13.726  22.838  0.00  0.00    +0.000 A 
ATOM     13  C   UNL     1      -2.256  12.401  23.155  0.00  0.00    +0.000 A 
ATOM     14 CL   UNL     1      -3.626  12.040  24.135  0.00  0.00    +0.000 Cl
ATOM     15  C   UNL     1      -1.443  11.363  22.688  0.00  0.00    +0.000 A 
ENDBRANCH   6   9
BRANCH   2  16
ATOM     16  C   UNL     1       2.444   6.022  20.083  0.00  0.00    +0.000 C 
BRANCH  16  17
ATOM     17  C   UNL     1       2.036   4.854  19.183  0.00  0.00    +0.000 C 
BRANCH  17  18
ATOM     18  S   UNL     1       3.425   3.673  19.028  0.00  0.00    +0.000 S 
BRANCH  18  19
ATOM     19  C   UNL     1       4.198   4.324  17.509  0.00  0.00    +0.000 C 
BRANCH  19  20
ATOM     20  C   UNL     1       5.448   5.124  17.802  0.00  0.00    +0.000 A 
ATOM     21  C   UNL     1       6.127   4.910  19.018  0.00  0.00    +0.000 A 
ATOM     22  C   UNL     1       7.270   5.642  19.348  0.00  0.00    +0.000 A 
ATOM     23  C   UNL     1       7.762   6.603  18.471  0.00  0.00    +0.000 A 
ATOM     24  C   UNL     1       7.113   6.818  17.252  0.00  0.00    +0.000 A 
ATOM     25  C   UNL     1       5.973   6.078  16.916  0.00  0.00    +0.000 A 
ATOM     26 CL   UNL     1       5.253   6.393  15.377  0.00  0.00    +0.000 Cl
ENDBRANCH  19  20
ENDBRANCH  18  19
ENDBRANCH  17  18
ENDBRANCH  16  17
ENDBRANCH   2  16
TORSDOF 6
ENDMDL
MODEL 5
REMARK VINA RESULT:      -7.4      1.113      1.283
REMARK  Name = 
REMARK  6 active torsions:
REMARK  status: ('A' for Active; 'I' for Inactive)
REMARK    1  A    between atoms: C_2  and  C_3
REMARK    2  A    between atoms: C_3  and  C_4
REMARK    3  A    between atoms: C_4  and  S_5
REMARK    4  A    between atoms: S_5  and  C_6
REMARK    5  A    between atoms: C_6  and  C_7
REMARK    6  A    between atoms: N_17  and  C_18
REMARK                            x       y       z     vdW  Elec       q    Type
REMARK                         _______ _______ _______ _____ _____    ______ ____
ROOT
ATOM      1  O   UNL     1       7.695   6.385  16.072  0.00  0.00    +0.000 OA
ATOM      2  C   UNL     1       7.358   6.503  17.250  0.00  0.00    +0.000 C 
ATOM      3  N   UNL     1       6.250   5.848  17.764  0.00  0.00    +0.000 N 
ATOM      4  C   UNL     1       5.778   5.908  19.164  0.00  0.00    +0.000 C 
ATOM      5  C   UNL     1       4.231   5.863  19.272  0.00  0.00    +0.000 C 
ATOM      6  N   UNL     1       3.726   4.723  18.493  0.00  0.00    +0.000 N 
ATOM      7  C   UNL     1       4.112   4.749  17.071  0.00  0.00    +0.000 C 
ATOM      8  C   UNL     1       5.643   4.771  16.963  0.00  0.00    +0.000 C 
ENDROOT
BRANCH   6   9
ATOM      9  C   UNL     1       2.710   3.897  18.925  0.00  0.00    +0.000 A 
ATOM     10  C   UNL     1       1.858   3.280  17.990  0.00  0.00    +0.000 A 
ATOM     11  C   UNL     1       0.836   2.408  18.377  0.00  0.00    +0.000 A 
ATOM     12  C   UNL     1       0.637   2.134  19.721  0.00  0.00    +0.000 A 
ATOM     13  C   UNL     1       1.465   2.731  20.667  0.00  0.00    +0.000 A 
ATOM     14 CL   UNL     1       1.215   2.400  22.339  0.00  0.00    +0.000 Cl
ATOM     15  C   UNL     1       2.493   3.595  20.276  0.00  0.00    +0.000 A 
ENDBRANCH   6   9
BRANCH   2  16
ATOM     16  C   UNL     1       8.154   7.383  18.203  0.00  0.00    +0.000 C 
BRANCH  16  17
ATOM     17  C   UNL     1       7.952   8.869  17.895  0.00  0.00    +0.000 C 
BRANCH  17  18
ATOM     18  S   UNL     1       8.914   9.886  19.074  0.00  0.00    +0.000 S 
BRANCH  18  19
ATOM     19  C   UNL     1       9.975  10.783  17.892  0.00  0.00    +0.000 C 
BRANCH  19  20
ATOM     20  C   UNL     1      10.100  12.251  18.237  0.00  0.00    +0.000 A 
ATOM     21  C   UNL     1      11.254  12.698  18.910  0.00  0.00    +0.000 A 
ATOM     22  C   UNL     1      11.406  14.038  19.275  0.00  0.00    +0.000 A 
ATOM     23  C   UNL     1      10.410  14.961  18.976  0.00  0.00    +0.000 A 
ATOM     24  C   UNL     1       9.265  14.541  18.292  0.00  0.00    +0.000 A 
ATOM     25  C   UNL     1       9.117  13.200  17.918  0.00  0.00    +0.000 A 
ATOM     26 CL   UNL     1       7.681  12.777  17.053  0.00  0.00    +0.000 Cl
ENDBRANCH  19  20
ENDBRANCH  18  19
ENDBRANCH  17  18
ENDBRANCH  16  17
ENDBRANCH   2  16
TORSDOF 6
ENDMDL
MODEL 6
REMARK VINA RESULT:      -7.2      7.678     10.993
REMARK  Name = 
REMARK  6 active torsions:
REMARK  status: ('A' for Active; 'I' for Inactive)
REMARK    1  A    between atoms: C_2  and  C_3
REMARK    2  A    between atoms: C_3  and  C_4
REMARK    3  A    between atoms: C_4  and  S_5
REMARK    4  A    between atoms: S_5  and  C_6
REMARK    5  A    between atoms: C_6  and  C_7
REMARK    6  A    between atoms: N_17  and  C_18
REMARK                            x       y       z     vdW  Elec       q    Type
REMARK                         _______ _______ _______ _____ _____    ______ ____
ROOT
ATOM      1  O   UNL     1       2.169  11.672  18.188  0.00  0.00    +0.000 OA
ATOM      2  C   UNL     1       1.333  10.934  18.710  0.00  0.00    +0.000 C 
ATOM      3  N   UNL     1       0.522  11.364  19.748  0.00  0.00    +0.000 N 
ATOM      4  C   UNL     1      -0.521  10.563  20.423  0.00  0.00    +0.000 C 
ATOM      5  C   UNL     1      -0.631  10.885  21.936  0.00  0.00    +0.000 C 
ATOM      6  N   UNL     1      -0.751  12.340  22.113  0.00  0.00    +0.000 N 
ATOM      7  C   UNL     1       0.364  13.109  21.533  0.00  0.00    +0.000 C 
ATOM      8  C   UNL     1       0.459  12.809  20.031  0.00  0.00    +0.000 C 
ENDROOT
BRANCH   6   9
ATOM      9  C   UNL     1      -1.608  12.928  23.019  0.00  0.00    +0.000 A 
ATOM     10  C   UNL     1      -1.281  14.171  23.592  0.00  0.00    +0.000 A 
ATOM     11  C   UNL     1      -2.133  14.823  24.490  0.00  0.00    +0.000 A 
ATOM     12  C   UNL     1      -3.339  14.239  24.842  0.00  0.00    +0.000 A 
ATOM     13  C   UNL     1      -3.686  13.010  24.291  0.00  0.00    +0.000 A 
ATOM     14 CL   UNL     1      -5.181  12.276  24.733  0.00  0.00    +0.000 Cl
ATOM     15  C   UNL     1      -2.837  12.365  23.385  0.00  0.00    +0.000 A 
ENDBRANCH   6   9
BRANCH   2  16
ATOM     16  C   UNL     1       1.154   9.500  18.230  0.00  0.00    +0.000 C 
BRANCH  16  17
ATOM     17  C   UNL     1       2.004   8.525  19.048  0.00  0.00    +0.000 C 
BRANCH  17  18
ATOM     18  S   UNL     1       2.655   7.205  17.961  0.00  0.00    +0.000 S 
BRANCH  18  19
ATOM     19  C   UNL     1       3.160   5.998  19.233  0.00  0.00    +0.000 C 
BRANCH  19  20
ATOM     20  C   UNL     1       2.479   4.659  19.053  0.00  0.00    +0.000 A 
ATOM     21  C   UNL     1       1.431   4.303  19.924  0.00  0.00    +0.000 A 
ATOM     22  C   UNL     1       0.788   3.067  19.817  0.00  0.00    +0.000 A 
ATOM     23  C   UNL     1       1.177   2.160  18.837  0.00  0.00    +0.000 A 
ATOM     24  C   UNL     1       2.203   2.501  17.952  0.00  0.00    +0.000 A 
ATOM     25  C   UNL     1       2.841   3.744  18.052  0.00  0.00    +0.000 A 
ATOM     26 CL   UNL     1       4.080   4.090  16.898  0.00  0.00    +0.000 Cl
ENDBRANCH  19  20
ENDBRANCH  18  19
ENDBRANCH  17  18
ENDBRANCH  16  17
ENDBRANCH   2  16
TORSDOF 6
ENDMDL
MODEL 7
REMARK VINA RESULT:      -7.2      1.062      1.512
REMARK  Name = 
REMARK  6 active torsions:
REMARK  status: ('A' for Active; 'I' for Inactive)
REMARK    1  A    between atoms: C_2  and  C_3
REMARK    2  A    between atoms: C_3  and  C_4
REMARK    3  A    between atoms: C_4  and  S_5
REMARK    4  A    between atoms: S_5  and  C_6
REMARK    5  A    between atoms: C_6  and  C_7
REMARK    6  A    between atoms: N_17  and  C_18
REMARK                            x       y       z     vdW  Elec       q    Type
REMARK                         _______ _______ _______ _____ _____    ______ ____
ROOT
ATOM      1  O   UNL     1       7.730   6.482  16.139  0.00  0.00    +0.000 OA
ATOM      2  C   UNL     1       7.392   6.561  17.320  0.00  0.00    +0.000 C 
ATOM      3  N   UNL     1       6.287   5.884  17.812  0.00  0.00    +0.000 N 
ATOM      4  C   UNL     1       5.815   5.897  19.213  0.00  0.00    +0.000 C 
ATOM      5  C   UNL     1       4.269   5.842  19.319  0.00  0.00    +0.000 C 
ATOM      6  N   UNL     1       3.768   4.726  18.504  0.00  0.00    +0.000 N 
ATOM      7  C   UNL     1       4.154   4.799  17.084  0.00  0.00    +0.000 C 
ATOM      8  C   UNL     1       5.685   4.831  16.976  0.00  0.00    +0.000 C 
ENDROOT
BRANCH   6   9
ATOM      9  C   UNL     1       2.756   3.881  18.909  0.00  0.00    +0.000 A 
ATOM     10  C   UNL     1       1.963   3.222  17.951  0.00  0.00    +0.000 A 
ATOM     11  C   UNL     1       0.948   2.332  18.312  0.00  0.00    +0.000 A 
ATOM     12  C   UNL     1       0.696   2.080  19.651  0.00  0.00    +0.000 A 
ATOM     13  C   UNL     1       1.465   2.718  20.619  0.00  0.00    +0.000 A 
ATOM     14 CL   UNL     1       1.150   2.416  22.286  0.00  0.00    +0.000 Cl
ATOM     15  C   UNL     1       2.487   3.602  20.255  0.00  0.00    +0.000 A 
ENDBRANCH   6   9
BRANCH   2  16
ATOM     16  C   UNL     1       8.185   7.413  18.301  0.00  0.00    +0.000 C 
BRANCH  16  17
ATOM     17  C   UNL     1       8.169   8.890  17.900  0.00  0.00    +0.000 C 
BRANCH  17  18
ATOM     18  S   UNL     1       9.157   9.869  19.089  0.00  0.00    +0.000 S 
BRANCH  18  19
ATOM     19  C   UNL     1       8.925  11.529  18.369  0.00  0.00    +0.000 C 
BRANCH  19  20
ATOM     20  C   UNL     1       9.627  12.603  19.171  0.00  0.00    +0.000 A 
ATOM     21  C   UNL     1       8.954  13.194  20.258  0.00  0.00    +0.000 A 
ATOM     22  C   UNL     1       9.547  14.208  21.014  0.00  0.00    +0.000 A 
ATOM     23  C   UNL     1      10.827  14.655  20.701  0.00  0.00    +0.000 A 
ATOM     24  C   UNL     1      11.519  14.069  19.637  0.00  0.00    +0.000 A 
ATOM     25  C   UNL     1      10.928  13.046  18.886  0.00  0.00    +0.000 A 
ATOM     26 CL   UNL     1      11.867  12.363  17.606  0.00  0.00    +0.000 Cl
ENDBRANCH  19  20
ENDBRANCH  18  19
ENDBRANCH  17  18
ENDBRANCH  16  17
ENDBRANCH   2  16
TORSDOF 6
ENDMDL
MODEL 8
REMARK VINA RESULT:      -7.1      7.017      9.103
REMARK  Name = 
REMARK  6 active torsions:
REMARK  status: ('A' for Active; 'I' for Inactive)
REMARK    1  A    between atoms: C_2  and  C_3
REMARK    2  A    between atoms: C_3  and  C_4
REMARK    3  A    between atoms: C_4  and  S_5
REMARK    4  A    between atoms: S_5  and  C_6
REMARK    5  A    between atoms: C_6  and  C_7
REMARK    6  A    between atoms: N_17  and  C_18
REMARK                            x       y       z     vdW  Elec       q    Type
REMARK                         _______ _______ _______ _____ _____    ______ ____
ROOT
ATOM      1  O   UNL     1       2.525  10.137  17.479  0.00  0.00    +0.000 OA
ATOM      2  C   UNL     1       1.762   9.544  18.241  0.00  0.00    +0.000 C 
ATOM      3  N   UNL     1       1.057  10.206  19.235  0.00  0.00    +0.000 N 
ATOM      4  C   UNL     1       0.105   9.588  20.182  0.00  0.00    +0.000 C 
ATOM      5  C   UNL     1       0.150  10.248  21.585  0.00  0.00    +0.000 C 
ATOM      6  N   UNL     1       0.023  11.705  21.436  0.00  0.00    +0.000 N 
ATOM      7  C   UNL     1       1.057  12.314  20.581  0.00  0.00    +0.000 C 
ATOM      8  C   UNL     1       0.999  11.677  19.186  0.00  0.00    +0.000 C 
ENDROOT
BRANCH   6   9
ATOM      9  C   UNL     1      -0.744  12.491  22.271  0.00  0.00    +0.000 A 
ATOM     10  C   UNL     1      -0.377  13.828  22.512  0.00  0.00    +0.000 A 
ATOM     11  C   UNL     1      -1.140  14.674  23.322  0.00  0.00    +0.000 A 
ATOM     12  C   UNL     1      -2.295  14.197  23.921  0.00  0.00    +0.000 A 
ATOM     13  C   UNL     1      -2.681  12.878  23.699  0.00  0.00    +0.000 A 
ATOM     14 CL   UNL     1      -4.111  12.277  24.449  0.00  0.00    +0.000 Cl
ATOM     15  C   UNL     1      -1.920  12.037  22.880  0.00  0.00    +0.000 A 
ENDBRANCH   6   9
BRANCH   2  16
ATOM     16  C   UNL     1       1.558   8.040  18.123  0.00  0.00    +0.000 C 
BRANCH  16  17
ATOM     17  C   UNL     1       2.876   7.280  18.295  0.00  0.00    +0.000 C 
BRANCH  17  18
ATOM     18  S   UNL     1       2.537   5.516  18.642  0.00  0.00    +0.000 S 
BRANCH  18  19
ATOM     19  C   UNL     1       3.820   4.756  17.591  0.00  0.00    +0.000 C 
BRANCH  19  20
ATOM     20  C   UNL     1       5.194   5.329  17.862  0.00  0.00    +0.000 A 
ATOM     21  C   UNL     1       5.822   5.044  19.091  0.00  0.00    +0.000 A 
ATOM     22  C   UNL     1       7.078   5.571  19.401  0.00  0.00    +0.000 A 
ATOM     23  C   UNL     1       7.736   6.393  18.492  0.00  0.00    +0.000 A 
ATOM     24  C   UNL     1       7.137   6.673  17.260  0.00  0.00    +0.000 A 
ATOM     25  C   UNL     1       5.882   6.138  16.945  0.00  0.00    +0.000 A 
ATOM     26 CL   UNL     1       5.232   6.517  15.389  0.00  0.00    +0.000 Cl
ENDBRANCH  19  20
ENDBRANCH  18  19
ENDBRANCH  17  18
ENDBRANCH  16  17
ENDBRANCH   2  16
TORSDOF 6
ENDMDL
MODEL 9
REMARK VINA RESULT:      -7.1      6.220      8.864
REMARK  Name = 
REMARK  6 active torsions:
REMARK  status: ('A' for Active; 'I' for Inactive)
REMARK    1  A    between atoms: C_2  and  C_3
REMARK    2  A    between atoms: C_3  and  C_4
REMARK    3  A    between atoms: C_4  and  S_5
REMARK    4  A    between atoms: S_5  and  C_6
REMARK    5  A    between atoms: C_6  and  C_7
REMARK    6  A    between atoms: N_17  and  C_18
REMARK                            x       y       z     vdW  Elec       q    Type
REMARK                         _______ _______ _______ _____ _____    ______ ____
ROOT
ATOM      1  O   UNL     1       2.900   4.956  20.192  0.00  0.00    +0.000 OA
ATOM      2  C   UNL     1       3.048   5.870  19.381  0.00  0.00    +0.000 C 
ATOM      3  N   UNL     1       3.705   5.680  18.175  0.00  0.00    +0.000 N 
ATOM      4  C   UNL     1       3.915   6.705  17.130  0.00  0.00    +0.000 C 
ATOM      5  C   UNL     1       5.276   6.545  16.406  0.00  0.00    +0.000 C 
ATOM      6  N   UNL     1       5.421   5.154  15.952  0.00  0.00    +0.000 N 
ATOM      7  C   UNL     1       5.326   4.157  17.032  0.00  0.00    +0.000 C 
ATOM      8  C   UNL     1       3.970   4.299  17.735  0.00  0.00    +0.000 C 
ENDROOT
BRANCH   6   9
ATOM      9  C   UNL     1       5.941   4.805  14.723  0.00  0.00    +0.000 A 
ATOM     10  C   UNL     1       7.204   5.287  14.331  0.00  0.00    +0.000 A 
ATOM     11  C   UNL     1       7.789   4.934  13.111  0.00  0.00    +0.000 A 
ATOM     12  C   UNL     1       7.115   4.087  12.244  0.00  0.00    +0.000 A 
ATOM     13  C   UNL     1       5.865   3.597  12.607  0.00  0.00    +0.000 A 
ATOM     14 CL   UNL     1       5.020   2.552  11.528  0.00  0.00    +0.000 Cl
ATOM     15  C   UNL     1       5.287   3.944  13.833  0.00  0.00    +0.000 A 
ENDBRANCH   6   9
BRANCH   2  16
ATOM     16  C   UNL     1       2.509   7.264  19.671  0.00  0.00    +0.000 C 
BRANCH  16  17
ATOM     17  C   UNL     1       1.403   7.228  20.729  0.00  0.00    +0.000 C 
BRANCH  17  18
ATOM     18  S   UNL     1       1.009   8.929  21.276  0.00  0.00    +0.000 S 
BRANCH  18  19
ATOM     19  C   UNL     1       0.587   9.668  19.663  0.00  0.00    +0.000 C 
BRANCH  19  20
ATOM     20  C   UNL     1      -0.530  10.682  19.774  0.00  0.00    +0.000 A 
ATOM     21  C   UNL     1      -0.595  11.506  20.915  0.00  0.00    +0.000 A 
ATOM     22  C   UNL     1      -1.621  12.439  21.078  0.00  0.00    +0.000 A 
ATOM     23  C   UNL     1      -2.607  12.571  20.105  0.00  0.00    +0.000 A 
ATOM     24  C   UNL     1      -2.551  11.775  18.957  0.00  0.00    +0.000 A 
ATOM     25  C   UNL     1      -1.517  10.847  18.789  0.00  0.00    +0.000 A 
ATOM     26 CL   UNL     1      -1.514   9.925  17.327  0.00  0.00    +0.000 Cl
ENDBRANCH  19  20
ENDBRANCH  18  19
ENDBRANCH  17  18
ENDBRANCH  16  17
ENDBRANCH   2  16
TORSDOF 6
ENDMDL
