MODEL 1
REMARK VINA RESULT:      -7.0      0.000      0.000
REMARK  Name = 
REMARK  2 active torsions:
REMARK  status: ('A' for Active; 'I' for Inactive)
REMARK    1  A    between atoms: N_5  and  C_6
REMARK    2  A    between atoms: N_15  and  C_16
REMARK                            x       y       z     vdW  Elec       q    Type
REMARK                         _______ _______ _______ _____ _____    ______ ____
ROOT
ATOM      1  O   UNL     1      -6.389  16.733  21.542  0.00  0.00    +0.000 OA
ATOM      2  C   UNL     1      -6.791  15.703  21.052  0.00  0.00    +0.000 C 
ATOM      3  N   UNL     1      -7.551  15.626  19.909  0.00  0.00    +0.000 N 
ATOM      4  C   UNL     1      -7.866  14.299  19.494  0.00  0.00    +0.000 C 
ATOM      5  N   UNL     1      -7.541  13.457  20.654  0.00  0.00    +0.000 N 
ATOM      6  C   UNL     1      -6.525  14.245  21.505  0.00  0.00    +0.000 C 
ATOM      7  C   UNL     1      -5.125  13.926  21.061  0.00  0.00    +0.000 C 
ATOM      8  C   UNL     1      -4.728  12.658  21.811  0.00  0.00    +0.000 C 
ATOM      9  N   UNL     1      -4.196  12.945  23.146  0.00  0.00    +0.000 NA
ATOM     10  C   UNL     1      -5.429  13.437  23.839  0.00  0.00    +0.000 C 
ATOM     11  C   UNL     1      -6.606  14.168  23.055  0.00  0.00    +0.000 C 
ATOM     12  H   UNL     1      -7.720  16.452  19.355  0.00  0.00    +0.000 HD
ENDROOT
BRANCH   9  13
ATOM     13  C   UNL     1      -2.934  13.772  22.997  0.00  0.00    +0.000 C 
ATOM     14  C   UNL     1      -2.646  15.016  23.880  0.00  0.00    +0.000 A 
ATOM     15  C   UNL     1      -3.666  15.762  24.475  0.00  0.00    +0.000 A 
ATOM     16  C   UNL     1      -3.401  16.971  25.128  0.00  0.00    +0.000 A 
ATOM     17  C   UNL     1      -2.095  17.424  25.268  0.00  0.00    +0.000 A 
ATOM     18  C   UNL     1      -1.059  16.729  24.661  0.00  0.00    +0.000 A 
ATOM     19  C   UNL     1      -1.336  15.592  23.894  0.00  0.00    +0.000 A 
ATOM     20  C   UNL     1      -0.209  15.045  23.091  0.00  0.00    +0.000 C 
ATOM     21  C   UNL     1      -0.485  14.714  21.806  0.00  0.00    +0.000 C 
ATOM     22  C   UNL     1      -0.772  13.272  21.746  0.00  0.00    +0.000 A 
ATOM     23  C   UNL     1      -0.164  12.357  20.896  0.00  0.00    +0.000 A 
ATOM     24  C   UNL     1      -0.251  10.998  21.196  0.00  0.00    +0.000 A 
ATOM     25  C   UNL     1      -0.795  10.599  22.419  0.00  0.00    +0.000 A 
ATOM     26  C   UNL     1      -1.460  11.535  23.239  0.00  0.00    +0.000 A 
ATOM     27  C   UNL     1      -1.661  12.831  22.748  0.00  0.00    +0.000 A 
ENDBRANCH   9  13
BRANCH   5  28
ATOM     28  C   UNL     1      -7.228  12.109  20.324  0.00  0.00    +0.000 A 
ATOM     29  C   UNL     1      -7.612  10.991  21.102  0.00  0.00    +0.000 A 
ATOM     30  C   UNL     1      -7.586   9.684  20.588  0.00  0.00    +0.000 A 
ATOM     31  C   UNL     1      -7.166   9.458  19.285  0.00  0.00    +0.000 A 
ATOM     32  C   UNL     1      -6.704  10.528  18.523  0.00  0.00    +0.000 A 
ATOM     33  C   UNL     1      -6.695  11.832  19.052  0.00  0.00    +0.000 A 
ENDBRANCH   5  28
TORSDOF 2
ENDMDL
MODEL 2
REMARK VINA RESULT:      -6.9      1.254      1.334
REMARK  Name = 
REMARK  2 active torsions:
REMARK  status: ('A' for Active; 'I' for Inactive)
REMARK    1  A    between atoms: N_5  and  C_6
REMARK    2  A    between atoms: N_15  and  C_16
REMARK                            x       y       z     vdW  Elec       q    Type
REMARK                         _______ _______ _______ _____ _____    ______ ____
ROOT
ATOM      1  O   UNL     1      -5.846  16.318  19.701  0.00  0.00    +0.000 OA
ATOM      2  C   UNL     1      -6.383  15.239  19.596  0.00  0.00    +0.000 C 
ATOM      3  N   UNL     1      -7.191  14.867  18.547  0.00  0.00    +0.000 N 
ATOM      4  C   UNL     1      -7.671  13.527  18.614  0.00  0.00    +0.000 C 
ATOM      5  N   UNL     1      -7.401  13.101  19.995  0.00  0.00    +0.000 N 
ATOM      6  C   UNL     1      -6.268  14.003  20.524  0.00  0.00    +0.000 C 
ATOM      7  C   UNL     1      -4.933  13.385  20.223  0.00  0.00    +0.000 C 
ATOM      8  C   UNL     1      -4.655  12.413  21.365  0.00  0.00    +0.000 C 
ATOM      9  N   UNL     1      -4.042  13.073  22.521  0.00  0.00    +0.000 NA
ATOM     10  C   UNL     1      -5.183  13.919  22.997  0.00  0.00    +0.000 C 
ATOM     11  C   UNL     1      -6.298  14.473  22.005  0.00  0.00    +0.000 C 
ATOM     12  H   UNL     1      -7.285  15.467  17.741  0.00  0.00    +0.000 HD
ENDROOT
BRANCH   9  13
ATOM     13  C   UNL     1      -2.700  13.640  22.100  0.00  0.00    +0.000 C 
ATOM     14  C   UNL     1      -2.285  15.106  22.398  0.00  0.00    +0.000 A 
ATOM     15  C   UNL     1      -3.223  16.125  22.583  0.00  0.00    +0.000 A 
ATOM     16  C   UNL     1      -2.835  17.465  22.686  0.00  0.00    +0.000 A 
ATOM     17  C   UNL     1      -1.489  17.811  22.685  0.00  0.00    +0.000 A 
ATOM     18  C   UNL     1      -0.530  16.831  22.470  0.00  0.00    +0.000 A 
ATOM     19  C   UNL     1      -0.923  15.509  22.232  0.00  0.00    +0.000 A 
ATOM     20  C   UNL     1       0.142  14.573  21.781  0.00  0.00    +0.000 C 
ATOM     21  C   UNL     1      -0.164  13.764  20.738  0.00  0.00    +0.000 C 
ATOM     22  C   UNL     1      -0.600  12.462  21.270  0.00  0.00    +0.000 A 
ATOM     23  C   UNL     1      -0.088  11.223  20.905  0.00  0.00    +0.000 A 
ATOM     24  C   UNL     1      -0.318  10.129  21.738  0.00  0.00    +0.000 A 
ATOM     25  C   UNL     1      -0.903  10.330  22.990  0.00  0.00    +0.000 A 
ATOM     26  C   UNL     1      -1.469  11.581  23.316  0.00  0.00    +0.000 A 
ATOM     27  C   UNL     1      -1.532  12.566  22.323  0.00  0.00    +0.000 A 
ENDBRANCH   9  13
BRANCH   5  28
ATOM     28  C   UNL     1      -7.257  11.694  20.151  0.00  0.00    +0.000 A 
ATOM     29  C   UNL     1      -7.780  10.958  21.241  0.00  0.00    +0.000 A 
ATOM     30  C   UNL     1      -7.916   9.561  21.197  0.00  0.00    +0.000 A 
ATOM     31  C   UNL     1      -7.523   8.860  20.066  0.00  0.00    +0.000 A 
ATOM     32  C   UNL     1      -6.929   9.547  19.010  0.00  0.00    +0.000 A 
ATOM     33  C   UNL     1      -6.759  10.943  19.071  0.00  0.00    +0.000 A 
ENDBRANCH   5  28
TORSDOF 2
ENDMDL
MODEL 3
REMARK VINA RESULT:      -6.9     11.198     13.836
REMARK  Name = 
REMARK  2 active torsions:
REMARK  status: ('A' for Active; 'I' for Inactive)
REMARK    1  A    between atoms: N_5  and  C_6
REMARK    2  A    between atoms: N_15  and  C_16
REMARK                            x       y       z     vdW  Elec       q    Type
REMARK                         _______ _______ _______ _____ _____    ______ ____
ROOT
ATOM      1  O   UNL     1       8.750  18.445  18.518  0.00  0.00    +0.000 OA
ATOM      2  C   UNL     1       9.509  17.562  18.188  0.00  0.00    +0.000 C 
ATOM      3  N   UNL     1      10.757  17.766  17.650  0.00  0.00    +0.000 N 
ATOM      4  C   UNL     1      11.492  16.574  17.386  0.00  0.00    +0.000 C 
ATOM      5  N   UNL     1      10.497  15.495  17.471  0.00  0.00    +0.000 N 
ATOM      6  C   UNL     1       9.335  16.029  18.333  0.00  0.00    +0.000 C 
ATOM      7  C   UNL     1       9.585  15.721  19.782  0.00  0.00    +0.000 C 
ATOM      8  C   UNL     1       9.063  14.306  20.004  0.00  0.00    +0.000 C 
ATOM      9  N   UNL     1       7.625  14.281  20.289  0.00  0.00    +0.000 NA
ATOM     10  C   UNL     1       7.070  14.697  18.961  0.00  0.00    +0.000 C 
ATOM     11  C   UNL     1       7.875  15.644  17.966  0.00  0.00    +0.000 C 
ATOM     12  H   UNL     1      11.145  18.697  17.605  0.00  0.00    +0.000 HD
ENDROOT
BRANCH   9  13
ATOM     13  C   UNL     1       7.373  15.042  21.576  0.00  0.00    +0.000 C 
ATOM     14  C   UNL     1       6.417  16.263  21.647  0.00  0.00    +0.000 A 
ATOM     15  C   UNL     1       6.136  17.058  20.533  0.00  0.00    +0.000 A 
ATOM     16  C   UNL     1       5.407  18.247  20.648  0.00  0.00    +0.000 A 
ATOM     17  C   UNL     1       4.875  18.630  21.873  0.00  0.00    +0.000 A 
ATOM     18  C   UNL     1       5.161  17.885  23.009  0.00  0.00    +0.000 A 
ATOM     19  C   UNL     1       6.001  16.769  22.919  0.00  0.00    +0.000 A 
ATOM     20  C   UNL     1       6.444  16.169  24.206  0.00  0.00    +0.000 C 
ATOM     21  C   UNL     1       7.760  15.862  24.311  0.00  0.00    +0.000 C 
ATOM     22  C   UNL     1       7.934  14.437  23.986  0.00  0.00    +0.000 A 
ATOM     23  C   UNL     1       8.585  13.498  24.776  0.00  0.00    +0.000 A 
ATOM     24  C   UNL     1       8.354  12.143  24.538  0.00  0.00    +0.000 A 
ATOM     25  C   UNL     1       7.358  11.764  23.635  0.00  0.00    +0.000 A 
ATOM     26  C   UNL     1       6.752  12.729  22.801  0.00  0.00    +0.000 A 
ATOM     27  C   UNL     1       7.252  14.037  22.819  0.00  0.00    +0.000 A 
ENDBRANCH   9  13
BRANCH   5  28
ATOM     28  C   UNL     1      11.045  14.225  17.808  0.00  0.00    +0.000 A 
ATOM     29  C   UNL     1      12.058  14.029  18.777  0.00  0.00    +0.000 A 
ATOM     30  C   UNL     1      12.332  12.764  19.320  0.00  0.00    +0.000 A 
ATOM     31  C   UNL     1      11.606  11.657  18.903  0.00  0.00    +0.000 A 
ATOM     32  C   UNL     1      10.659  11.805  17.892  0.00  0.00    +0.000 A 
ATOM     33  C   UNL     1      10.413  13.067  17.321  0.00  0.00    +0.000 A 
ENDBRANCH   5  28
TORSDOF 2
ENDMDL
MODEL 4
REMARK VINA RESULT:      -6.6      2.811      7.409
REMARK  Name = 
REMARK  2 active torsions:
REMARK  status: ('A' for Active; 'I' for Inactive)
REMARK    1  A    between atoms: N_5  and  C_6
REMARK    2  A    between atoms: N_15  and  C_16
REMARK                            x       y       z     vdW  Elec       q    Type
REMARK                         _______ _______ _______ _____ _____    ______ ____
ROOT
ATOM      1  O   UNL     1      -0.248  15.213  18.587  0.00  0.00    +0.000 OA
ATOM      2  C   UNL     1      -0.434  15.630  19.707  0.00  0.00    +0.000 C 
ATOM      3  N   UNL     1      -0.105  16.894  20.135  0.00  0.00    +0.000 N 
ATOM      4  C   UNL     1      -0.465  17.177  21.484  0.00  0.00    +0.000 C 
ATOM      5  N   UNL     1      -0.769  15.865  22.073  0.00  0.00    +0.000 N 
ATOM      6  C   UNL     1      -1.121  14.924  20.904  0.00  0.00    +0.000 C 
ATOM      7  C   UNL     1      -2.596  14.981  20.623  0.00  0.00    +0.000 C 
ATOM      8  C   UNL     1      -3.243  13.987  21.582  0.00  0.00    +0.000 C 
ATOM      9  N   UNL     1      -3.236  12.619  21.053  0.00  0.00    +0.000 NA
ATOM     10  C   UNL     1      -1.772  12.309  21.098  0.00  0.00    +0.000 C 
ATOM     11  C   UNL     1      -0.662  13.441  20.954  0.00  0.00    +0.000 C 
ATOM     12  H   UNL     1       0.220  17.585  19.474  0.00  0.00    +0.000 HD
ENDROOT
BRANCH   9  13
ATOM     13  C   UNL     1      -4.059  12.589  19.779  0.00  0.00    +0.000 C 
ATOM     14  C   UNL     1      -3.651  11.740  18.545  0.00  0.00    +0.000 A 
ATOM     15  C   UNL     1      -2.325  11.376  18.294  0.00  0.00    +0.000 A 
ATOM     16  C   UNL     1      -1.952  10.754  17.097  0.00  0.00    +0.000 A 
ATOM     17  C   UNL     1      -2.913  10.412  16.153  0.00  0.00    +0.000 A 
ATOM     18  C   UNL     1      -4.234  10.787  16.351  0.00  0.00    +0.000 A 
ATOM     19  C   UNL     1      -4.587  11.527  17.485  0.00  0.00    +0.000 A 
ATOM     20  C   UNL     1      -5.966  12.087  17.507  0.00  0.00    +0.000 C 
ATOM     21  C   UNL     1      -6.088  13.380  17.893  0.00  0.00    +0.000 C 
ATOM     22  C   UNL     1      -6.427  13.409  19.325  0.00  0.00    +0.000 A 
ATOM     23  C   UNL     1      -7.499  14.088  19.892  0.00  0.00    +0.000 A 
ATOM     24  C   UNL     1      -7.916  13.733  21.174  0.00  0.00    +0.000 A 
ATOM     25  C   UNL     1      -7.367  12.604  21.788  0.00  0.00    +0.000 A 
ATOM     26  C   UNL     1      -6.241  11.967  21.223  0.00  0.00    +0.000 A 
ATOM     27  C   UNL     1      -5.626  12.557  20.112  0.00  0.00    +0.000 A 
ENDBRANCH   9  13
BRANCH   5  28
ATOM     28  C   UNL     1      -1.666  15.917  23.177  0.00  0.00    +0.000 A 
ATOM     29  C   UNL     1      -1.651  15.002  24.256  0.00  0.00    +0.000 A 
ATOM     30  C   UNL     1      -2.306  15.272  25.469  0.00  0.00    +0.000 A 
ATOM     31  C   UNL     1      -3.001  16.462  25.633  0.00  0.00    +0.000 A 
ATOM     32  C   UNL     1      -3.102  17.345  24.561  0.00  0.00    +0.000 A 
ATOM     33  C   UNL     1      -2.477  17.056  23.334  0.00  0.00    +0.000 A 
ENDBRANCH   5  28
TORSDOF 2
ENDMDL
MODEL 5
REMARK VINA RESULT:      -6.6      2.455      5.818
REMARK  Name = 
REMARK  2 active torsions:
REMARK  status: ('A' for Active; 'I' for Inactive)
REMARK    1  A    between atoms: N_5  and  C_6
REMARK    2  A    between atoms: N_15  and  C_16
REMARK                            x       y       z     vdW  Elec       q    Type
REMARK                         _______ _______ _______ _____ _____    ______ ____
ROOT
ATOM      1  O   UNL     1      -7.248  11.104  22.053  0.00  0.00    +0.000 OA
ATOM      2  C   UNL     1      -7.327  12.228  22.492  0.00  0.00    +0.000 C 
ATOM      3  N   UNL     1      -7.916  12.560  23.689  0.00  0.00    +0.000 N 
ATOM      4  C   UNL     1      -7.844  13.943  24.023  0.00  0.00    +0.000 C 
ATOM      5  N   UNL     1      -7.448  14.610  22.774  0.00  0.00    +0.000 N 
ATOM      6  C   UNL     1      -6.756  13.543  21.901  0.00  0.00    +0.000 C 
ATOM      7  C   UNL     1      -5.282  13.518  22.189  0.00  0.00    +0.000 C 
ATOM      8  C   UNL     1      -4.666  14.599  21.308  0.00  0.00    +0.000 C 
ATOM      9  N   UNL     1      -4.369  14.113  19.957  0.00  0.00    +0.000 NA
ATOM     10  C   UNL     1      -5.753  13.915  19.421  0.00  0.00    +0.000 C 
ATOM     11  C   UNL     1      -6.983  13.552  20.364  0.00  0.00    +0.000 C 
ATOM     12  H   UNL     1      -8.224  11.836  24.321  0.00  0.00    +0.000 HD
ENDROOT
BRANCH   9  13
ATOM     13  C   UNL     1      -3.343  13.001  20.057  0.00  0.00    +0.000 C 
ATOM     14  C   UNL     1      -3.133  11.958  18.926  0.00  0.00    +0.000 A 
ATOM     15  C   UNL     1      -4.141  11.629  18.017  0.00  0.00    +0.000 A 
ATOM     16  C   UNL     1      -3.991  10.574  17.110  0.00  0.00    +0.000 A 
ATOM     17  C   UNL     1      -2.795   9.870  17.040  0.00  0.00    +0.000 A 
ATOM     18  C   UNL     1      -1.783  10.145  17.950  0.00  0.00    +0.000 A 
ATOM     19  C   UNL     1      -1.981  11.110  18.944  0.00  0.00    +0.000 A 
ATOM     20  C   UNL     1      -0.949  11.179  20.014  0.00  0.00    +0.000 C 
ATOM     21  C   UNL     1      -1.402  11.263  21.288  0.00  0.00    +0.000 C 
ATOM     22  C   UNL     1      -1.413  12.680  21.687  0.00  0.00    +0.000 A 
ATOM     23  C   UNL     1      -0.818  13.206  22.827  0.00  0.00    +0.000 A 
ATOM     24  C   UNL     1      -0.582  14.579  22.889  0.00  0.00    +0.000 A 
ATOM     25  C   UNL     1      -0.789  15.364  21.752  0.00  0.00    +0.000 A 
ATOM     26  C   UNL     1      -1.449  14.822  20.627  0.00  0.00    +0.000 A 
ATOM     27  C   UNL     1      -1.986  13.533  20.724  0.00  0.00    +0.000 A 
ENDBRANCH   9  13
BRANCH   5  28
ATOM     28  C   UNL     1      -6.775  15.849  22.965  0.00  0.00    +0.000 A 
ATOM     29  C   UNL     1      -6.959  16.987  22.144  0.00  0.00    +0.000 A 
ATOM     30  C   UNL     1      -6.552  18.269  22.548  0.00  0.00    +0.000 A 
ATOM     31  C   UNL     1      -5.942  18.447  23.782  0.00  0.00    +0.000 A 
ATOM     32  C   UNL     1      -5.675  17.335  24.577  0.00  0.00    +0.000 A 
ATOM     33  C   UNL     1      -6.049  16.046  24.153  0.00  0.00    +0.000 A 
ENDBRANCH   5  28
TORSDOF 2
ENDMDL
MODEL 6
REMARK VINA RESULT:      -6.5      4.724      8.652
REMARK  Name = 
REMARK  2 active torsions:
REMARK  status: ('A' for Active; 'I' for Inactive)
REMARK    1  A    between atoms: N_5  and  C_6
REMARK    2  A    between atoms: N_15  and  C_16
REMARK                            x       y       z     vdW  Elec       q    Type
REMARK                         _______ _______ _______ _____ _____    ______ ____
ROOT
ATOM      1  O   UNL     1       1.249  16.134  23.320  0.00  0.00    +0.000 OA
ATOM      2  C   UNL     1       2.250  16.193  22.643  0.00  0.00    +0.000 C 
ATOM      3  N   UNL     1       3.429  16.777  23.041  0.00  0.00    +0.000 N 
ATOM      4  C   UNL     1       4.489  16.680  22.093  0.00  0.00    +0.000 C 
ATOM      5  N   UNL     1       3.835  16.270  20.842  0.00  0.00    +0.000 N 
ATOM      6  C   UNL     1       2.505  15.598  21.235  0.00  0.00    +0.000 C 
ATOM      7  C   UNL     1       2.714  14.125  21.442  0.00  0.00    +0.000 C 
ATOM      8  C   UNL     1       2.596  13.488  20.061  0.00  0.00    +0.000 C 
ATOM      9  N   UNL     1       1.205  13.198  19.699  0.00  0.00    +0.000 NA
ATOM     10  C   UNL     1       0.664  14.585  19.536  0.00  0.00    +0.000 C 
ATOM     11  C   UNL     1       1.247  15.822  20.350  0.00  0.00    +0.000 C 
ATOM     12  H   UNL     1       3.541  17.099  23.991  0.00  0.00    +0.000 HD
ENDROOT
BRANCH   9  13
ATOM     13  C   UNL     1       0.646  12.193  20.688  0.00  0.00    +0.000 C 
ATOM     14  C   UNL     1      -0.522  12.535  21.651  0.00  0.00    +0.000 A 
ATOM     15  C   UNL     1      -0.796  13.843  22.058  0.00  0.00    +0.000 A 
ATOM     16  C   UNL     1      -1.743  14.116  23.051  0.00  0.00    +0.000 A 
ATOM     17  C   UNL     1      -2.496  13.089  23.607  0.00  0.00    +0.000 A 
ATOM     18  C   UNL     1      -2.229  11.774  23.253  0.00  0.00    +0.000 A 
ATOM     19  C   UNL     1      -1.191  11.488  22.360  0.00  0.00    +0.000 A 
ATOM     20  C   UNL     1      -0.818  10.055  22.215  0.00  0.00    +0.000 C 
ATOM     21  C   UNL     1       0.506   9.767  22.236  0.00  0.00    +0.000 C 
ATOM     22  C   UNL     1       0.985   9.674  20.848  0.00  0.00    +0.000 A 
ATOM     23  C   UNL     1       1.690   8.608  20.303  0.00  0.00    +0.000 A 
ATOM     24  C   UNL     1       1.751   8.482  18.915  0.00  0.00    +0.000 A 
ATOM     25  C   UNL     1       0.972   9.320  18.114  0.00  0.00    +0.000 A 
ATOM     26  C   UNL     1       0.313  10.432  18.682  0.00  0.00    +0.000 A 
ATOM     27  C   UNL     1       0.552  10.735  20.028  0.00  0.00    +0.000 A 
ENDBRANCH   9  13
BRANCH   5  28
ATOM     28  C   UNL     1       4.690  15.575  19.940  0.00  0.00    +0.000 A 
ATOM     29  C   UNL     1       4.479  15.502  18.543  0.00  0.00    +0.000 A 
ATOM     30  C   UNL     1       5.496  15.109  17.658  0.00  0.00    +0.000 A 
ATOM     31  C   UNL     1       6.751  14.771  18.147  0.00  0.00    +0.000 A 
ATOM     32  C   UNL     1       6.964  14.754  19.523  0.00  0.00    +0.000 A 
ATOM     33  C   UNL     1       5.932  15.112  20.411  0.00  0.00    +0.000 A 
ENDBRANCH   5  28
TORSDOF 2
ENDMDL
MODEL 7
REMARK VINA RESULT:      -6.5      2.645      6.773
REMARK  Name = 
REMARK  2 active torsions:
REMARK  status: ('A' for Active; 'I' for Inactive)
REMARK    1  A    between atoms: N_5  and  C_6
REMARK    2  A    between atoms: N_15  and  C_16
REMARK                            x       y       z     vdW  Elec       q    Type
REMARK                         _______ _______ _______ _____ _____    ______ ____
ROOT
ATOM      1  O   UNL     1      -4.461  11.912  24.047  0.00  0.00    +0.000 OA
ATOM      2  C   UNL     1      -3.977  12.982  24.336  0.00  0.00    +0.000 C 
ATOM      3  N   UNL     1      -3.646  13.373  25.612  0.00  0.00    +0.000 N 
ATOM      4  C   UNL     1      -3.043  14.660  25.701  0.00  0.00    +0.000 C 
ATOM      5  N   UNL     1      -3.297  15.285  24.395  0.00  0.00    +0.000 N 
ATOM      6  C   UNL     1      -3.547  14.138  23.396  0.00  0.00    +0.000 C 
ATOM      7  C   UNL     1      -2.250  13.702  22.776  0.00  0.00    +0.000 C 
ATOM      8  C   UNL     1      -2.014  14.641  21.597  0.00  0.00    +0.000 C 
ATOM      9  N   UNL     1      -2.699  14.191  20.382  0.00  0.00    +0.000 NA
ATOM     10  C   UNL     1      -4.129  14.405  20.771  0.00  0.00    +0.000 C 
ATOM     11  C   UNL     1      -4.617  14.316  22.284  0.00  0.00    +0.000 C 
ATOM     12  H   UNL     1      -3.700  12.713  26.374  0.00  0.00    +0.000 HD
ENDROOT
BRANCH   9  13
ATOM     13  C   UNL     1      -2.134  12.842  19.979  0.00  0.00    +0.000 C 
ATOM     14  C   UNL     1      -2.883  11.880  19.018  0.00  0.00    +0.000 A 
ATOM     15  C   UNL     1      -4.272  11.907  18.866  0.00  0.00    +0.000 A 
ATOM     16  C   UNL     1      -4.945  10.930  18.125  0.00  0.00    +0.000 A 
ATOM     17  C   UNL     1      -4.234   9.943  17.452  0.00  0.00    +0.000 A 
ATOM     18  C   UNL     1      -2.858   9.862  17.607  0.00  0.00    +0.000 A 
ATOM     19  C   UNL     1      -2.197  10.758  18.455  0.00  0.00    +0.000 A 
ATOM     20  C   UNL     1      -0.768  10.461  18.748  0.00  0.00    +0.000 C 
ATOM     21  C   UNL     1      -0.383  10.555  20.043  0.00  0.00    +0.000 C 
ATOM     22  C   UNL     1       0.209  11.885  20.259  0.00  0.00    +0.000 A 
ATOM     23  C   UNL     1       1.456  12.137  20.817  0.00  0.00    +0.000 A 
ATOM     24  C   UNL     1       2.040  13.389  20.620  0.00  0.00    +0.000 A 
ATOM     25  C   UNL     1       1.446  14.292  19.736  0.00  0.00    +0.000 A 
ATOM     26  C   UNL     1       0.152  14.042  19.229  0.00  0.00    +0.000 A 
ATOM     27  C   UNL     1      -0.556  12.938  19.719  0.00  0.00    +0.000 A 
ENDBRANCH   9  13
BRANCH   5  28
ATOM     28  C   UNL     1      -2.350  16.285  24.035  0.00  0.00    +0.000 A 
ATOM     29  C   UNL     1      -2.647  17.402  23.218  0.00  0.00    +0.000 A 
ATOM     30  C   UNL     1      -1.806  18.525  23.161  0.00  0.00    +0.000 A 
ATOM     31  C   UNL     1      -0.640  18.559  23.913  0.00  0.00    +0.000 A 
ATOM     32  C   UNL     1      -0.280  17.441  24.663  0.00  0.00    +0.000 A 
ATOM     33  C   UNL     1      -1.105  16.301  24.689  0.00  0.00    +0.000 A 
ENDBRANCH   5  28
TORSDOF 2
ENDMDL
MODEL 8
REMARK VINA RESULT:      -6.4     10.069     13.502
REMARK  Name = 
REMARK  2 active torsions:
REMARK  status: ('A' for Active; 'I' for Inactive)
REMARK    1  A    between atoms: N_5  and  C_6
REMARK    2  A    between atoms: N_15  and  C_16
REMARK                            x       y       z     vdW  Elec       q    Type
REMARK                         _______ _______ _______ _____ _____    ______ ____
ROOT
ATOM      1  O   UNL     1       5.295  16.173  19.230  0.00  0.00    +0.000 OA
ATOM      2  C   UNL     1       5.229  15.519  20.246  0.00  0.00    +0.000 C 
ATOM      3  N   UNL     1       4.139  14.773  20.625  0.00  0.00    +0.000 N 
ATOM      4  C   UNL     1       4.311  14.045  21.838  0.00  0.00    +0.000 C 
ATOM      5  N   UNL     1       5.510  14.628  22.458  0.00  0.00    +0.000 N 
ATOM      6  C   UNL     1       6.319  15.289  21.324  0.00  0.00    +0.000 C 
ATOM      7  C   UNL     1       7.280  14.298  20.732  0.00  0.00    +0.000 C 
ATOM      8  C   UNL     1       8.525  14.346  21.611  0.00  0.00    +0.000 C 
ATOM      9  N   UNL     1       9.446  15.416  21.213  0.00  0.00    +0.000 NA
ATOM     10  C   UNL     1       8.651  16.626  21.595  0.00  0.00    +0.000 C 
ATOM     11  C   UNL     1       7.059  16.628  21.596  0.00  0.00    +0.000 C 
ATOM     12  H   UNL     1       3.361  14.652  19.993  0.00  0.00    +0.000 HD
ENDROOT
BRANCH   9  13
ATOM     13  C   UNL     1       9.925  15.141  19.800  0.00  0.00    +0.000 C 
ATOM     14  C   UNL     1      10.833  16.132  19.023  0.00  0.00    +0.000 A 
ATOM     15  C   UNL     1      10.857  17.500  19.303  0.00  0.00    +0.000 A 
ATOM     16  C   UNL     1      11.553  18.401  18.488  0.00  0.00    +0.000 A 
ATOM     17  C   UNL     1      12.307  17.941  17.415  0.00  0.00    +0.000 A 
ATOM     18  C   UNL     1      12.280  16.593  17.085  0.00  0.00    +0.000 A 
ATOM     19  C   UNL     1      11.479  15.711  17.817  0.00  0.00    +0.000 A 
ATOM     20  C   UNL     1      11.324  14.340  17.260  0.00  0.00    +0.000 C 
ATOM     21  C   UNL     1      10.067  13.833  17.237  0.00  0.00    +0.000 C 
ATOM     22  C   UNL     1       9.880  12.994  18.432  0.00  0.00    +0.000 A 
ATOM     23  C   UNL     1       9.434  11.678  18.438  0.00  0.00    +0.000 A 
ATOM     24  C   UNL     1       9.658  10.897  19.571  0.00  0.00    +0.000 A 
ATOM     25  C   UNL     1      10.466  11.393  20.598  0.00  0.00    +0.000 A 
ATOM     26  C   UNL     1      10.858  12.749  20.600  0.00  0.00    +0.000 A 
ATOM     27  C   UNL     1      10.327  13.600  19.623  0.00  0.00    +0.000 A 
ENDBRANCH   9  13
BRANCH   5  28
ATOM     28  C   UNL     1       6.197  13.745  23.337  0.00  0.00    +0.000 A 
ATOM     29  C   UNL     1       6.916  14.165  24.481  0.00  0.00    +0.000 A 
ATOM     30  C   UNL     1       7.289  13.267  25.495  0.00  0.00    +0.000 A 
ATOM     31  C   UNL     1       6.959  11.923  25.389  0.00  0.00    +0.000 A 
ATOM     32  C   UNL     1       6.324  11.467  24.236  0.00  0.00    +0.000 A 
ATOM     33  C   UNL     1       5.986  12.361  23.204  0.00  0.00    +0.000 A 
ENDBRANCH   5  28
TORSDOF 2
ENDMDL
MODEL 9
REMARK VINA RESULT:      -6.4      2.865      5.657
REMARK  Name = 
REMARK  2 active torsions:
REMARK  status: ('A' for Active; 'I' for Inactive)
REMARK    1  A    between atoms: N_5  and  C_6
REMARK    2  A    between atoms: N_15  and  C_16
REMARK                            x       y       z     vdW  Elec       q    Type
REMARK                         _______ _______ _______ _____ _____    ______ ____
ROOT
ATOM      1  O   UNL     1      -0.407  11.932  23.136  0.00  0.00    +0.000 OA
ATOM      2  C   UNL     1      -0.575  11.461  22.034  0.00  0.00    +0.000 C 
ATOM      3  N   UNL     1      -0.230  10.181  21.671  0.00  0.00    +0.000 N 
ATOM      4  C   UNL     1      -0.571   9.831  20.333  0.00  0.00    +0.000 C 
ATOM      5  N   UNL     1      -0.881  11.110  19.679  0.00  0.00    +0.000 N 
ATOM      6  C   UNL     1      -1.256  12.102  20.798  0.00  0.00    +0.000 C 
ATOM      7  C   UNL     1      -2.733  12.042  21.065  0.00  0.00    +0.000 C 
ATOM      8  C   UNL     1      -3.379  12.983  20.053  0.00  0.00    +0.000 C 
ATOM      9  N   UNL     1      -3.392  14.374  20.516  0.00  0.00    +0.000 NA
ATOM     10  C   UNL     1      -1.931  14.697  20.472  0.00  0.00    +0.000 C 
ATOM     11  C   UNL     1      -0.811  13.586  20.682  0.00  0.00    +0.000 C 
ATOM     12  H   UNL     1       0.095   9.526  22.367  0.00  0.00    +0.000 HD
ENDROOT
BRANCH   9  13
ATOM     13  C   UNL     1      -4.230  14.456  21.778  0.00  0.00    +0.000 C 
ATOM     14  C   UNL     1      -4.051  15.591  22.822  0.00  0.00    +0.000 A 
ATOM     15  C   UNL     1      -2.847  16.283  22.975  0.00  0.00    +0.000 A 
ATOM     16  C   UNL     1      -2.650  17.184  24.027  0.00  0.00    +0.000 A 
ATOM     17  C   UNL     1      -3.684  17.473  24.909  0.00  0.00    +0.000 A 
ATOM     18  C   UNL     1      -4.883  16.780  24.810  0.00  0.00    +0.000 A 
ATOM     19  C   UNL     1      -5.035  15.782  23.842  0.00  0.00    +0.000 A 
ATOM     20  C   UNL     1      -6.252  14.933  23.953  0.00  0.00    +0.000 C 
ATOM     21  C   UNL     1      -6.073  13.596  23.818  0.00  0.00    +0.000 C 
ATOM     22  C   UNL     1      -6.363  13.225  22.424  0.00  0.00    +0.000 A 
ATOM     23  C   UNL     1      -7.243  12.230  22.015  0.00  0.00    +0.000 A 
ATOM     24  C   UNL     1      -7.699  12.236  20.697  0.00  0.00    +0.000 A 
ATOM     25  C   UNL     1      -7.403  13.324  19.873  0.00  0.00    +0.000 A 
ATOM     26  C   UNL     1      -6.461  14.292  20.286  0.00  0.00    +0.000 A 
ATOM     27  C   UNL     1      -5.756  14.073  21.475  0.00  0.00    +0.000 A 
ENDBRANCH   9  13
BRANCH   5  28
ATOM     28  C   UNL     1      -1.764  10.996  18.569  0.00  0.00    +0.000 A 
ATOM     29  C   UNL     1      -1.765  11.876  17.461  0.00  0.00    +0.000 A 
ATOM     30  C   UNL     1      -2.399  11.548  16.251  0.00  0.00    +0.000 A 
ATOM     31  C   UNL     1      -3.057  10.333  16.119  0.00  0.00    +0.000 A 
ATOM     32  C   UNL     1      -3.143   9.482  17.218  0.00  0.00    +0.000 A 
ATOM     33  C   UNL     1      -2.540   9.830  18.441  0.00  0.00    +0.000 A 
ENDBRANCH   5  28
TORSDOF 2
ENDMDL
