MODEL 1
REMARK VINA RESULT:      -7.3      0.000      0.000
REMARK  Name = 
REMARK  5 active torsions:
REMARK  status: ('A' for Active; 'I' for Inactive)
REMARK    1  A    between atoms: C_1  and  O_2
REMARK    2  A    between atoms: O_2  and  C_3
REMARK    3  A    between atoms: C_3  and  C_4
REMARK    4  A    between atoms: C_4  and  C_5
REMARK    5  A    between atoms: C_5  and  C_6
REMARK                            x       y       z     vdW  Elec       q    Type
REMARK                         _______ _______ _______ _____ _____    ______ ____
ROOT
ATOM      1  C   UNL     1       6.138   4.411  15.753  0.00  0.00    +0.000 A 
ATOM      2  C   UNL     1       7.114   4.628  16.869  0.00  0.00    +0.000 A 
ATOM      3  N   UNL     1       6.874   4.533  18.140  0.00  0.00    +0.000 NA
ATOM      4  C   UNL     1       5.592   4.220  18.488  0.00  0.00    +0.000 A 
ATOM      5  N   UNL     1       5.087   4.069  19.694  0.00  0.00    +0.000 NA
ATOM      6  C   UNL     1       3.760   3.783  19.510  0.00  0.00    +0.000 A 
ATOM      7  C   UNL     1       2.768   3.542  20.473  0.00  0.00    +0.000 A 
ATOM      8  C   UNL     1       1.464   3.273  20.044  0.00  0.00    +0.000 A 
ATOM      9  C   UNL     1       1.150   3.243  18.683  0.00  0.00    +0.000 A 
ATOM     10  C   UNL     1       2.127   3.480  17.709  0.00  0.00    +0.000 A 
ATOM     11  C   UNL     1       3.426   3.748  18.160  0.00  0.00    +0.000 A 
ATOM     12  N   UNL     1       4.613   4.024  17.514  0.00  0.00    +0.000 N 
ATOM     13  C   UNL     1       4.892   4.120  16.155  0.00  0.00    +0.000 A 
ENDROOT
BRANCH   1  14
ATOM     14  C   UNL     1       6.599   4.562  14.338  0.00  0.00    +0.000 C 
BRANCH  14  15
ATOM     15  C   UNL     1       5.597   3.979  13.336  0.00  0.00    +0.000 C 
BRANCH  15  16
ATOM     16  C   UNL     1       6.294   3.187  12.235  0.00  0.00    +0.000 C 
BRANCH  16  18
ATOM     17  C   UNL     1       4.130   3.180  11.306  0.00  0.00    +0.000 C 
ATOM     18  O   UNL     1       5.316   2.429  11.528  0.00  0.00    +0.000 OA
ENDBRANCH  16  18
ENDBRANCH  15  16
ENDBRANCH  14  15
ENDBRANCH   1  14
TORSDOF 4
ENDMDL
MODEL 2
REMARK VINA RESULT:      -7.1      1.420      1.588
REMARK  Name = 
REMARK  5 active torsions:
REMARK  status: ('A' for Active; 'I' for Inactive)
REMARK    1  A    between atoms: C_1  and  O_2
REMARK    2  A    between atoms: O_2  and  C_3
REMARK    3  A    between atoms: C_3  and  C_4
REMARK    4  A    between atoms: C_4  and  C_5
REMARK    5  A    between atoms: C_5  and  C_6
REMARK                            x       y       z     vdW  Elec       q    Type
REMARK                         _______ _______ _______ _____ _____    ______ ____
ROOT
ATOM      1  C   UNL     1       5.334   4.468  15.937  0.00  0.00    +0.000 A 
ATOM      2  C   UNL     1       5.356   5.944  16.193  0.00  0.00    +0.000 A 
ATOM      3  N   UNL     1       4.715   6.581  17.123  0.00  0.00    +0.000 NA
ATOM      4  C   UNL     1       3.926   5.821  17.938  0.00  0.00    +0.000 A 
ATOM      5  N   UNL     1       3.175   6.214  18.944  0.00  0.00    +0.000 NA
ATOM      6  C   UNL     1       2.568   5.084  19.421  0.00  0.00    +0.000 A 
ATOM      7  C   UNL     1       1.660   4.950  20.483  0.00  0.00    +0.000 A 
ATOM      8  C   UNL     1       1.161   3.680  20.788  0.00  0.00    +0.000 A 
ATOM      9  C   UNL     1       1.558   2.560  20.053  0.00  0.00    +0.000 A 
ATOM     10  C   UNL     1       2.464   2.673  18.992  0.00  0.00    +0.000 A 
ATOM     11  C   UNL     1       2.950   3.955  18.703  0.00  0.00    +0.000 A 
ATOM     12  N   UNL     1       3.827   4.443  17.756  0.00  0.00    +0.000 N 
ATOM     13  C   UNL     1       4.531   3.775  16.760  0.00  0.00    +0.000 A 
ENDROOT
BRANCH   1  14
ATOM     14  C   UNL     1       6.145   3.907  14.813  0.00  0.00    +0.000 C 
BRANCH  14  15
ATOM     15  C   UNL     1       5.453   4.075  13.457  0.00  0.00    +0.000 C 
BRANCH  15  16
ATOM     16  C   UNL     1       6.235   3.401  12.335  0.00  0.00    +0.000 C 
BRANCH  16  18
ATOM     17  C   UNL     1       4.159   3.097  11.265  0.00  0.00    +0.000 C 
ATOM     18  O   UNL     1       5.376   2.482  11.667  0.00  0.00    +0.000 OA
ENDBRANCH  16  18
ENDBRANCH  15  16
ENDBRANCH  14  15
ENDBRANCH   1  14
TORSDOF 4
ENDMDL
MODEL 3
REMARK VINA RESULT:      -7.0      3.419      4.908
REMARK  Name = 
REMARK  5 active torsions:
REMARK  status: ('A' for Active; 'I' for Inactive)
REMARK    1  A    between atoms: C_1  and  O_2
REMARK    2  A    between atoms: O_2  and  C_3
REMARK    3  A    between atoms: C_3  and  C_4
REMARK    4  A    between atoms: C_4  and  C_5
REMARK    5  A    between atoms: C_5  and  C_6
REMARK                            x       y       z     vdW  Elec       q    Type
REMARK                         _______ _______ _______ _____ _____    ______ ____
ROOT
ATOM      1  C   UNL     1       6.380   5.607  18.160  0.00  0.00    +0.000 A 
ATOM      2  C   UNL     1       6.325   4.812  16.891  0.00  0.00    +0.000 A 
ATOM      3  N   UNL     1       5.375   4.011  16.517  0.00  0.00    +0.000 NA
ATOM      4  C   UNL     1       4.330   3.871  17.384  0.00  0.00    +0.000 A 
ATOM      5  N   UNL     1       3.254   3.126  17.251  0.00  0.00    +0.000 NA
ATOM      6  C   UNL     1       2.526   3.314  18.395  0.00  0.00    +0.000 A 
ATOM      7  C   UNL     1       1.297   2.744  18.763  0.00  0.00    +0.000 A 
ATOM      8  C   UNL     1       0.740   3.083  20.000  0.00  0.00    +0.000 A 
ATOM      9  C   UNL     1       1.390   3.975  20.857  0.00  0.00    +0.000 A 
ATOM     10  C   UNL     1       2.614   4.555  20.506  0.00  0.00    +0.000 A 
ATOM     11  C   UNL     1       3.156   4.200  19.263  0.00  0.00    +0.000 A 
ATOM     12  N   UNL     1       4.311   4.555  18.599  0.00  0.00    +0.000 N 
ATOM     13  C   UNL     1       5.333   5.418  18.979  0.00  0.00    +0.000 A 
ENDROOT
BRANCH   1  14
ATOM     14  C   UNL     1       7.561   6.486  18.422  0.00  0.00    +0.000 C 
BRANCH  14  15
ATOM     15  C   UNL     1       7.772   7.521  17.313  0.00  0.00    +0.000 C 
BRANCH  15  16
ATOM     16  C   UNL     1       7.889   8.935  17.873  0.00  0.00    +0.000 C 
BRANCH  16  18
ATOM     17  C   UNL     1       9.272  10.260  19.243  0.00  0.00    +0.000 C 
ATOM     18  O   UNL     1       8.877   8.939  18.900  0.00  0.00    +0.000 OA
ENDBRANCH  16  18
ENDBRANCH  15  16
ENDBRANCH  14  15
ENDBRANCH   1  14
TORSDOF 4
ENDMDL
MODEL 4
REMARK VINA RESULT:      -6.9      1.087      1.322
REMARK  Name = 
REMARK  5 active torsions:
REMARK  status: ('A' for Active; 'I' for Inactive)
REMARK    1  A    between atoms: C_1  and  O_2
REMARK    2  A    between atoms: O_2  and  C_3
REMARK    3  A    between atoms: C_3  and  C_4
REMARK    4  A    between atoms: C_4  and  C_5
REMARK    5  A    between atoms: C_5  and  C_6
REMARK                            x       y       z     vdW  Elec       q    Type
REMARK                         _______ _______ _______ _____ _____    ______ ____
ROOT
ATOM      1  C   UNL     1       5.239   5.145  16.579  0.00  0.00    +0.000 A 
ATOM      2  C   UNL     1       6.410   4.807  17.451  0.00  0.00    +0.000 A 
ATOM      3  N   UNL     1       6.372   4.221  18.608  0.00  0.00    +0.000 NA
ATOM      4  C   UNL     1       5.132   3.900  19.079  0.00  0.00    +0.000 A 
ATOM      5  N   UNL     1       4.817   3.312  20.214  0.00  0.00    +0.000 NA
ATOM      6  C   UNL     1       3.450   3.236  20.229  0.00  0.00    +0.000 A 
ATOM      7  C   UNL     1       2.607   2.705  21.217  0.00  0.00    +0.000 A 
ATOM      8  C   UNL     1       1.224   2.743  21.013  0.00  0.00    +0.000 A 
ATOM      9  C   UNL     1       0.687   3.297  19.849  0.00  0.00    +0.000 A 
ATOM     10  C   UNL     1       1.512   3.829  18.852  0.00  0.00    +0.000 A 
ATOM     11  C   UNL     1       2.895   3.782  19.076  0.00  0.00    +0.000 A 
ATOM     12  N   UNL     1       3.987   4.200  18.344  0.00  0.00    +0.000 N 
ATOM     13  C   UNL     1       4.047   4.818  17.100  0.00  0.00    +0.000 A 
ENDROOT
BRANCH   1  14
ATOM     14  C   UNL     1       5.477   5.822  15.267  0.00  0.00    +0.000 C 
BRANCH  14  15
ATOM     15  C   UNL     1       6.545   5.109  14.431  0.00  0.00    +0.000 C 
BRANCH  15  16
ATOM     16  C   UNL     1       6.095   3.715  14.007  0.00  0.00    +0.000 C 
BRANCH  16  18
ATOM     17  C   UNL     1       5.070   3.268  11.934  0.00  0.00    +0.000 C 
ATOM     18  O   UNL     1       6.285   3.581  12.601  0.00  0.00    +0.000 OA
ENDBRANCH  16  18
ENDBRANCH  15  16
ENDBRANCH  14  15
ENDBRANCH   1  14
TORSDOF 4
ENDMDL
MODEL 5
REMARK VINA RESULT:      -6.8      2.525      6.349
REMARK  Name = 
REMARK  5 active torsions:
REMARK  status: ('A' for Active; 'I' for Inactive)
REMARK    1  A    between atoms: C_1  and  O_2
REMARK    2  A    between atoms: O_2  and  C_3
REMARK    3  A    between atoms: C_3  and  C_4
REMARK    4  A    between atoms: C_4  and  C_5
REMARK    5  A    between atoms: C_5  and  C_6
REMARK                            x       y       z     vdW  Elec       q    Type
REMARK                         _______ _______ _______ _____ _____    ______ ____
ROOT
ATOM      1  C   UNL     1       4.633   4.079  17.773  0.00  0.00    +0.000 A 
ATOM      2  C   UNL     1       5.706   4.983  18.299  0.00  0.00    +0.000 A 
ATOM      3  N   UNL     1       6.672   5.519  17.619  0.00  0.00    +0.000 NA
ATOM      4  C   UNL     1       6.719   5.206  16.292  0.00  0.00    +0.000 A 
ATOM      5  N   UNL     1       7.589   5.606  15.389  0.00  0.00    +0.000 NA
ATOM      6  C   UNL     1       7.219   5.000  14.218  0.00  0.00    +0.000 A 
ATOM      7  C   UNL     1       7.818   5.084  12.952  0.00  0.00    +0.000 A 
ATOM      8  C   UNL     1       7.260   4.363  11.893  0.00  0.00    +0.000 A 
ATOM      9  C   UNL     1       6.125   3.571  12.085  0.00  0.00    +0.000 A 
ATOM     10  C   UNL     1       5.512   3.476  13.340  0.00  0.00    +0.000 A 
ATOM     11  C   UNL     1       6.088   4.207  14.388  0.00  0.00    +0.000 A 
ATOM     12  N   UNL     1       5.774   4.353  15.723  0.00  0.00    +0.000 N 
ATOM     13  C   UNL     1       4.738   3.796  16.465  0.00  0.00    +0.000 A 
ENDROOT
BRANCH   1  14
ATOM     14  C   UNL     1       3.592   3.557  18.711  0.00  0.00    +0.000 C 
BRANCH  14  15
ATOM     15  C   UNL     1       2.170   3.789  18.187  0.00  0.00    +0.000 C 
BRANCH  15  16
ATOM     16  C   UNL     1       1.157   2.886  18.882  0.00  0.00    +0.000 C 
BRANCH  16  18
ATOM     17  C   UNL     1       1.245   2.824  21.235  0.00  0.00    +0.000 C 
ATOM     18  O   UNL     1       1.775   2.301  20.025  0.00  0.00    +0.000 OA
ENDBRANCH  16  18
ENDBRANCH  15  16
ENDBRANCH  14  15
ENDBRANCH   1  14
TORSDOF 4
ENDMDL
MODEL 6
REMARK VINA RESULT:      -6.7      2.278      5.841
REMARK  Name = 
REMARK  5 active torsions:
REMARK  status: ('A' for Active; 'I' for Inactive)
REMARK    1  A    between atoms: C_1  and  O_2
REMARK    2  A    between atoms: O_2  and  C_3
REMARK    3  A    between atoms: C_3  and  C_4
REMARK    4  A    between atoms: C_4  and  C_5
REMARK    5  A    between atoms: C_5  and  C_6
REMARK                            x       y       z     vdW  Elec       q    Type
REMARK                         _______ _______ _______ _____ _____    ______ ____
ROOT
ATOM      1  C   UNL     1       4.155   5.218  17.685  0.00  0.00    +0.000 A 
ATOM      2  C   UNL     1       5.362   5.958  18.175  0.00  0.00    +0.000 A 
ATOM      3  N   UNL     1       6.460   6.172  17.520  0.00  0.00    +0.000 NA
ATOM      4  C   UNL     1       6.521   5.650  16.260  0.00  0.00    +0.000 A 
ATOM      5  N   UNL     1       7.510   5.717  15.395  0.00  0.00    +0.000 NA
ATOM      6  C   UNL     1       7.091   5.020  14.293  0.00  0.00    +0.000 A 
ATOM      7  C   UNL     1       7.772   4.780  13.090  0.00  0.00    +0.000 A 
ATOM      8  C   UNL     1       7.138   4.027  12.096  0.00  0.00    +0.000 A 
ATOM      9  C   UNL     1       5.851   3.523  12.292  0.00  0.00    +0.000 A 
ATOM     10  C   UNL     1       5.155   3.754  13.485  0.00  0.00    +0.000 A 
ATOM     11  C   UNL     1       5.809   4.510  14.468  0.00  0.00    +0.000 A 
ATOM     12  N   UNL     1       5.452   4.926  15.733  0.00  0.00    +0.000 N 
ATOM     13  C   UNL     1       4.278   4.715  16.447  0.00  0.00    +0.000 A 
ENDROOT
BRANCH   1  14
ATOM     14  C   UNL     1       2.970   5.072  18.587  0.00  0.00    +0.000 C 
BRANCH  14  15
ATOM     15  C   UNL     1       1.805   4.350  17.902  0.00  0.00    +0.000 C 
BRANCH  15  16
ATOM     16  C   UNL     1       1.594   2.950  18.470  0.00  0.00    +0.000 C 
BRANCH  16  18
ATOM     17  C   UNL     1       3.479   1.538  18.429  0.00  0.00    +0.000 C 
ATOM     18  O   UNL     1       2.359   2.025  17.702  0.00  0.00    +0.000 OA
ENDBRANCH  16  18
ENDBRANCH  15  16
ENDBRANCH  14  15
ENDBRANCH   1  14
TORSDOF 4
ENDMDL
MODEL 7
REMARK VINA RESULT:      -6.6      2.625      3.520
REMARK  Name = 
REMARK  5 active torsions:
REMARK  status: ('A' for Active; 'I' for Inactive)
REMARK    1  A    between atoms: C_1  and  O_2
REMARK    2  A    between atoms: O_2  and  C_3
REMARK    3  A    between atoms: C_3  and  C_4
REMARK    4  A    between atoms: C_4  and  C_5
REMARK    5  A    between atoms: C_5  and  C_6
REMARK                            x       y       z     vdW  Elec       q    Type
REMARK                         _______ _______ _______ _____ _____    ______ ____
ROOT
ATOM      1  C   UNL     1       4.911   5.250  16.085  0.00  0.00    +0.000 A 
ATOM      2  C   UNL     1       4.697   6.667  16.521  0.00  0.00    +0.000 A 
ATOM      3  N   UNL     1       3.974   7.072  17.519  0.00  0.00    +0.000 NA
ATOM      4  C   UNL     1       3.332   6.100  18.230  0.00  0.00    +0.000 A 
ATOM      5  N   UNL     1       2.542   6.239  19.273  0.00  0.00    +0.000 NA
ATOM      6  C   UNL     1       2.134   4.975  19.604  0.00  0.00    +0.000 A 
ATOM      7  C   UNL     1       1.276   4.566  20.637  0.00  0.00    +0.000 A 
ATOM      8  C   UNL     1       0.995   3.204  20.780  0.00  0.00    +0.000 A 
ATOM      9  C   UNL     1       1.558   2.262  19.915  0.00  0.00    +0.000 A 
ATOM     10  C   UNL     1       2.417   2.650  18.881  0.00  0.00    +0.000 A 
ATOM     11  C   UNL     1       2.684   4.020  18.754  0.00  0.00    +0.000 A 
ATOM     12  N   UNL     1       3.456   4.757  17.879  0.00  0.00    +0.000 N 
ATOM     13  C   UNL     1       4.244   4.340  16.812  0.00  0.00    +0.000 A 
ENDROOT
BRANCH   1  14
ATOM     14  C   UNL     1       5.786   4.971  14.905  0.00  0.00    +0.000 C 
BRANCH  14  15
ATOM     15  C   UNL     1       7.270   4.916  15.283  0.00  0.00    +0.000 C 
BRANCH  15  16
ATOM     16  C   UNL     1       7.468   4.538  16.747  0.00  0.00    +0.000 C 
BRANCH  16  18
ATOM     17  C   UNL     1       7.467   5.613  18.843  0.00  0.00    +0.000 C 
ATOM     18  O   UNL     1       7.839   5.707  17.474  0.00  0.00    +0.000 OA
ENDBRANCH  16  18
ENDBRANCH  15  16
ENDBRANCH  14  15
ENDBRANCH   1  14
TORSDOF 4
ENDMDL
MODEL 8
REMARK VINA RESULT:      -6.6      1.969      3.087
REMARK  Name = 
REMARK  5 active torsions:
REMARK  status: ('A' for Active; 'I' for Inactive)
REMARK    1  A    between atoms: C_1  and  O_2
REMARK    2  A    between atoms: O_2  and  C_3
REMARK    3  A    between atoms: C_3  and  C_4
REMARK    4  A    between atoms: C_4  and  C_5
REMARK    5  A    between atoms: C_5  and  C_6
REMARK                            x       y       z     vdW  Elec       q    Type
REMARK                         _______ _______ _______ _____ _____    ______ ____
ROOT
ATOM      1  C   UNL     1       6.383   3.886  13.175  0.00  0.00    +0.000 A 
ATOM      2  C   UNL     1       7.499   4.869  13.350  0.00  0.00    +0.000 A 
ATOM      3  N   UNL     1       7.834   5.477  14.446  0.00  0.00    +0.000 NA
ATOM      4  C   UNL     1       7.074   5.198  15.544  0.00  0.00    +0.000 A 
ATOM      5  N   UNL     1       7.195   5.676  16.765  0.00  0.00    +0.000 NA
ATOM      6  C   UNL     1       6.183   5.109  17.491  0.00  0.00    +0.000 A 
ATOM      7  C   UNL     1       5.859   5.290  18.844  0.00  0.00    +0.000 A 
ATOM      8  C   UNL     1       4.763   4.600  19.373  0.00  0.00    +0.000 A 
ATOM      9  C   UNL     1       4.003   3.743  18.574  0.00  0.00    +0.000 A 
ATOM     10  C   UNL     1       4.312   3.549  17.222  0.00  0.00    +0.000 A 
ATOM     11  C   UNL     1       5.413   4.250  16.712  0.00  0.00    +0.000 A 
ATOM     12  N   UNL     1       5.999   4.313  15.466  0.00  0.00    +0.000 N 
ATOM     13  C   UNL     1       5.661   3.663  14.284  0.00  0.00    +0.000 A 
ENDROOT
BRANCH   1  14
ATOM     14  C   UNL     1       6.146   3.281  11.828  0.00  0.00    +0.000 C 
BRANCH  14  15
ATOM     15  C   UNL     1       4.683   2.870  11.625  0.00  0.00    +0.000 C 
BRANCH  15  16
ATOM     16  C   UNL     1       3.850   4.011  11.049  0.00  0.00    +0.000 C 
BRANCH  16  18
ATOM     17  C   UNL     1       2.576   4.586   9.153  0.00  0.00    +0.000 C 
ATOM     18  O   UNL     1       3.129   3.525   9.920  0.00  0.00    +0.000 OA
ENDBRANCH  16  18
ENDBRANCH  15  16
ENDBRANCH  14  15
ENDBRANCH   1  14
TORSDOF 4
ENDMDL
MODEL 9
REMARK VINA RESULT:      -6.5      2.717      6.263
REMARK  Name = 
REMARK  5 active torsions:
REMARK  status: ('A' for Active; 'I' for Inactive)
REMARK    1  A    between atoms: C_1  and  O_2
REMARK    2  A    between atoms: O_2  and  C_3
REMARK    3  A    between atoms: C_3  and  C_4
REMARK    4  A    between atoms: C_4  and  C_5
REMARK    5  A    between atoms: C_5  and  C_6
REMARK                            x       y       z     vdW  Elec       q    Type
REMARK                         _______ _______ _______ _____ _____    ______ ____
ROOT
ATOM      1  C   UNL     1       4.490   4.013  17.763  0.00  0.00    +0.000 A 
ATOM      2  C   UNL     1       5.597   4.838  18.344  0.00  0.00    +0.000 A 
ATOM      3  N   UNL     1       6.605   5.346  17.703  0.00  0.00    +0.000 NA
ATOM      4  C   UNL     1       6.664   5.079  16.366  0.00  0.00    +0.000 A 
ATOM      5  N   UNL     1       7.573   5.464  15.496  0.00  0.00    +0.000 NA
ATOM      6  C   UNL     1       7.196   4.922  14.297  0.00  0.00    +0.000 A 
ATOM      7  C   UNL     1       7.826   5.020  13.047  0.00  0.00    +0.000 A 
ATOM      8  C   UNL     1       7.254   4.368  11.950  0.00  0.00    +0.000 A 
ATOM      9  C   UNL     1       6.074   3.632  12.091  0.00  0.00    +0.000 A 
ATOM     10  C   UNL     1       5.430   3.525  13.329  0.00  0.00    +0.000 A 
ATOM     11  C   UNL     1       6.022   4.185  14.415  0.00  0.00    +0.000 A 
ATOM     12  N   UNL     1       5.688   4.299  15.748  0.00  0.00    +0.000 N 
ATOM     13  C   UNL     1       4.608   3.772  16.448  0.00  0.00    +0.000 A 
ENDROOT
BRANCH   1  14
ATOM     14  C   UNL     1       3.403   3.513  18.661  0.00  0.00    +0.000 C 
BRANCH  14  15
ATOM     15  C   UNL     1       2.165   4.417  18.632  0.00  0.00    +0.000 C 
BRANCH  15  16
ATOM     16  C   UNL     1       2.008   5.201  19.930  0.00  0.00    +0.000 C 
BRANCH  16  18
ATOM     17  C   UNL     1       2.486   7.103  18.625  0.00  0.00    +0.000 C 
ATOM     18  O   UNL     1       2.765   6.404  19.831  0.00  0.00    +0.000 OA
ENDBRANCH  16  18
ENDBRANCH  15  16
ENDBRANCH  14  15
ENDBRANCH   1  14
TORSDOF 4
ENDMDL
