MODEL 1
REMARK VINA RESULT:      -8.0      0.000      0.000
REMARK  Name = 
REMARK  2 active torsions:
REMARK  status: ('A' for Active; 'I' for Inactive)
REMARK    1  A    between atoms: C_2  and  C_4
REMARK    2  A    between atoms: C_8  and  C_9
REMARK                            x       y       z     vdW  Elec       q    Type
REMARK                         _______ _______ _______ _____ _____    ______ ____
ROOT
ATOM      1  C   UNL     1       2.594   3.908  19.585  0.00  0.00    +0.000 A 
ATOM      2  C   UNL     1       2.986   3.330  18.371  0.00  0.00    +0.000 A 
ATOM      3  C   UNL     1       3.779   4.189  17.600  0.00  0.00    +0.000 A 
ATOM      4  C   UNL     1       4.358   3.903  16.357  0.00  0.00    +0.000 A 
ATOM      5  C   UNL     1       5.208   4.865  15.747  0.00  0.00    +0.000 A 
ATOM      6  C   UNL     1       5.409   6.110  16.403  0.00  0.00    +0.000 A 
ATOM      7  C   UNL     1       4.794   6.394  17.626  0.00  0.00    +0.000 A 
ATOM      8  C   UNL     1       3.997   5.417  18.203  0.00  0.00    +0.000 A 
ATOM      9  S   UNL     1       3.206   5.484  19.677  0.00  0.00    +0.000 S 
ENDROOT
BRANCH   1  11
ATOM     10  N   UNL     1       0.554   3.032  20.483  0.00  0.00    +0.000 NA
ATOM     11  C   UNL     1       1.812   3.248  20.652  0.00  0.00    +0.000 C 
ATOM     12  N   UNL     1       2.447   2.825  21.853  0.00  0.00    +0.000 N 
ATOM     13  H   UNL     1      -0.014   2.567  21.206  0.00  0.00    +0.000 HD
ATOM     14  H   UNL     1       1.908   2.358  22.597  0.00  0.00    +0.000 HD
ATOM     15  H   UNL     1       3.451   2.990  22.012  0.00  0.00    +0.000 HD
ENDBRANCH   1  11
BRANCH   5  16
ATOM     16  C   UNL     1       5.909   4.569  14.457  0.00  0.00    +0.000 A 
ATOM     17  C   UNL     1       7.140   5.176  14.129  0.00  0.00    +0.000 A 
ATOM     18  C   UNL     1       7.771   4.891  12.911  0.00  0.00    +0.000 A 
ATOM     19  C   UNL     1       7.178   4.018  11.999  0.00  0.00    +0.000 A 
ATOM     20  C   UNL     1       5.957   3.419  12.302  0.00  0.00    +0.000 A 
ATOM     21  C   UNL     1       5.332   3.681  13.522  0.00  0.00    +0.000 A 
ENDBRANCH   5  16
TORSDOF 2
ENDMDL
MODEL 2
REMARK VINA RESULT:      -7.9      0.154      1.388
REMARK  Name = 
REMARK  2 active torsions:
REMARK  status: ('A' for Active; 'I' for Inactive)
REMARK    1  A    between atoms: C_2  and  C_4
REMARK    2  A    between atoms: C_8  and  C_9
REMARK                            x       y       z     vdW  Elec       q    Type
REMARK                         _______ _______ _______ _____ _____    ______ ____
ROOT
ATOM      1  C   UNL     1       2.782   3.857  19.691  0.00  0.00    +0.000 A 
ATOM      2  C   UNL     1       3.164   3.277  18.474  0.00  0.00    +0.000 A 
ATOM      3  C   UNL     1       3.889   4.160  17.664  0.00  0.00    +0.000 A 
ATOM      4  C   UNL     1       4.442   3.880  16.408  0.00  0.00    +0.000 A 
ATOM      5  C   UNL     1       5.223   4.871  15.755  0.00  0.00    +0.000 A 
ATOM      6  C   UNL     1       5.385   6.135  16.383  0.00  0.00    +0.000 A 
ATOM      7  C   UNL     1       4.796   6.411  17.621  0.00  0.00    +0.000 A 
ATOM      8  C   UNL     1       4.066   5.407  18.240  0.00  0.00    +0.000 A 
ATOM      9  S   UNL     1       3.320   5.462  19.738  0.00  0.00    +0.000 S 
ENDROOT
BRANCH   1  11
ATOM     10  N   UNL     1       2.726   2.759  21.817  0.00  0.00    +0.000 NA
ATOM     11  C   UNL     1       2.068   3.179  20.794  0.00  0.00    +0.000 C 
ATOM     12  N   UNL     1       0.656   3.014  20.743  0.00  0.00    +0.000 N 
ATOM     13  H   UNL     1       2.254   2.290  22.605  0.00  0.00    +0.000 HD
ATOM     14  H   UNL     1       0.153   2.548  21.512  0.00  0.00    +0.000 HD
ATOM     15  H   UNL     1       0.110   3.339  19.933  0.00  0.00    +0.000 HD
ENDBRANCH   1  11
BRANCH   5  16
ATOM     16  C   UNL     1       5.897   4.586  14.448  0.00  0.00    +0.000 A 
ATOM     17  C   UNL     1       5.376   3.639  13.539  0.00  0.00    +0.000 A 
ATOM     18  C   UNL     1       6.030   3.381  12.328  0.00  0.00    +0.000 A 
ATOM     19  C   UNL     1       7.217   4.044  12.014  0.00  0.00    +0.000 A 
ATOM     20  C   UNL     1       7.752   4.973  12.905  0.00  0.00    +0.000 A 
ATOM     21  C   UNL     1       7.095   5.251  14.105  0.00  0.00    +0.000 A 
ENDBRANCH   5  16
TORSDOF 2
ENDMDL
MODEL 3
REMARK VINA RESULT:      -7.6      4.607      5.762
REMARK  Name = 
REMARK  2 active torsions:
REMARK  status: ('A' for Active; 'I' for Inactive)
REMARK    1  A    between atoms: C_2  and  C_4
REMARK    2  A    between atoms: C_8  and  C_9
REMARK                            x       y       z     vdW  Elec       q    Type
REMARK                         _______ _______ _______ _____ _____    ______ ____
ROOT
ATOM      1  C   UNL     1       0.268   9.575  21.749  0.00  0.00    +0.000 A 
ATOM      2  C   UNL     1       0.976   8.392  21.500  0.00  0.00    +0.000 A 
ATOM      3  C   UNL     1       1.446   8.316  20.183  0.00  0.00    +0.000 A 
ATOM      4  C   UNL     1       2.214   7.284  19.627  0.00  0.00    +0.000 A 
ATOM      5  C   UNL     1       2.679   7.406  18.290  0.00  0.00    +0.000 A 
ATOM      6  C   UNL     1       2.312   8.558  17.542  0.00  0.00    +0.000 A 
ATOM      7  C   UNL     1       1.515   9.561  18.100  0.00  0.00    +0.000 A 
ATOM      8  C   UNL     1       1.107   9.420  19.418  0.00  0.00    +0.000 A 
ATOM      9  S   UNL     1       0.207  10.497  20.330  0.00  0.00    +0.000 S 
ENDROOT
BRANCH   1  11
ATOM     10  N   UNL     1       0.176   9.506  24.140  0.00  0.00    +0.000 NA
ATOM     11  C   UNL     1      -0.299   9.995  23.047  0.00  0.00    +0.000 C 
ATOM     12  N   UNL     1      -1.346  10.956  23.099  0.00  0.00    +0.000 N 
ATOM     13  H   UNL     1      -0.194   9.787  25.061  0.00  0.00    +0.000 HD
ATOM     14  H   UNL     1      -1.741  11.256  24.002  0.00  0.00    +0.000 HD
ATOM     15  H   UNL     1      -1.744  11.357  22.238  0.00  0.00    +0.000 HD
ENDBRANCH   1  11
BRANCH   5  16
ATOM     16  C   UNL     1       3.568   6.363  17.684  0.00  0.00    +0.000 A 
ATOM     17  C   UNL     1       3.307   4.985  17.846  0.00  0.00    +0.000 A 
ATOM     18  C   UNL     1       4.159   4.029  17.279  0.00  0.00    +0.000 A 
ATOM     19  C   UNL     1       5.288   4.428  16.564  0.00  0.00    +0.000 A 
ATOM     20  C   UNL     1       5.567   5.785  16.404  0.00  0.00    +0.000 A 
ATOM     21  C   UNL     1       4.712   6.744  16.948  0.00  0.00    +0.000 A 
ENDBRANCH   5  16
TORSDOF 2
ENDMDL
MODEL 4
REMARK VINA RESULT:      -7.6      4.631      5.687
REMARK  Name = 
REMARK  2 active torsions:
REMARK  status: ('A' for Active; 'I' for Inactive)
REMARK    1  A    between atoms: C_2  and  C_4
REMARK    2  A    between atoms: C_8  and  C_9
REMARK                            x       y       z     vdW  Elec       q    Type
REMARK                         _______ _______ _______ _____ _____    ______ ____
ROOT
ATOM      1  C   UNL     1       0.282   9.626  21.726  0.00  0.00    +0.000 A 
ATOM      2  C   UNL     1       0.974   8.434  21.477  0.00  0.00    +0.000 A 
ATOM      3  C   UNL     1       1.448   8.354  20.162  0.00  0.00    +0.000 A 
ATOM      4  C   UNL     1       2.204   7.313  19.607  0.00  0.00    +0.000 A 
ATOM      5  C   UNL     1       2.676   7.431  18.272  0.00  0.00    +0.000 A 
ATOM      6  C   UNL     1       2.329   8.589  17.526  0.00  0.00    +0.000 A 
ATOM      7  C   UNL     1       1.543   9.603  18.082  0.00  0.00    +0.000 A 
ATOM      8  C   UNL     1       1.128   9.464  19.398  0.00  0.00    +0.000 A 
ATOM      9  S   UNL     1       0.239  10.552  20.309  0.00  0.00    +0.000 S 
ENDROOT
BRANCH   1  11
ATOM     10  N   UNL     1       0.163   9.536  24.115  0.00  0.00    +0.000 NA
ATOM     11  C   UNL     1      -0.284  10.051  23.023  0.00  0.00    +0.000 C 
ATOM     12  N   UNL     1      -1.300  11.046  23.074  0.00  0.00    +0.000 N 
ATOM     13  H   UNL     1      -0.207   9.819  25.035  0.00  0.00    +0.000 HD
ATOM     14  H   UNL     1      -1.693  11.350  23.977  0.00  0.00    +0.000 HD
ATOM     15  H   UNL     1      -1.676  11.469  22.214  0.00  0.00    +0.000 HD
ENDBRANCH   1  11
BRANCH   5  16
ATOM     16  C   UNL     1       3.553   6.377  17.667  0.00  0.00    +0.000 A 
ATOM     17  C   UNL     1       4.720   6.711  16.947  0.00  0.00    +0.000 A 
ATOM     18  C   UNL     1       5.517   5.708  16.380  0.00  0.00    +0.000 A 
ATOM     19  C   UNL     1       5.154   4.367  16.505  0.00  0.00    +0.000 A 
ATOM     20  C   UNL     1       3.999   4.020  17.203  0.00  0.00    +0.000 A 
ATOM     21  C   UNL     1       3.210   5.012  17.788  0.00  0.00    +0.000 A 
ENDBRANCH   5  16
TORSDOF 2
ENDMDL
MODEL 5
REMARK VINA RESULT:      -7.5      4.529      7.709
REMARK  Name = 
REMARK  2 active torsions:
REMARK  status: ('A' for Active; 'I' for Inactive)
REMARK    1  A    between atoms: C_2  and  C_4
REMARK    2  A    between atoms: C_8  and  C_9
REMARK                            x       y       z     vdW  Elec       q    Type
REMARK                         _______ _______ _______ _____ _____    ______ ____
ROOT
ATOM      1  C   UNL     1       3.518   3.805  19.121  0.00  0.00    +0.000 A 
ATOM      2  C   UNL     1       2.846   4.479  20.149  0.00  0.00    +0.000 A 
ATOM      3  C   UNL     1       2.547   5.806  19.814  0.00  0.00    +0.000 A 
ATOM      4  C   UNL     1       1.855   6.733  20.604  0.00  0.00    +0.000 A 
ATOM      5  C   UNL     1       1.564   8.019  20.075  0.00  0.00    +0.000 A 
ATOM      6  C   UNL     1       2.025   8.339  18.769  0.00  0.00    +0.000 A 
ATOM      7  C   UNL     1       2.747   7.415  18.007  0.00  0.00    +0.000 A 
ATOM      8  C   UNL     1       2.983   6.160  18.548  0.00  0.00    +0.000 A 
ATOM      9  S   UNL     1       3.761   4.866  17.824  0.00  0.00    +0.000 S 
ENDROOT
BRANCH   1  11
ATOM     10  N   UNL     1       4.928   2.004  19.825  0.00  0.00    +0.000 NA
ATOM     11  C   UNL     1       3.915   2.382  19.126  0.00  0.00    +0.000 C 
ATOM     12  N   UNL     1       3.168   1.423  18.387  0.00  0.00    +0.000 N 
ATOM     13  H   UNL     1       5.223   1.016  19.855  0.00  0.00    +0.000 HD
ATOM     14  H   UNL     1       3.438   0.428  18.393  0.00  0.00    +0.000 HD
ATOM     15  H   UNL     1       2.357   1.702  17.818  0.00  0.00    +0.000 HD
ENDBRANCH   1  11
BRANCH   5  16
ATOM     16  C   UNL     1       0.759   9.011  20.856  0.00  0.00    +0.000 A 
ATOM     17  C   UNL     1       0.149  10.122  20.233  0.00  0.00    +0.000 A 
ATOM     18  C   UNL     1      -0.590  11.043  20.987  0.00  0.00    +0.000 A 
ATOM     19  C   UNL     1      -0.714  10.883  22.367  0.00  0.00    +0.000 A 
ATOM     20  C   UNL     1      -0.110   9.799  23.000  0.00  0.00    +0.000 A 
ATOM     21  C   UNL     1       0.611   8.865  22.253  0.00  0.00    +0.000 A 
ENDBRANCH   5  16
TORSDOF 2
ENDMDL
MODEL 6
REMARK VINA RESULT:      -7.5      4.486      7.425
REMARK  Name = 
REMARK  2 active torsions:
REMARK  status: ('A' for Active; 'I' for Inactive)
REMARK    1  A    between atoms: C_2  and  C_4
REMARK    2  A    between atoms: C_8  and  C_9
REMARK                            x       y       z     vdW  Elec       q    Type
REMARK                         _______ _______ _______ _____ _____    ______ ____
ROOT
ATOM      1  C   UNL     1       5.597   5.032  15.750  0.00  0.00    +0.000 A 
ATOM      2  C   UNL     1       5.041   6.282  16.051  0.00  0.00    +0.000 A 
ATOM      3  C   UNL     1       4.109   6.217  17.094  0.00  0.00    +0.000 A 
ATOM      4  C   UNL     1       3.405   7.290  17.655  0.00  0.00    +0.000 A 
ATOM      5  C   UNL     1       2.554   7.057  18.769  0.00  0.00    +0.000 A 
ATOM      6  C   UNL     1       2.413   5.729  19.254  0.00  0.00    +0.000 A 
ATOM      7  C   UNL     1       3.095   4.663  18.660  0.00  0.00    +0.000 A 
ATOM      8  C   UNL     1       3.939   4.936  17.594  0.00  0.00    +0.000 A 
ATOM      9  S   UNL     1       4.907   3.858  16.755  0.00  0.00    +0.000 S 
ENDROOT
BRANCH   1  11
ATOM     10  N   UNL     1       7.729   5.475  14.756  0.00  0.00    +0.000 NA
ATOM     11  C   UNL     1       6.655   4.766  14.752  0.00  0.00    +0.000 C 
ATOM     12  N   UNL     1       6.505   3.713  13.807  0.00  0.00    +0.000 N 
ATOM     13  H   UNL     1       8.488   5.307  14.077  0.00  0.00    +0.000 HD
ATOM     14  H   UNL     1       7.243   3.520  13.114  0.00  0.00    +0.000 HD
ATOM     15  H   UNL     1       5.653   3.136  13.784  0.00  0.00    +0.000 HD
ENDBRANCH   1  11
BRANCH   5  16
ATOM     16  C   UNL     1       1.844   8.189  19.448  0.00  0.00    +0.000 A 
ATOM     17  C   UNL     1       1.480   8.121  20.810  0.00  0.00    +0.000 A 
ATOM     18  C   UNL     1       0.806   9.187  21.419  0.00  0.00    +0.000 A 
ATOM     19  C   UNL     1       0.468  10.321  20.679  0.00  0.00    +0.000 A 
ATOM     20  C   UNL     1       0.809  10.399  19.331  0.00  0.00    +0.000 A 
ATOM     21  C   UNL     1       1.499   9.350  18.721  0.00  0.00    +0.000 A 
ENDBRANCH   5  16
TORSDOF 2
ENDMDL
MODEL 7
REMARK VINA RESULT:      -7.5      4.627      7.793
REMARK  Name = 
REMARK  2 active torsions:
REMARK  status: ('A' for Active; 'I' for Inactive)
REMARK    1  A    between atoms: C_2  and  C_4
REMARK    2  A    between atoms: C_8  and  C_9
REMARK                            x       y       z     vdW  Elec       q    Type
REMARK                         _______ _______ _______ _____ _____    ______ ____
ROOT
ATOM      1  C   UNL     1       3.299   3.930  19.058  0.00  0.00    +0.000 A 
ATOM      2  C   UNL     1       2.700   4.605  20.129  0.00  0.00    +0.000 A 
ATOM      3  C   UNL     1       2.414   5.943  19.827  0.00  0.00    +0.000 A 
ATOM      4  C   UNL     1       1.786   6.874  20.664  0.00  0.00    +0.000 A 
ATOM      5  C   UNL     1       1.497   8.173  20.167  0.00  0.00    +0.000 A 
ATOM      6  C   UNL     1       1.894   8.500  18.842  0.00  0.00    +0.000 A 
ATOM      7  C   UNL     1       2.552   7.570  18.031  0.00  0.00    +0.000 A 
ATOM      8  C   UNL     1       2.788   6.304  18.543  0.00  0.00    +0.000 A 
ATOM      9  S   UNL     1       3.496   5.002  17.763  0.00  0.00    +0.000 S 
ENDROOT
BRANCH   1  11
ATOM     10  N   UNL     1       2.942   1.671  18.353  0.00  0.00    +0.000 NA
ATOM     11  C   UNL     1       3.664   2.498  19.025  0.00  0.00    +0.000 C 
ATOM     12  N   UNL     1       4.823   2.034  19.707  0.00  0.00    +0.000 N 
ATOM     13  H   UNL     1       3.177   0.667  18.305  0.00  0.00    +0.000 HD
ATOM     14  H   UNL     1       5.084   1.038  19.682  0.00  0.00    +0.000 HD
ATOM     15  H   UNL     1       5.412   2.677  20.254  0.00  0.00    +0.000 HD
ENDBRANCH   1  11
BRANCH   5  16
ATOM     16  C   UNL     1       0.758   9.173  21.002  0.00  0.00    +0.000 A 
ATOM     17  C   UNL     1       0.363   8.882  22.326  0.00  0.00    +0.000 A 
ATOM     18  C   UNL     1      -0.337   9.829  23.084  0.00  0.00    +0.000 A 
ATOM     19  C   UNL     1      -0.672  11.065  22.530  0.00  0.00    +0.000 A 
ATOM     20  C   UNL     1      -0.300  11.365  21.220  0.00  0.00    +0.000 A 
ATOM     21  C   UNL     1       0.416  10.434  20.466  0.00  0.00    +0.000 A 
ENDBRANCH   5  16
TORSDOF 2
ENDMDL
MODEL 8
REMARK VINA RESULT:      -7.4      4.654      7.473
REMARK  Name = 
REMARK  2 active torsions:
REMARK  status: ('A' for Active; 'I' for Inactive)
REMARK    1  A    between atoms: C_2  and  C_4
REMARK    2  A    between atoms: C_8  and  C_9
REMARK                            x       y       z     vdW  Elec       q    Type
REMARK                         _______ _______ _______ _____ _____    ______ ____
ROOT
ATOM      1  C   UNL     1       5.835   5.356  17.122  0.00  0.00    +0.000 A 
ATOM      2  C   UNL     1       5.083   6.523  16.938  0.00  0.00    +0.000 A 
ATOM      3  C   UNL     1       4.045   6.645  17.870  0.00  0.00    +0.000 A 
ATOM      4  C   UNL     1       3.138   7.707  17.979  0.00  0.00    +0.000 A 
ATOM      5  C   UNL     1       2.194   7.710  19.041  0.00  0.00    +0.000 A 
ATOM      6  C   UNL     1       2.174   6.609  19.939  0.00  0.00    +0.000 A 
ATOM      7  C   UNL     1       3.063   5.539  19.795  0.00  0.00    +0.000 A 
ATOM      8  C   UNL     1       3.989   5.588  18.764  0.00  0.00    +0.000 A 
ATOM      9  S   UNL     1       5.190   4.475  18.416  0.00  0.00    +0.000 S 
ENDROOT
BRANCH   1  11
ATOM     10  N   UNL     1       7.921   4.203  16.898  0.00  0.00    +0.000 NA
ATOM     11  C   UNL     1       7.035   4.963  16.354  0.00  0.00    +0.000 C 
ATOM     12  N   UNL     1       7.203   5.394  15.009  0.00  0.00    +0.000 N 
ATOM     13  H   UNL     1       8.764   3.905  16.384  0.00  0.00    +0.000 HD
ATOM     14  H   UNL     1       8.035   5.117  14.468  0.00  0.00    +0.000 HD
ATOM     15  H   UNL     1       6.510   6.005  14.555  0.00  0.00    +0.000 HD
ENDBRANCH   1  11
BRANCH   5  16
ATOM     16  C   UNL     1       1.259   8.863  19.239  0.00  0.00    +0.000 A 
ATOM     17  C   UNL     1       0.806   9.643  18.153  0.00  0.00    +0.000 A 
ATOM     18  C   UNL     1      -0.059  10.723  18.364  0.00  0.00    +0.000 A 
ATOM     19  C   UNL     1      -0.468  11.055  19.657  0.00  0.00    +0.000 A 
ATOM     20  C   UNL     1      -0.022  10.303  20.742  0.00  0.00    +0.000 A 
ATOM     21  C   UNL     1       0.825   9.212  20.537  0.00  0.00    +0.000 A 
ENDBRANCH   5  16
TORSDOF 2
ENDMDL
MODEL 9
REMARK VINA RESULT:      -7.4      4.479      7.434
REMARK  Name = 
REMARK  2 active torsions:
REMARK  status: ('A' for Active; 'I' for Inactive)
REMARK    1  A    between atoms: C_2  and  C_4
REMARK    2  A    between atoms: C_8  and  C_9
REMARK                            x       y       z     vdW  Elec       q    Type
REMARK                         _______ _______ _______ _____ _____    ______ ____
ROOT
ATOM      1  C   UNL     1       5.537   5.001  16.009  0.00  0.00    +0.000 A 
ATOM      2  C   UNL     1       4.888   6.227  16.205  0.00  0.00    +0.000 A 
ATOM      3  C   UNL     1       4.030   6.207  17.312  0.00  0.00    +0.000 A 
ATOM      4  C   UNL     1       3.265   7.276  17.797  0.00  0.00    +0.000 A 
ATOM      5  C   UNL     1       2.508   7.106  18.987  0.00  0.00    +0.000 A 
ATOM      6  C   UNL     1       2.520   5.838  19.628  0.00  0.00    +0.000 A 
ATOM      7  C   UNL     1       3.261   4.771  19.111  0.00  0.00    +0.000 A 
ATOM      8  C   UNL     1       4.010   4.985  17.965  0.00  0.00    +0.000 A 
ATOM      9  S   UNL     1       5.021   3.901  17.187  0.00  0.00    +0.000 S 
ENDROOT
BRANCH   1  11
ATOM     10  N   UNL     1       7.612   5.436  14.897  0.00  0.00    +0.000 NA
ATOM     11  C   UNL     1       6.553   4.709  14.975  0.00  0.00    +0.000 C 
ATOM     12  N   UNL     1       6.380   3.612  14.086  0.00  0.00    +0.000 N 
ATOM     13  H   UNL     1       8.341   5.251  14.191  0.00  0.00    +0.000 HD
ATOM     14  H   UNL     1       7.089   3.400  13.369  0.00  0.00    +0.000 HD
ATOM     15  H   UNL     1       5.540   3.019  14.128  0.00  0.00    +0.000 HD
ENDBRANCH   1  11
BRANCH   5  16
ATOM     16  C   UNL     1       1.739   8.246  19.582  0.00  0.00    +0.000 A 
ATOM     17  C   UNL     1       1.427   9.399  18.830  0.00  0.00    +0.000 A 
ATOM     18  C   UNL     1       0.716  10.457  19.411  0.00  0.00    +0.000 A 
ATOM     19  C   UNL     1       0.326  10.391  20.749  0.00  0.00    +0.000 A 
ATOM     20  C   UNL     1       0.636   9.265  21.510  0.00  0.00    +0.000 A 
ATOM     21  C   UNL     1       1.326   8.198  20.932  0.00  0.00    +0.000 A 
ENDBRANCH   5  16
TORSDOF 2
ENDMDL
