MODEL 1
REMARK VINA RESULT:      -7.8      0.000      0.000
REMARK  Name = 
REMARK  5 active torsions:
REMARK  status: ('A' for Active; 'I' for Inactive)
REMARK    1  A    between atoms: C_1  and  C_2
REMARK    2  A    between atoms: C_6  and  C_7
REMARK    3  A    between atoms: C_14  and  C_15
REMARK    4  A    between atoms: N_18  and  C_19
REMARK    5  A    between atoms: C_19  and  C_20
REMARK                            x       y       z     vdW  Elec       q    Type
REMARK                         _______ _______ _______ _____ _____    ______ ____
ROOT
ATOM      1  C   UNL     1       3.203   5.307  18.260  0.00  0.00    +0.000 C 
ATOM      2  O   UNL     1       2.504   6.160  17.703  0.00  0.00    +0.000 OA
ATOM      3  N   UNL     1       4.594   5.325  18.045  0.00  0.00    +0.000 N 
ATOM      4  C   UNL     1       5.620   4.587  18.792  0.00  0.00    +0.000 C 
ATOM      5  C   UNL     1       6.809   5.459  19.230  0.00  0.00    +0.000 C 
ATOM      6  O   UNL     1       7.268   6.382  18.241  0.00  0.00    +0.000 OA
ATOM      7  C   UNL     1       6.186   7.147  17.681  0.00  0.00    +0.000 C 
ATOM      8  C   UNL     1       5.142   6.232  17.007  0.00  0.00    +0.000 C 
ENDROOT
BRANCH   1  14
ATOM      9  C   UNL     1       2.755   2.145  17.804  0.00  0.00    +0.000 C 
ATOM     10  C   UNL     1       2.376   2.980  18.977  0.00  0.00    +0.000 A 
ATOM     11  N   UNL     1       1.694   2.335  20.007  0.00  0.00    +0.000 NA
ATOM     12  C   UNL     1       1.532   3.165  21.009  0.00  0.00    +0.000 A 
ATOM     13  S   UNL     1       2.223   4.710  20.818  0.00  0.00    +0.000 S 
ATOM     14  C   UNL     1       2.592   4.347  19.174  0.00  0.00    +0.000 A 
ENDBRANCH   1  14
BRANCH   8  15
ATOM     15  C   UNL     1       5.763   5.461  15.853  0.00  0.00    +0.000 A 
ATOM     16  N   UNL     1       7.000   5.796  15.342  0.00  0.00    +0.000 NA
ATOM     17  C   UNL     1       7.248   4.851  14.471  0.00  0.00    +0.000 A 
ATOM     18  N   UNL     1       6.187   4.007  14.416  0.00  0.00    +0.000 N 
ATOM     19  N   UNL     1       5.209   4.386  15.260  0.00  0.00    +0.000 NA
BRANCH  18  20
ATOM     20  C   UNL     1       6.014   2.880  13.538  0.00  0.00    +0.000 C 
BRANCH  20  21
ATOM     21  C   UNL     1       5.600   3.287  12.147  0.00  0.00    +0.000 C 
ATOM     22  F   UNL     1       4.446   3.981  12.094  0.00  0.00    +0.000 F 
ATOM     23  F   UNL     1       6.557   4.036  11.554  0.00  0.00    +0.000 F 
ATOM     24  F   UNL     1       5.430   2.184  11.375  0.00  0.00    +0.000 F 
ENDBRANCH  20  21
ENDBRANCH  18  20
ENDBRANCH   8  15
TORSDOF 4
ENDMDL
MODEL 2
REMARK VINA RESULT:      -7.5      0.795      1.178
REMARK  Name = 
REMARK  5 active torsions:
REMARK  status: ('A' for Active; 'I' for Inactive)
REMARK    1  A    between atoms: C_1  and  C_2
REMARK    2  A    between atoms: C_6  and  C_7
REMARK    3  A    between atoms: C_14  and  C_15
REMARK    4  A    between atoms: N_18  and  C_19
REMARK    5  A    between atoms: C_19  and  C_20
REMARK                            x       y       z     vdW  Elec       q    Type
REMARK                         _______ _______ _______ _____ _____    ______ ____
ROOT
ATOM      1  C   UNL     1       3.106   5.207  18.322  0.00  0.00    +0.000 C 
ATOM      2  O   UNL     1       2.396   6.016  17.715  0.00  0.00    +0.000 OA
ATOM      3  N   UNL     1       4.499   5.245  18.124  0.00  0.00    +0.000 N 
ATOM      4  C   UNL     1       5.531   4.569  18.919  0.00  0.00    +0.000 C 
ATOM      5  C   UNL     1       6.695   5.488  19.327  0.00  0.00    +0.000 C 
ATOM      6  O   UNL     1       7.147   6.370  18.298  0.00  0.00    +0.000 OA
ATOM      7  C   UNL     1       6.056   7.082  17.687  0.00  0.00    +0.000 C 
ATOM      8  C   UNL     1       5.041   6.112  17.047  0.00  0.00    +0.000 C 
ENDROOT
BRANCH   1  14
ATOM      9  C   UNL     1       2.639   2.034  17.978  0.00  0.00    +0.000 C 
ATOM     10  C   UNL     1       2.280   2.909  19.128  0.00  0.00    +0.000 A 
ATOM     11  N   UNL     1       1.610   2.302  20.189  0.00  0.00    +0.000 NA
ATOM     12  C   UNL     1       1.465   3.165  21.165  0.00  0.00    +0.000 A 
ATOM     13  S   UNL     1       2.160   4.700  20.913  0.00  0.00    +0.000 S 
ATOM     14  C   UNL     1       2.504   4.281  19.276  0.00  0.00    +0.000 A 
ENDBRANCH   1  14
BRANCH   8  15
ATOM     15  C   UNL     1       5.694   5.298  15.942  0.00  0.00    +0.000 A 
ATOM     16  N   UNL     1       5.380   3.970  15.739  0.00  0.00    +0.000 NA
ATOM     17  C   UNL     1       6.028   3.656  14.646  0.00  0.00    +0.000 A 
ATOM     18  N   UNL     1       6.746   4.729  14.230  0.00  0.00    +0.000 N 
ATOM     19  N   UNL     1       6.582   5.783  15.052  0.00  0.00    +0.000 NA
BRANCH  18  20
ATOM     20  C   UNL     1       7.654   4.792  13.116  0.00  0.00    +0.000 C 
BRANCH  20  21
ATOM     21  C   UNL     1       7.057   4.235  11.849  0.00  0.00    +0.000 C 
ATOM     22  F   UNL     1       5.728   4.020  11.912  0.00  0.00    +0.000 F 
ATOM     23  F   UNL     1       7.291   5.055  10.799  0.00  0.00    +0.000 F 
ATOM     24  F   UNL     1       7.633   3.043  11.552  0.00  0.00    +0.000 F 
ENDBRANCH  20  21
ENDBRANCH  18  20
ENDBRANCH   8  15
TORSDOF 4
ENDMDL
MODEL 3
REMARK VINA RESULT:      -7.4      0.940      1.336
REMARK  Name = 
REMARK  5 active torsions:
REMARK  status: ('A' for Active; 'I' for Inactive)
REMARK    1  A    between atoms: C_1  and  C_2
REMARK    2  A    between atoms: C_6  and  C_7
REMARK    3  A    between atoms: C_14  and  C_15
REMARK    4  A    between atoms: N_18  and  C_19
REMARK    5  A    between atoms: C_19  and  C_20
REMARK                            x       y       z     vdW  Elec       q    Type
REMARK                         _______ _______ _______ _____ _____    ______ ____
ROOT
ATOM      1  C   UNL     1       3.311   5.377  18.196  0.00  0.00    +0.000 C 
ATOM      2  O   UNL     1       2.614   6.222  17.622  0.00  0.00    +0.000 OA
ATOM      3  N   UNL     1       4.700   5.380  17.973  0.00  0.00    +0.000 N 
ATOM      4  C   UNL     1       5.726   4.653  18.732  0.00  0.00    +0.000 C 
ATOM      5  C   UNL     1       6.923   5.528  19.142  0.00  0.00    +0.000 C 
ATOM      6  O   UNL     1       7.383   6.423  18.129  0.00  0.00    +0.000 OA
ATOM      7  C   UNL     1       6.303   7.182  17.556  0.00  0.00    +0.000 C 
ATOM      8  C   UNL     1       5.249   6.259  16.910  0.00  0.00    +0.000 C 
ENDROOT
BRANCH   1  14
ATOM      9  C   UNL     1       1.631   6.067  20.862  0.00  0.00    +0.000 C 
ATOM     10  C   UNL     1       1.987   4.732  20.304  0.00  0.00    +0.000 A 
ATOM     11  N   UNL     1       1.589   3.620  21.043  0.00  0.00    +0.000 NA
ATOM     12  C   UNL     1       1.869   2.528  20.375  0.00  0.00    +0.000 A 
ATOM     13  S   UNL     1       2.550   2.754  18.829  0.00  0.00    +0.000 S 
ATOM     14  C   UNL     1       2.699   4.444  19.136  0.00  0.00    +0.000 A 
ENDBRANCH   1  14
BRANCH   8  15
ATOM     15  C   UNL     1       5.858   5.456  15.772  0.00  0.00    +0.000 A 
ATOM     16  N   UNL     1       7.108   5.750  15.267  0.00  0.00    +0.000 NA
ATOM     17  C   UNL     1       7.337   4.787  14.411  0.00  0.00    +0.000 A 
ATOM     18  N   UNL     1       6.254   3.971  14.357  0.00  0.00    +0.000 N 
ATOM     19  N   UNL     1       5.280   4.389  15.188  0.00  0.00    +0.000 NA
BRANCH  18  20
ATOM     20  C   UNL     1       6.057   2.838  13.493  0.00  0.00    +0.000 C 
BRANCH  20  21
ATOM     21  C   UNL     1       5.621   3.236  12.105  0.00  0.00    +0.000 C 
ATOM     22  F   UNL     1       4.446   3.895  12.062  0.00  0.00    +0.000 F 
ATOM     23  F   UNL     1       6.551   4.016  11.508  0.00  0.00    +0.000 F 
ATOM     24  F   UNL     1       5.480   2.131  11.332  0.00  0.00    +0.000 F 
ENDBRANCH  20  21
ENDBRANCH  18  20
ENDBRANCH   8  15
TORSDOF 4
ENDMDL
MODEL 4
REMARK VINA RESULT:      -7.1      1.214      1.935
REMARK  Name = 
REMARK  5 active torsions:
REMARK  status: ('A' for Active; 'I' for Inactive)
REMARK    1  A    between atoms: C_1  and  C_2
REMARK    2  A    between atoms: C_6  and  C_7
REMARK    3  A    between atoms: C_14  and  C_15
REMARK    4  A    between atoms: N_18  and  C_19
REMARK    5  A    between atoms: C_19  and  C_20
REMARK                            x       y       z     vdW  Elec       q    Type
REMARK                         _______ _______ _______ _____ _____    ______ ____
ROOT
ATOM      1  C   UNL     1       3.156   5.267  18.301  0.00  0.00    +0.000 C 
ATOM      2  O   UNL     1       2.449   6.065  17.676  0.00  0.00    +0.000 OA
ATOM      3  N   UNL     1       4.549   5.295  18.103  0.00  0.00    +0.000 N 
ATOM      4  C   UNL     1       5.578   4.632  18.913  0.00  0.00    +0.000 C 
ATOM      5  C   UNL     1       6.745   5.555  19.301  0.00  0.00    +0.000 C 
ATOM      6  O   UNL     1       7.201   6.412  18.253  0.00  0.00    +0.000 OA
ATOM      7  C   UNL     1       6.114   7.114  17.626  0.00  0.00    +0.000 C 
ATOM      8  C   UNL     1       5.095   6.135  17.007  0.00  0.00    +0.000 C 
ENDROOT
BRANCH   1  14
ATOM      9  C   UNL     1       1.517   6.043  20.970  0.00  0.00    +0.000 C 
ATOM     10  C   UNL     1       1.856   4.691  20.444  0.00  0.00    +0.000 A 
ATOM     11  N   UNL     1       1.460   3.603  21.220  0.00  0.00    +0.000 NA
ATOM     12  C   UNL     1       1.723   2.491  20.579  0.00  0.00    +0.000 A 
ATOM     13  S   UNL     1       2.385   2.668  19.018  0.00  0.00    +0.000 S 
ATOM     14  C   UNL     1       2.550   4.365  19.276  0.00  0.00    +0.000 A 
ENDBRANCH   1  14
BRANCH   8  15
ATOM     15  C   UNL     1       5.744   5.294  15.920  0.00  0.00    +0.000 A 
ATOM     16  N   UNL     1       5.448   3.955  15.768  0.00  0.00    +0.000 NA
ATOM     17  C   UNL     1       6.086   3.613  14.677  0.00  0.00    +0.000 A 
ATOM     18  N   UNL     1       6.781   4.682  14.214  0.00  0.00    +0.000 N 
ATOM     19  N   UNL     1       6.612   5.760  15.002  0.00  0.00    +0.000 NA
BRANCH  18  20
ATOM     20  C   UNL     1       7.672   4.720  13.085  0.00  0.00    +0.000 C 
BRANCH  20  21
ATOM     21  C   UNL     1       7.057   4.132  11.840  0.00  0.00    +0.000 C 
ATOM     22  F   UNL     1       7.544   2.922  11.502  0.00  0.00    +0.000 F 
ATOM     23  F   UNL     1       5.716   4.013  11.970  0.00  0.00    +0.000 F 
ATOM     24  F   UNL     1       7.278   4.954  10.784  0.00  0.00    +0.000 F 
ENDBRANCH  20  21
ENDBRANCH  18  20
ENDBRANCH   8  15
TORSDOF 4
ENDMDL
MODEL 5
REMARK VINA RESULT:      -6.9      0.886      1.067
REMARK  Name = 
REMARK  5 active torsions:
REMARK  status: ('A' for Active; 'I' for Inactive)
REMARK    1  A    between atoms: C_1  and  C_2
REMARK    2  A    between atoms: C_6  and  C_7
REMARK    3  A    between atoms: C_14  and  C_15
REMARK    4  A    between atoms: N_18  and  C_19
REMARK    5  A    between atoms: C_19  and  C_20
REMARK                            x       y       z     vdW  Elec       q    Type
REMARK                         _______ _______ _______ _____ _____    ______ ____
ROOT
ATOM      1  C   UNL     1       2.994   5.062  18.369  0.00  0.00    +0.000 C 
ATOM      2  O   UNL     1       2.219   5.784  17.730  0.00  0.00    +0.000 OA
ATOM      3  N   UNL     1       4.372   5.139  18.095  0.00  0.00    +0.000 N 
ATOM      4  C   UNL     1       5.471   4.579  18.892  0.00  0.00    +0.000 C 
ATOM      5  C   UNL     1       6.610   5.578  19.156  0.00  0.00    +0.000 C 
ATOM      6  O   UNL     1       6.972   6.382  18.032  0.00  0.00    +0.000 OA
ATOM      7  C   UNL     1       5.822   6.990  17.418  0.00  0.00    +0.000 C 
ATOM      8  C   UNL     1       4.822   5.927  16.920  0.00  0.00    +0.000 C 
ENDROOT
BRANCH   1  14
ATOM      9  C   UNL     1       2.822   1.841  18.399  0.00  0.00    +0.000 C 
ATOM     10  C   UNL     1       2.384   2.808  19.445  0.00  0.00    +0.000 A 
ATOM     11  N   UNL     1       1.774   2.269  20.576  0.00  0.00    +0.000 NA
ATOM     12  C   UNL     1       1.551   3.223  21.447  0.00  0.00    +0.000 A 
ATOM     13  S   UNL     1       2.101   4.776  21.011  0.00  0.00    +0.000 S 
ATOM     14  C   UNL     1       2.481   4.202  19.430  0.00  0.00    +0.000 A 
ENDBRANCH   1  14
BRANCH   8  15
ATOM     15  C   UNL     1       5.457   5.044  15.857  0.00  0.00    +0.000 A 
ATOM     16  N   UNL     1       6.045   3.837  16.176  0.00  0.00    +0.000 NA
ATOM     17  C   UNL     1       6.354   3.320  15.014  0.00  0.00    +0.000 A 
ATOM     18  N   UNL     1       6.017   4.195  14.033  0.00  0.00    +0.000 N 
ATOM     19  N   UNL     1       5.473   5.319  14.539  0.00  0.00    +0.000 NA
BRANCH  18  20
ATOM     20  C   UNL     1       6.252   4.056  12.621  0.00  0.00    +0.000 C 
BRANCH  20  21
ATOM     21  C   UNL     1       5.139   3.319  11.918  0.00  0.00    +0.000 C 
ATOM     22  F   UNL     1       4.702   3.921  10.794  0.00  0.00    +0.000 F 
ATOM     23  F   UNL     1       5.518   2.063  11.591  0.00  0.00    +0.000 F 
ATOM     24  F   UNL     1       4.069   3.205  12.744  0.00  0.00    +0.000 F 
ENDBRANCH  20  21
ENDBRANCH  18  20
ENDBRANCH   8  15
TORSDOF 4
ENDMDL
MODEL 6
REMARK VINA RESULT:      -6.6      1.599      2.173
REMARK  Name = 
REMARK  5 active torsions:
REMARK  status: ('A' for Active; 'I' for Inactive)
REMARK    1  A    between atoms: C_1  and  C_2
REMARK    2  A    between atoms: C_6  and  C_7
REMARK    3  A    between atoms: C_14  and  C_15
REMARK    4  A    between atoms: N_18  and  C_19
REMARK    5  A    between atoms: C_19  and  C_20
REMARK                            x       y       z     vdW  Elec       q    Type
REMARK                         _______ _______ _______ _____ _____    ______ ____
ROOT
ATOM      1  C   UNL     1       3.617   6.499  18.170  0.00  0.00    +0.000 C 
ATOM      2  O   UNL     1       3.228   7.424  17.449  0.00  0.00    +0.000 OA
ATOM      3  N   UNL     1       4.941   6.043  18.031  0.00  0.00    +0.000 N 
ATOM      4  C   UNL     1       5.678   5.154  18.939  0.00  0.00    +0.000 C 
ATOM      5  C   UNL     1       7.082   5.668  19.299  0.00  0.00    +0.000 C 
ATOM      6  O   UNL     1       7.813   6.223  18.204  0.00  0.00    +0.000 OA
ATOM      7  C   UNL     1       7.032   7.185  17.472  0.00  0.00    +0.000 C 
ATOM      8  C   UNL     1       5.752   6.547  16.894  0.00  0.00    +0.000 C 
ENDROOT
BRANCH   1  14
ATOM      9  C   UNL     1       1.839   8.101  20.333  0.00  0.00    +0.000 C 
ATOM     10  C   UNL     1       1.973   6.629  20.142  0.00  0.00    +0.000 A 
ATOM     11  N   UNL     1       1.279   5.819  21.039  0.00  0.00    +0.000 NA
ATOM     12  C   UNL     1       1.401   4.565  20.678  0.00  0.00    +0.000 A 
ATOM     13  S   UNL     1       2.274   4.283  19.242  0.00  0.00    +0.000 S 
ATOM     14  C   UNL     1       2.731   5.945  19.189  0.00  0.00    +0.000 A 
ENDBRANCH   1  14
BRANCH   8  15
ATOM     15  C   UNL     1       6.097   5.439  15.911  0.00  0.00    +0.000 A 
ATOM     16  N   UNL     1       6.170   4.119  16.305  0.00  0.00    +0.000 NA
ATOM     17  C   UNL     1       6.356   3.466  15.186  0.00  0.00    +0.000 A 
ATOM     18  N   UNL     1       6.445   4.352  14.162  0.00  0.00    +0.000 N 
ATOM     19  N   UNL     1       6.317   5.621  14.595  0.00  0.00    +0.000 NA
BRANCH  18  20
ATOM     20  C   UNL     1       6.722   4.064  12.780  0.00  0.00    +0.000 C 
BRANCH  20  21
ATOM     21  C   UNL     1       5.558   3.409  12.080  0.00  0.00    +0.000 C 
ATOM     22  F   UNL     1       5.697   2.080  11.903  0.00  0.00    +0.000 F 
ATOM     23  F   UNL     1       4.405   3.615  12.756  0.00  0.00    +0.000 F 
ATOM     24  F   UNL     1       5.395   3.954  10.849  0.00  0.00    +0.000 F 
ENDBRANCH  20  21
ENDBRANCH  18  20
ENDBRANCH   8  15
TORSDOF 4
ENDMDL
MODEL 7
REMARK VINA RESULT:      -6.5      1.348      1.840
REMARK  Name = 
REMARK  5 active torsions:
REMARK  status: ('A' for Active; 'I' for Inactive)
REMARK    1  A    between atoms: C_1  and  C_2
REMARK    2  A    between atoms: C_6  and  C_7
REMARK    3  A    between atoms: C_14  and  C_15
REMARK    4  A    between atoms: N_18  and  C_19
REMARK    5  A    between atoms: C_19  and  C_20
REMARK                            x       y       z     vdW  Elec       q    Type
REMARK                         _______ _______ _______ _____ _____    ______ ____
ROOT
ATOM      1  C   UNL     1       3.287   5.096  18.526  0.00  0.00    +0.000 C 
ATOM      2  O   UNL     1       2.404   5.709  17.917  0.00  0.00    +0.000 OA
ATOM      3  N   UNL     1       4.622   5.229  18.100  0.00  0.00    +0.000 N 
ATOM      4  C   UNL     1       5.833   4.810  18.817  0.00  0.00    +0.000 C 
ATOM      5  C   UNL     1       6.922   5.895  18.872  0.00  0.00    +0.000 C 
ATOM      6  O   UNL     1       7.110   6.614  17.652  0.00  0.00    +0.000 OA
ATOM      7  C   UNL     1       5.864   7.095  17.118  0.00  0.00    +0.000 C 
ATOM      8  C   UNL     1       4.894   5.933  16.821  0.00  0.00    +0.000 C 
ENDROOT
BRANCH   1  14
ATOM      9  C   UNL     1       1.503   5.987  21.062  0.00  0.00    +0.000 C 
ATOM     10  C   UNL     1       2.192   4.689  20.817  0.00  0.00    +0.000 A 
ATOM     11  N   UNL     1       2.104   3.735  21.829  0.00  0.00    +0.000 NA
ATOM     12  C   UNL     1       2.656   2.617  21.425  0.00  0.00    +0.000 A 
ATOM     13  S   UNL     1       3.243   2.611  19.826  0.00  0.00    +0.000 S 
ATOM     14  C   UNL     1       2.947   4.305  19.706  0.00  0.00    +0.000 A 
ENDBRANCH   1  14
BRANCH   8  15
ATOM     15  C   UNL     1       5.475   4.997  15.774  0.00  0.00    +0.000 A 
ATOM     16  N   UNL     1       5.959   3.749  16.108  0.00  0.00    +0.000 NA
ATOM     17  C   UNL     1       6.247   3.204  14.953  0.00  0.00    +0.000 A 
ATOM     18  N   UNL     1       5.999   4.098  13.963  0.00  0.00    +0.000 N 
ATOM     19  N   UNL     1       5.537   5.264  14.455  0.00  0.00    +0.000 NA
BRANCH  18  20
ATOM     20  C   UNL     1       6.248   3.933  12.556  0.00  0.00    +0.000 C 
BRANCH  20  21
ATOM     21  C   UNL     1       5.104   3.261  11.840  0.00  0.00    +0.000 C 
ATOM     22  F   UNL     1       5.387   2.023  11.388  0.00  0.00    +0.000 F 
ATOM     23  F   UNL     1       4.017   3.167  12.639  0.00  0.00    +0.000 F 
ATOM     24  F   UNL     1       4.738   3.998  10.762  0.00  0.00    +0.000 F 
ENDBRANCH  20  21
ENDBRANCH  18  20
ENDBRANCH   8  15
TORSDOF 4
ENDMDL
MODEL 8
REMARK VINA RESULT:      -6.4      1.200      1.418
REMARK  Name = 
REMARK  5 active torsions:
REMARK  status: ('A' for Active; 'I' for Inactive)
REMARK    1  A    between atoms: C_1  and  C_2
REMARK    2  A    between atoms: C_6  and  C_7
REMARK    3  A    between atoms: C_14  and  C_15
REMARK    4  A    between atoms: N_18  and  C_19
REMARK    5  A    between atoms: C_19  and  C_20
REMARK                            x       y       z     vdW  Elec       q    Type
REMARK                         _______ _______ _______ _____ _____    ______ ____
ROOT
ATOM      1  C   UNL     1       2.989   5.074  18.426  0.00  0.00    +0.000 C 
ATOM      2  O   UNL     1       2.216   5.835  17.834  0.00  0.00    +0.000 OA
ATOM      3  N   UNL     1       4.361   5.124  18.113  0.00  0.00    +0.000 N 
ATOM      4  C   UNL     1       5.468   4.512  18.858  0.00  0.00    +0.000 C 
ATOM      5  C   UNL     1       6.640   5.472  19.118  0.00  0.00    +0.000 C 
ATOM      6  O   UNL     1       6.989   6.301  18.008  0.00  0.00    +0.000 OA
ATOM      7  C   UNL     1       5.838   6.958  17.449  0.00  0.00    +0.000 C 
ATOM      8  C   UNL     1       4.796   5.937  16.949  0.00  0.00    +0.000 C 
ENDROOT
BRANCH   1  14
ATOM      9  C   UNL     1       2.785   1.855  18.385  0.00  0.00    +0.000 C 
ATOM     10  C   UNL     1       2.375   2.801  19.460  0.00  0.00    +0.000 A 
ATOM     11  N   UNL     1       1.779   2.243  20.589  0.00  0.00    +0.000 NA
ATOM     12  C   UNL     1       1.582   3.177  21.486  0.00  0.00    +0.000 A 
ATOM     13  S   UNL     1       2.140   4.734  21.077  0.00  0.00    +0.000 S 
ATOM     14  C   UNL     1       2.486   4.194  19.477  0.00  0.00    +0.000 A 
ENDBRANCH   1  14
BRANCH   8  15
ATOM     15  C   UNL     1       5.374   5.072  15.841  0.00  0.00    +0.000 A 
ATOM     16  N   UNL     1       6.079   3.918  16.117  0.00  0.00    +0.000 NA
ATOM     17  C   UNL     1       6.298   3.393  14.939  0.00  0.00    +0.000 A 
ATOM     18  N   UNL     1       5.795   4.215  13.984  0.00  0.00    +0.000 N 
ATOM     19  N   UNL     1       5.229   5.311  14.524  0.00  0.00    +0.000 NA
BRANCH  18  20
ATOM     20  C   UNL     1       5.886   4.053  12.557  0.00  0.00    +0.000 C 
BRANCH  20  21
ATOM     21  C   UNL     1       7.259   4.375  12.024  0.00  0.00    +0.000 C 
ATOM     22  F   UNL     1       8.044   5.049  12.887  0.00  0.00    +0.000 F 
ATOM     23  F   UNL     1       7.917   3.250  11.664  0.00  0.00    +0.000 F 
ATOM     24  F   UNL     1       7.153   5.141  10.909  0.00  0.00    +0.000 F 
ENDBRANCH  20  21
ENDBRANCH  18  20
ENDBRANCH   8  15
TORSDOF 4
ENDMDL
MODEL 9
REMARK VINA RESULT:      -6.3      1.247      1.620
REMARK  Name = 
REMARK  5 active torsions:
REMARK  status: ('A' for Active; 'I' for Inactive)
REMARK    1  A    between atoms: C_1  and  C_2
REMARK    2  A    between atoms: C_6  and  C_7
REMARK    3  A    between atoms: C_14  and  C_15
REMARK    4  A    between atoms: N_18  and  C_19
REMARK    5  A    between atoms: C_19  and  C_20
REMARK                            x       y       z     vdW  Elec       q    Type
REMARK                         _______ _______ _______ _____ _____    ______ ____
ROOT
ATOM      1  C   UNL     1       3.692   4.768  17.911  0.00  0.00    +0.000 C 
ATOM      2  O   UNL     1       2.826   5.504  17.425  0.00  0.00    +0.000 OA
ATOM      3  N   UNL     1       5.041   5.006  17.592  0.00  0.00    +0.000 N 
ATOM      4  C   UNL     1       6.226   4.434  18.244  0.00  0.00    +0.000 C 
ATOM      5  C   UNL     1       7.294   5.480  18.607  0.00  0.00    +0.000 C 
ATOM      6  O   UNL     1       7.524   6.470  17.603  0.00  0.00    +0.000 OA
ATOM      7  C   UNL     1       6.296   7.059  17.141  0.00  0.00    +0.000 C 
ATOM      8  C   UNL     1       5.358   5.996  16.532  0.00  0.00    +0.000 C 
ENDROOT
BRANCH   1  14
ATOM      9  C   UNL     1       2.226   5.099  20.766  0.00  0.00    +0.000 C 
ATOM     10  C   UNL     1       2.696   3.853  20.099  0.00  0.00    +0.000 A 
ATOM     11  N   UNL     1       2.530   2.665  20.807  0.00  0.00    +0.000 NA
ATOM     12  C   UNL     1       2.881   1.653  20.052  0.00  0.00    +0.000 A 
ATOM     13  S   UNL     1       3.358   2.039  18.462  0.00  0.00    +0.000 S 
ATOM     14  C   UNL     1       3.312   3.718  18.852  0.00  0.00    +0.000 A 
ENDBRANCH   1  14
BRANCH   8  15
ATOM     15  C   UNL     1       6.000   5.339  15.320  0.00  0.00    +0.000 A 
ATOM     16  N   UNL     1       7.305   5.605  14.960  0.00  0.00    +0.000 NA
ATOM     17  C   UNL     1       7.534   4.778  13.971  0.00  0.00    +0.000 A 
ATOM     18  N   UNL     1       6.404   4.076  13.707  0.00  0.00    +0.000 N 
ATOM     19  N   UNL     1       5.397   4.433  14.526  0.00  0.00    +0.000 NA
BRANCH  18  20
ATOM     20  C   UNL     1       6.198   3.118  12.653  0.00  0.00    +0.000 C 
BRANCH  20  21
ATOM     21  C   UNL     1       4.877   3.303  11.951  0.00  0.00    +0.000 C 
ATOM     22  F   UNL     1       4.774   4.456  11.261  0.00  0.00    +0.000 F 
ATOM     23  F   UNL     1       4.635   2.287  11.092  0.00  0.00    +0.000 F 
ATOM     24  F   UNL     1       3.868   3.298  12.859  0.00  0.00    +0.000 F 
ENDBRANCH  20  21
ENDBRANCH  18  20
ENDBRANCH   8  15
TORSDOF 4
ENDMDL
