MODEL 1
REMARK VINA RESULT:      -8.4      0.000      0.000
REMARK  Name = 
REMARK  4 active torsions:
REMARK  status: ('A' for Active; 'I' for Inactive)
REMARK    1  A    between atoms: N_3  and  C_4
REMARK    2  A    between atoms: C_8  and  C_9
REMARK    3  A    between atoms: N_14  and  C_15
REMARK    4  A    between atoms: C_20  and  C_21
REMARK                            x       y       z     vdW  Elec       q    Type
REMARK                         _______ _______ _______ _____ _____    ______ ____
ROOT
ATOM      1  O   UNL     1       8.436   7.625  18.656  0.00  0.00    +0.000 OA
ATOM      2  C   UNL     1       7.878   8.333  17.825  0.00  0.00    +0.000 C 
ATOM      3  N   UNL     1       8.146   9.683  17.650  0.00  0.00    +0.000 N 
ATOM      4  N   UNL     1       6.884   7.885  16.967  0.00  0.00    +0.000 N 
ATOM      5  H   UNL     1       7.503  10.203  17.070  0.00  0.00    +0.000 HD
ATOM      6  H   UNL     1       6.628   8.497  16.207  0.00  0.00    +0.000 HD
ENDROOT
BRANCH   4   7
ATOM      7  C   UNL     1       6.277   6.606  16.986  0.00  0.00    +0.000 A 
ATOM      8  C   UNL     1       6.929   5.434  16.594  0.00  0.00    +0.000 A 
ATOM      9  C   UNL     1       6.273   4.201  16.632  0.00  0.00    +0.000 A 
ATOM     10  C   UNL     1       4.963   4.128  17.080  0.00  0.00    +0.000 A 
ATOM     11  F   UNL     1       4.365   2.928  17.108  0.00  0.00    +0.000 F 
ATOM     12  C   UNL     1       4.285   5.269  17.493  0.00  0.00    +0.000 A 
ATOM     13  C   UNL     1       4.954   6.512  17.445  0.00  0.00    +0.000 A 
BRANCH  12  14
ATOM     14  C   UNL     1       2.875   5.187  17.993  0.00  0.00    +0.000 C 
ATOM     15  F   UNL     1       2.020   4.471  17.216  0.00  0.00    +0.000 F 
ATOM     16  F   UNL     1       2.808   4.625  19.233  0.00  0.00    +0.000 F 
ATOM     17  F   UNL     1       2.309   6.421  18.124  0.00  0.00    +0.000 F 
ENDBRANCH  12  14
ENDBRANCH   4   7
BRANCH   3  18
ATOM     18  C   UNL     1       9.055  10.443  18.430  0.00  0.00    +0.000 A 
ATOM     19  C   UNL     1       9.173  10.316  19.811  0.00  0.00    +0.000 A 
ATOM     20  C   UNL     1      10.030  11.161  20.491  0.00  0.00    +0.000 A 
ATOM     21  N   UNL     1      10.776  12.108  19.893  0.00  0.00    +0.000 NA
ATOM     22  C   UNL     1      10.682  12.223  18.539  0.00  0.00    +0.000 A 
ATOM     23  C   UNL     1       9.849  11.390  17.781  0.00  0.00    +0.000 A 
BRANCH  22  24
ATOM     24  C   UNL     1      11.473  13.312  17.831  0.00  0.00    +0.000 C 
ATOM     25  F   UNL     1      12.232  14.090  18.653  0.00  0.00    +0.000 F 
ATOM     26  F   UNL     1      12.330  12.808  16.896  0.00  0.00    +0.000 F 
ATOM     27  F   UNL     1      10.662  14.175  17.148  0.00  0.00    +0.000 F 
ENDBRANCH  22  24
ENDBRANCH   3  18
TORSDOF 4
ENDMDL
MODEL 2
REMARK VINA RESULT:      -8.3      7.171      8.547
REMARK  Name = 
REMARK  4 active torsions:
REMARK  status: ('A' for Active; 'I' for Inactive)
REMARK    1  A    between atoms: N_3  and  C_4
REMARK    2  A    between atoms: C_8  and  C_9
REMARK    3  A    between atoms: N_14  and  C_15
REMARK    4  A    between atoms: C_20  and  C_21
REMARK                            x       y       z     vdW  Elec       q    Type
REMARK                         _______ _______ _______ _____ _____    ______ ____
ROOT
ATOM      1  O   UNL     1       1.829   7.906  19.875  0.00  0.00    +0.000 OA
ATOM      2  C   UNL     1       2.115   7.969  18.684  0.00  0.00    +0.000 C 
ATOM      3  N   UNL     1       1.703   8.991  17.840  0.00  0.00    +0.000 N 
ATOM      4  N   UNL     1       2.863   7.013  18.013  0.00  0.00    +0.000 N 
ATOM      5  H   UNL     1       1.838   8.846  16.851  0.00  0.00    +0.000 HD
ATOM      6  H   UNL     1       3.190   7.254  17.091  0.00  0.00    +0.000 HD
ENDROOT
BRANCH   4   7
ATOM      7  C   UNL     1       3.309   5.778  18.544  0.00  0.00    +0.000 A 
ATOM      8  C   UNL     1       4.657   5.430  18.665  0.00  0.00    +0.000 A 
ATOM      9  C   UNL     1       5.034   4.192  19.193  0.00  0.00    +0.000 A 
ATOM     10  C   UNL     1       4.064   3.298  19.621  0.00  0.00    +0.000 A 
ATOM     11  F   UNL     1       4.460   2.122  20.128  0.00  0.00    +0.000 F 
ATOM     12  C   UNL     1       2.713   3.615  19.533  0.00  0.00    +0.000 A 
ATOM     13  C   UNL     1       2.342   4.865  18.991  0.00  0.00    +0.000 A 
BRANCH  12  14
ATOM     14  C   UNL     1       1.666   2.656  20.012  0.00  0.00    +0.000 C 
ATOM     15  F   UNL     1       1.769   2.281  21.314  0.00  0.00    +0.000 F 
ATOM     16  F   UNL     1       0.409   3.165  19.871  0.00  0.00    +0.000 F 
ATOM     17  F   UNL     1       1.671   1.497  19.293  0.00  0.00    +0.000 F 
ENDBRANCH  12  14
ENDBRANCH   4   7
BRANCH   3  18
ATOM     18  C   UNL     1       0.862  10.070  18.216  0.00  0.00    +0.000 A 
ATOM     19  C   UNL     1       1.305  11.170  18.945  0.00  0.00    +0.000 A 
ATOM     20  C   UNL     1       0.389  12.130  19.334  0.00  0.00    +0.000 A 
ATOM     21  N   UNL     1      -0.923  12.073  19.040  0.00  0.00    +0.000 NA
ATOM     22  C   UNL     1      -1.359  11.011  18.307  0.00  0.00    +0.000 A 
ATOM     23  C   UNL     1      -0.487  10.009  17.863  0.00  0.00    +0.000 A 
BRANCH  22  24
ATOM     24  C   UNL     1      -2.843  10.886  17.995  0.00  0.00    +0.000 C 
ATOM     25  F   UNL     1      -3.300   9.604  17.913  0.00  0.00    +0.000 F 
ATOM     26  F   UNL     1      -3.625  11.504  18.928  0.00  0.00    +0.000 F 
ATOM     27  F   UNL     1      -3.170  11.473  16.805  0.00  0.00    +0.000 F 
ENDBRANCH  22  24
ENDBRANCH   3  18
TORSDOF 4
ENDMDL
MODEL 3
REMARK VINA RESULT:      -8.3      0.216      1.102
REMARK  Name = 
REMARK  4 active torsions:
REMARK  status: ('A' for Active; 'I' for Inactive)
REMARK    1  A    between atoms: N_3  and  C_4
REMARK    2  A    between atoms: C_8  and  C_9
REMARK    3  A    between atoms: N_14  and  C_15
REMARK    4  A    between atoms: C_20  and  C_21
REMARK                            x       y       z     vdW  Elec       q    Type
REMARK                         _______ _______ _______ _____ _____    ______ ____
ROOT
ATOM      1  O   UNL     1       8.570   7.781  18.716  0.00  0.00    +0.000 OA
ATOM      2  C   UNL     1       8.007   8.479  17.880  0.00  0.00    +0.000 C 
ATOM      3  N   UNL     1       8.269   9.830  17.693  0.00  0.00    +0.000 N 
ATOM      4  N   UNL     1       7.014   8.021  17.027  0.00  0.00    +0.000 N 
ATOM      5  H   UNL     1       7.623  10.342  17.111  0.00  0.00    +0.000 HD
ATOM      6  H   UNL     1       6.754   8.626  16.263  0.00  0.00    +0.000 HD
ENDROOT
BRANCH   4   7
ATOM      7  C   UNL     1       6.412   6.739  17.057  0.00  0.00    +0.000 A 
ATOM      8  C   UNL     1       7.071   5.567  16.680  0.00  0.00    +0.000 A 
ATOM      9  C   UNL     1       6.420   4.331  16.728  0.00  0.00    +0.000 A 
ATOM     10  C   UNL     1       5.109   4.257  17.172  0.00  0.00    +0.000 A 
ATOM     11  F   UNL     1       4.516   3.054  17.211  0.00  0.00    +0.000 F 
ATOM     12  C   UNL     1       4.425   5.399  17.571  0.00  0.00    +0.000 A 
ATOM     13  C   UNL     1       5.089   6.644  17.512  0.00  0.00    +0.000 A 
BRANCH  12  14
ATOM     14  C   UNL     1       3.014   5.316  18.068  0.00  0.00    +0.000 C 
ATOM     15  F   UNL     1       2.860   4.775  19.305  0.00  0.00    +0.000 F 
ATOM     16  F   UNL     1       2.421   6.542  18.121  0.00  0.00    +0.000 F 
ATOM     17  F   UNL     1       2.227   4.569  17.240  0.00  0.00    +0.000 F 
ENDBRANCH  12  14
ENDBRANCH   4   7
BRANCH   3  18
ATOM     18  C   UNL     1       9.176  10.599  18.466  0.00  0.00    +0.000 A 
ATOM     19  C   UNL     1       9.322  10.459  19.843  0.00  0.00    +0.000 A 
ATOM     20  C   UNL     1      10.173  11.315  20.518  0.00  0.00    +0.000 A 
ATOM     21  N   UNL     1      10.888  12.284  19.917  0.00  0.00    +0.000 NA
ATOM     22  C   UNL     1      10.768  12.412  18.567  0.00  0.00    +0.000 A 
ATOM     23  C   UNL     1       9.939  11.570  17.814  0.00  0.00    +0.000 A 
BRANCH  22  24
ATOM     24  C   UNL     1      11.523  13.526  17.857  0.00  0.00    +0.000 C 
ATOM     25  F   UNL     1      12.328  13.109  16.840  0.00  0.00    +0.000 F 
ATOM     26  F   UNL     1      10.685  14.457  17.314  0.00  0.00    +0.000 F 
ATOM     27  F   UNL     1      12.332  14.223  18.710  0.00  0.00    +0.000 F 
ENDBRANCH  22  24
ENDBRANCH   3  18
TORSDOF 4
ENDMDL
MODEL 4
REMARK VINA RESULT:      -8.3      7.168      8.510
REMARK  Name = 
REMARK  4 active torsions:
REMARK  status: ('A' for Active; 'I' for Inactive)
REMARK    1  A    between atoms: N_3  and  C_4
REMARK    2  A    between atoms: C_8  and  C_9
REMARK    3  A    between atoms: N_14  and  C_15
REMARK    4  A    between atoms: C_20  and  C_21
REMARK                            x       y       z     vdW  Elec       q    Type
REMARK                         _______ _______ _______ _____ _____    ______ ____
ROOT
ATOM      1  O   UNL     1       1.845   7.924  19.892  0.00  0.00    +0.000 OA
ATOM      2  C   UNL     1       2.117   7.988  18.698  0.00  0.00    +0.000 C 
ATOM      3  N   UNL     1       1.700   9.013  17.861  0.00  0.00    +0.000 N 
ATOM      4  N   UNL     1       2.855   7.030  18.018  0.00  0.00    +0.000 N 
ATOM      5  H   UNL     1       1.824   8.869  16.870  0.00  0.00    +0.000 HD
ATOM      6  H   UNL     1       3.173   7.272  17.092  0.00  0.00    +0.000 HD
ENDROOT
BRANCH   4   7
ATOM      7  C   UNL     1       3.302   5.792  18.542  0.00  0.00    +0.000 A 
ATOM      8  C   UNL     1       4.651   5.456  18.685  0.00  0.00    +0.000 A 
ATOM      9  C   UNL     1       5.029   4.214  19.204  0.00  0.00    +0.000 A 
ATOM     10  C   UNL     1       4.059   3.307  19.602  0.00  0.00    +0.000 A 
ATOM     11  F   UNL     1       4.457   2.127  20.101  0.00  0.00    +0.000 F 
ATOM     12  C   UNL     1       2.708   3.611  19.491  0.00  0.00    +0.000 A 
ATOM     13  C   UNL     1       2.336   4.865  18.957  0.00  0.00    +0.000 A 
BRANCH  12  14
ATOM     14  C   UNL     1       1.661   2.637  19.937  0.00  0.00    +0.000 C 
ATOM     15  F   UNL     1       0.374   3.036  19.755  0.00  0.00    +0.000 F 
ATOM     16  F   UNL     1       1.773   1.441  19.293  0.00  0.00    +0.000 F 
ATOM     17  F   UNL     1       1.771   2.345  21.265  0.00  0.00    +0.000 F 
ENDBRANCH  12  14
ENDBRANCH   4   7
BRANCH   3  18
ATOM     18  C   UNL     1       0.867  10.095  18.248  0.00  0.00    +0.000 A 
ATOM     19  C   UNL     1       1.319  11.184  18.987  0.00  0.00    +0.000 A 
ATOM     20  C   UNL     1       0.410  12.147  19.386  0.00  0.00    +0.000 A 
ATOM     21  N   UNL     1      -0.902  12.102  19.092  0.00  0.00    +0.000 NA
ATOM     22  C   UNL     1      -1.347  11.050  18.350  0.00  0.00    +0.000 A 
ATOM     23  C   UNL     1      -0.482  10.046  17.895  0.00  0.00    +0.000 A 
BRANCH  22  24
ATOM     24  C   UNL     1      -2.832  10.938  18.038  0.00  0.00    +0.000 C 
ATOM     25  F   UNL     1      -3.651  11.528  18.954  0.00  0.00    +0.000 F 
ATOM     26  F   UNL     1      -3.154  11.496  16.834  0.00  0.00    +0.000 F 
ATOM     27  F   UNL     1      -3.244   9.638  17.955  0.00  0.00    +0.000 F 
ENDBRANCH  22  24
ENDBRANCH   3  18
TORSDOF 4
ENDMDL
MODEL 5
REMARK VINA RESULT:      -8.3      7.154      8.477
REMARK  Name = 
REMARK  4 active torsions:
REMARK  status: ('A' for Active; 'I' for Inactive)
REMARK    1  A    between atoms: N_3  and  C_4
REMARK    2  A    between atoms: C_8  and  C_9
REMARK    3  A    between atoms: N_14  and  C_15
REMARK    4  A    between atoms: C_20  and  C_21
REMARK                            x       y       z     vdW  Elec       q    Type
REMARK                         _______ _______ _______ _____ _____    ______ ____
ROOT
ATOM      1  O   UNL     1       1.872   7.938  19.864  0.00  0.00    +0.000 OA
ATOM      2  C   UNL     1       2.138   7.990  18.668  0.00  0.00    +0.000 C 
ATOM      3  N   UNL     1       1.718   9.008  17.824  0.00  0.00    +0.000 N 
ATOM      4  N   UNL     1       2.868   7.024  17.993  0.00  0.00    +0.000 N 
ATOM      5  H   UNL     1       1.836   8.855  16.833  0.00  0.00    +0.000 HD
ATOM      6  H   UNL     1       3.182   7.256  17.063  0.00  0.00    +0.000 HD
ENDROOT
BRANCH   4   7
ATOM      7  C   UNL     1       3.316   5.790  18.526  0.00  0.00    +0.000 A 
ATOM      8  C   UNL     1       4.664   5.448  18.657  0.00  0.00    +0.000 A 
ATOM      9  C   UNL     1       5.042   4.211  19.186  0.00  0.00    +0.000 A 
ATOM     10  C   UNL     1       4.073   3.313  19.606  0.00  0.00    +0.000 A 
ATOM     11  F   UNL     1       4.470   2.138  20.115  0.00  0.00    +0.000 F 
ATOM     12  C   UNL     1       2.721   3.624  19.507  0.00  0.00    +0.000 A 
ATOM     13  C   UNL     1       2.349   4.873  18.964  0.00  0.00    +0.000 A 
BRANCH  12  14
ATOM     14  C   UNL     1       1.675   2.660  19.977  0.00  0.00    +0.000 C 
ATOM     15  F   UNL     1       1.672   1.451  19.357  0.00  0.00    +0.000 F 
ATOM     16  F   UNL     1       1.791   2.394  21.309  0.00  0.00    +0.000 F 
ATOM     17  F   UNL     1       0.416   3.159  19.816  0.00  0.00    +0.000 F 
ENDBRANCH  12  14
ENDBRANCH   4   7
BRANCH   3  18
ATOM     18  C   UNL     1       0.890  10.096  18.204  0.00  0.00    +0.000 A 
ATOM     19  C   UNL     1       1.350  11.192  18.928  0.00  0.00    +0.000 A 
ATOM     20  C   UNL     1       0.446  12.162  19.324  0.00  0.00    +0.000 A 
ATOM     21  N   UNL     1      -0.869  12.116  19.041  0.00  0.00    +0.000 NA
ATOM     22  C   UNL     1      -1.321  11.057  18.313  0.00  0.00    +0.000 A 
ATOM     23  C   UNL     1      -0.462  10.047  17.863  0.00  0.00    +0.000 A 
BRANCH  22  24
ATOM     24  C   UNL     1      -2.808  10.945  18.013  0.00  0.00    +0.000 C 
ATOM     25  F   UNL     1      -3.199  11.529  16.845  0.00  0.00    +0.000 F 
ATOM     26  F   UNL     1      -3.228   9.648  17.942  0.00  0.00    +0.000 F 
ATOM     27  F   UNL     1      -3.575  11.519  18.988  0.00  0.00    +0.000 F 
ENDBRANCH  22  24
ENDBRANCH   3  18
TORSDOF 4
ENDMDL
MODEL 6
REMARK VINA RESULT:      -8.1      5.692      8.187
REMARK  Name = 
REMARK  4 active torsions:
REMARK  status: ('A' for Active; 'I' for Inactive)
REMARK    1  A    between atoms: N_3  and  C_4
REMARK    2  A    between atoms: C_8  and  C_9
REMARK    3  A    between atoms: N_14  and  C_15
REMARK    4  A    between atoms: C_20  and  C_21
REMARK                            x       y       z     vdW  Elec       q    Type
REMARK                         _______ _______ _______ _____ _____    ______ ____
ROOT
ATOM      1  O   UNL     1       2.057   7.767  18.839  0.00  0.00    +0.000 OA
ATOM      2  C   UNL     1       2.193   7.143  19.886  0.00  0.00    +0.000 C 
ATOM      3  N   UNL     1       1.636   7.529  21.097  0.00  0.00    +0.000 N 
ATOM      4  N   UNL     1       2.945   5.984  20.007  0.00  0.00    +0.000 N 
ATOM      5  H   UNL     1       1.963   7.048  21.922  0.00  0.00    +0.000 HD
ATOM      6  H   UNL     1       2.838   5.458  20.861  0.00  0.00    +0.000 HD
ENDROOT
BRANCH   4   7
ATOM      7  C   UNL     1       3.758   5.407  19.001  0.00  0.00    +0.000 A 
ATOM      8  C   UNL     1       3.253   4.668  17.928  0.00  0.00    +0.000 A 
ATOM      9  C   UNL     1       4.108   4.119  16.969  0.00  0.00    +0.000 A 
ATOM     10  C   UNL     1       5.477   4.321  17.067  0.00  0.00    +0.000 A 
ATOM     11  F   UNL     1       6.269   3.785  16.127  0.00  0.00    +0.000 F 
ATOM     12  C   UNL     1       6.016   5.063  18.111  0.00  0.00    +0.000 A 
ATOM     13  C   UNL     1       5.144   5.607  19.079  0.00  0.00    +0.000 A 
BRANCH  12  14
ATOM     14  C   UNL     1       7.493   5.295  18.207  0.00  0.00    +0.000 C 
ATOM     15  F   UNL     1       8.275   4.236  17.866  0.00  0.00    +0.000 F 
ATOM     16  F   UNL     1       7.898   6.326  17.412  0.00  0.00    +0.000 F 
ATOM     17  F   UNL     1       7.873   5.641  19.470  0.00  0.00    +0.000 F 
ENDBRANCH  12  14
ENDBRANCH   4   7
BRANCH   3  18
ATOM     18  C   UNL     1       0.881   8.712  21.309  0.00  0.00    +0.000 A 
ATOM     19  C   UNL     1       0.590   9.221  22.571  0.00  0.00    +0.000 A 
ATOM     20  C   UNL     1      -0.224  10.333  22.675  0.00  0.00    +0.000 A 
ATOM     21  N   UNL     1      -0.755  10.971  21.615  0.00  0.00    +0.000 NA
ATOM     22  C   UNL     1      -0.456  10.492  20.376  0.00  0.00    +0.000 A 
ATOM     23  C   UNL     1       0.376   9.380  20.192  0.00  0.00    +0.000 A 
BRANCH  22  24
ATOM     24  C   UNL     1      -1.075  11.156  19.155  0.00  0.00    +0.000 C 
ATOM     25  F   UNL     1      -2.034  12.082  19.437  0.00  0.00    +0.000 F 
ATOM     26  F   UNL     1      -0.147  11.799  18.387  0.00  0.00    +0.000 F 
ATOM     27  F   UNL     1      -1.668  10.250  18.322  0.00  0.00    +0.000 F 
ENDBRANCH  22  24
ENDBRANCH   3  18
TORSDOF 4
ENDMDL
MODEL 7
REMARK VINA RESULT:      -8.1      5.682      8.239
REMARK  Name = 
REMARK  4 active torsions:
REMARK  status: ('A' for Active; 'I' for Inactive)
REMARK    1  A    between atoms: N_3  and  C_4
REMARK    2  A    between atoms: C_8  and  C_9
REMARK    3  A    between atoms: N_14  and  C_15
REMARK    4  A    between atoms: C_20  and  C_21
REMARK                            x       y       z     vdW  Elec       q    Type
REMARK                         _______ _______ _______ _____ _____    ______ ____
ROOT
ATOM      1  O   UNL     1       2.074   7.772  18.857  0.00  0.00    +0.000 OA
ATOM      2  C   UNL     1       2.183   7.135  19.899  0.00  0.00    +0.000 C 
ATOM      3  N   UNL     1       1.610   7.515  21.105  0.00  0.00    +0.000 N 
ATOM      4  N   UNL     1       2.918   5.965  20.020  0.00  0.00    +0.000 N 
ATOM      5  H   UNL     1       1.916   7.020  21.930  0.00  0.00    +0.000 HD
ATOM      6  H   UNL     1       2.790   5.431  20.866  0.00  0.00    +0.000 HD
ENDROOT
BRANCH   4   7
ATOM      7  C   UNL     1       3.742   5.389  19.022  0.00  0.00    +0.000 A 
ATOM      8  C   UNL     1       3.252   4.609  17.971  0.00  0.00    +0.000 A 
ATOM      9  C   UNL     1       4.118   4.064  17.019  0.00  0.00    +0.000 A 
ATOM     10  C   UNL     1       5.480   4.310  17.101  0.00  0.00    +0.000 A 
ATOM     11  F   UNL     1       6.282   3.776  16.168  0.00  0.00    +0.000 F 
ATOM     12  C   UNL     1       6.004   5.094  18.123  0.00  0.00    +0.000 A 
ATOM     13  C   UNL     1       5.121   5.634  19.084  0.00  0.00    +0.000 A 
BRANCH  12  14
ATOM     14  C   UNL     1       7.473   5.374  18.202  0.00  0.00    +0.000 C 
ATOM     15  F   UNL     1       7.920   5.822  19.405  0.00  0.00    +0.000 F 
ATOM     16  F   UNL     1       8.216   4.267  17.918  0.00  0.00    +0.000 F 
ATOM     17  F   UNL     1       7.861   6.313  17.292  0.00  0.00    +0.000 F 
ENDBRANCH  12  14
ENDBRANCH   4   7
BRANCH   3  18
ATOM     18  C   UNL     1       0.866   8.704  21.317  0.00  0.00    +0.000 A 
ATOM     19  C   UNL     1       0.621   9.242  22.577  0.00  0.00    +0.000 A 
ATOM     20  C   UNL     1      -0.186  10.359  22.684  0.00  0.00    +0.000 A 
ATOM     21  N   UNL     1      -0.752  10.976  21.630  0.00  0.00    +0.000 NA
ATOM     22  C   UNL     1      -0.498  10.468  20.392  0.00  0.00    +0.000 A 
ATOM     23  C   UNL     1       0.324   9.350  20.204  0.00  0.00    +0.000 A 
BRANCH  22  24
ATOM     24  C   UNL     1      -1.157  11.107  19.179  0.00  0.00    +0.000 C 
ATOM     25  F   UNL     1      -1.498  10.234  18.190  0.00  0.00    +0.000 F 
ATOM     26  F   UNL     1      -2.305  11.773  19.502  0.00  0.00    +0.000 F 
ATOM     27  F   UNL     1      -0.353  12.041  18.589  0.00  0.00    +0.000 F 
ENDBRANCH  22  24
ENDBRANCH   3  18
TORSDOF 4
ENDMDL
MODEL 8
REMARK VINA RESULT:      -8.1      5.706      8.227
REMARK  Name = 
REMARK  4 active torsions:
REMARK  status: ('A' for Active; 'I' for Inactive)
REMARK    1  A    between atoms: N_3  and  C_4
REMARK    2  A    between atoms: C_8  and  C_9
REMARK    3  A    between atoms: N_14  and  C_15
REMARK    4  A    between atoms: C_20  and  C_21
REMARK                            x       y       z     vdW  Elec       q    Type
REMARK                         _______ _______ _______ _____ _____    ______ ____
ROOT
ATOM      1  O   UNL     1       2.233   7.773  19.622  0.00  0.00    +0.000 OA
ATOM      2  C   UNL     1       2.270   7.792  18.396  0.00  0.00    +0.000 C 
ATOM      3  N   UNL     1       3.013   6.906  17.628  0.00  0.00    +0.000 N 
ATOM      4  N   UNL     1       1.598   8.719  17.613  0.00  0.00    +0.000 N 
ATOM      5  H   UNL     1       3.116   7.128  16.649  0.00  0.00    +0.000 HD
ATOM      6  H   UNL     1       1.551   8.532  16.623  0.00  0.00    +0.000 HD
ENDROOT
BRANCH   4   7
ATOM      7  C   UNL     1       0.874   9.842  18.084  0.00  0.00    +0.000 A 
ATOM      8  C   UNL     1       1.468  10.929  18.731  0.00  0.00    +0.000 A 
ATOM      9  C   UNL     1       0.697  12.006  19.177  0.00  0.00    +0.000 A 
ATOM     10  C   UNL     1      -0.673  12.013  18.962  0.00  0.00    +0.000 A 
ATOM     11  F   UNL     1      -1.381  13.065  19.398  0.00  0.00    +0.000 F 
ATOM     12  C   UNL     1      -1.297  10.958  18.307  0.00  0.00    +0.000 A 
ATOM     13  C   UNL     1      -0.511   9.870  17.867  0.00  0.00    +0.000 A 
BRANCH  12  14
ATOM     14  C   UNL     1      -2.775  10.974  18.059  0.00  0.00    +0.000 C 
ATOM     15  F   UNL     1      -3.181  11.712  16.992  0.00  0.00    +0.000 F 
ATOM     16  F   UNL     1      -3.269   9.720  17.854  0.00  0.00    +0.000 F 
ATOM     17  F   UNL     1      -3.464  11.464  19.129  0.00  0.00    +0.000 F 
ENDBRANCH  12  14
ENDBRANCH   4   7
BRANCH   3  18
ATOM     18  C   UNL     1       3.865   5.895  18.144  0.00  0.00    +0.000 A 
ATOM     19  C   UNL     1       3.401   4.785  18.843  0.00  0.00    +0.000 A 
ATOM     20  C   UNL     1       4.318   3.898  19.378  0.00  0.00    +0.000 A 
ATOM     21  N   UNL     1       5.650   4.038  19.255  0.00  0.00    +0.000 NA
ATOM     22  C   UNL     1       6.110   5.110  18.553  0.00  0.00    +0.000 A 
ATOM     23  C   UNL     1       5.242   6.040  17.967  0.00  0.00    +0.000 A 
BRANCH  22  24
ATOM     24  C   UNL     1       7.611   5.329  18.432  0.00  0.00    +0.000 C 
ATOM     25  F   UNL     1       8.259   5.495  19.620  0.00  0.00    +0.000 F 
ATOM     26  F   UNL     1       8.239   4.291  17.806  0.00  0.00    +0.000 F 
ATOM     27  F   UNL     1       7.912   6.434  17.688  0.00  0.00    +0.000 F 
ENDBRANCH  22  24
ENDBRANCH   3  18
TORSDOF 4
ENDMDL
MODEL 9
REMARK VINA RESULT:      -8.1      5.683      8.257
REMARK  Name = 
REMARK  4 active torsions:
REMARK  status: ('A' for Active; 'I' for Inactive)
REMARK    1  A    between atoms: N_3  and  C_4
REMARK    2  A    between atoms: C_8  and  C_9
REMARK    3  A    between atoms: N_14  and  C_15
REMARK    4  A    between atoms: C_20  and  C_21
REMARK                            x       y       z     vdW  Elec       q    Type
REMARK                         _______ _______ _______ _____ _____    ______ ____
ROOT
ATOM      1  O   UNL     1       2.145   7.780  19.620  0.00  0.00    +0.000 OA
ATOM      2  C   UNL     1       2.243   7.849  18.399  0.00  0.00    +0.000 C 
ATOM      3  N   UNL     1       3.034   7.003  17.635  0.00  0.00    +0.000 N 
ATOM      4  N   UNL     1       1.600   8.801  17.622  0.00  0.00    +0.000 N 
ATOM      5  H   UNL     1       3.183   7.266  16.672  0.00  0.00    +0.000 HD
ATOM      6  H   UNL     1       1.604   8.653  16.625  0.00  0.00    +0.000 HD
ENDROOT
BRANCH   4   7
ATOM      7  C   UNL     1       0.840   9.896  18.101  0.00  0.00    +0.000 A 
ATOM      8  C   UNL     1       1.396  10.989  18.771  0.00  0.00    +0.000 A 
ATOM      9  C   UNL     1       0.590  12.038  19.223  0.00  0.00    +0.000 A 
ATOM     10  C   UNL     1      -0.777  12.010  18.992  0.00  0.00    +0.000 A 
ATOM     11  F   UNL     1      -1.519  13.035  19.435  0.00  0.00    +0.000 F 
ATOM     12  C   UNL     1      -1.365  10.947  18.315  0.00  0.00    +0.000 A 
ATOM     13  C   UNL     1      -0.544   9.889  17.869  0.00  0.00    +0.000 A 
BRANCH  12  14
ATOM     14  C   UNL     1      -2.839  10.926  18.051  0.00  0.00    +0.000 C 
ATOM     15  F   UNL     1      -3.374   9.698  17.819  0.00  0.00    +0.000 F 
ATOM     16  F   UNL     1      -3.549  11.450  19.090  0.00  0.00    +0.000 F 
ATOM     17  F   UNL     1      -3.172  11.684  16.967  0.00  0.00    +0.000 F 
ENDBRANCH  12  14
ENDBRANCH   4   7
BRANCH   3  18
ATOM     18  C   UNL     1       3.872   5.980  18.151  0.00  0.00    +0.000 A 
ATOM     19  C   UNL     1       3.392   4.874  18.846  0.00  0.00    +0.000 A 
ATOM     20  C   UNL     1       4.295   3.975  19.382  0.00  0.00    +0.000 A 
ATOM     21  N   UNL     1       5.630   4.099  19.265  0.00  0.00    +0.000 NA
ATOM     22  C   UNL     1       6.106   5.167  18.567  0.00  0.00    +0.000 A 
ATOM     23  C   UNL     1       5.251   6.109  17.980  0.00  0.00    +0.000 A 
BRANCH  22  24
ATOM     24  C   UNL     1       7.609   5.368  18.453  0.00  0.00    +0.000 C 
ATOM     25  F   UNL     1       7.984   6.472  17.748  0.00  0.00    +0.000 F 
ATOM     26  F   UNL     1       8.213   5.479  19.672  0.00  0.00    +0.000 F 
ATOM     27  F   UNL     1       8.225   4.312  17.841  0.00  0.00    +0.000 F 
ENDBRANCH  22  24
ENDBRANCH   3  18
TORSDOF 4
ENDMDL
