MODEL 1
REMARK VINA RESULT:      -8.9      0.000      0.000
REMARK  Name = 
REMARK  11 active torsions:
REMARK  status: ('A' for Active; 'I' for Inactive)
REMARK    1  A    between atoms: C_1  and  C_2
REMARK    2  A    between atoms: C_8  and  C_9
REMARK    3  A    between atoms: C_13  and  C_14
REMARK    4  A    between atoms: C_14  and  O_15
REMARK    5  A    between atoms: O_15  and  C_16
REMARK    6  A    between atoms: C_19  and  C_20
REMARK    7  A    between atoms: C_20  and  C_21
REMARK    8  A    between atoms: C_20  and  C_25
REMARK    9  A    between atoms: C_21  and  C_22
REMARK   10  A    between atoms: C_22  and  O_24
REMARK   11  A    between atoms: N_29  and  C_30
REMARK                            x       y       z     vdW  Elec       q    Type
REMARK                         _______ _______ _______ _____ _____    ______ ____
ROOT
ATOM      1  C   UNL     1       2.055   7.403  19.753  0.00  0.00    +0.000 A 
ATOM      2  C   UNL     1       2.654   7.514  18.497  0.00  0.00    +0.000 A 
ATOM      3  C   UNL     1       3.344   6.435  17.939  0.00  0.00    +0.000 A 
ATOM      4  C   UNL     1       3.450   5.226  18.641  0.00  0.00    +0.000 A 
ATOM      5  C   UNL     1       2.786   5.104  19.873  0.00  0.00    +0.000 A 
ATOM      6  C   UNL     1       2.120   6.191  20.436  0.00  0.00    +0.000 A 
ENDROOT
BRANCH   1   7
ATOM      7  O   UNL     1       1.474   8.547  20.225  0.00  0.00    +0.000 OA
BRANCH   7   8
ATOM      8  C   UNL     1       0.934   8.465  21.543  0.00  0.00    +0.000 C 
BRANCH   8  13
ATOM      9  C   UNL     1       0.034  12.201  21.482  0.00  0.00    +0.000 A 
ATOM     10  C   UNL     1      -0.987  12.190  22.450  0.00  0.00    +0.000 A 
ATOM     11  C   UNL     1      -1.301  11.044  23.185  0.00  0.00    +0.000 A 
ATOM     12  C   UNL     1      -0.655   9.847  22.918  0.00  0.00    +0.000 A 
ATOM     13  C   UNL     1       0.321   9.789  21.925  0.00  0.00    +0.000 A 
ATOM     14  C   UNL     1       0.675  10.967  21.240  0.00  0.00    +0.000 A 
BRANCH   9  22
ATOM     15  C   UNL     1      -0.962  12.821  18.596  0.00  0.00    +0.000 C 
ATOM     16  C   UNL     1      -0.048  13.717  19.391  0.00  0.00    +0.000 A 
ATOM     17  C   UNL     1       0.370  14.907  18.750  0.00  0.00    +0.000 A 
ATOM     18  C   UNL     1       1.184  15.827  19.396  0.00  0.00    +0.000 A 
ATOM     19 CL   UNL     1       1.646  17.278  18.598  0.00  0.00    +0.000 Cl
ATOM     20  C   UNL     1       1.625  15.573  20.682  0.00  0.00    +0.000 A 
ATOM     21  C   UNL     1       1.252  14.385  21.317  0.00  0.00    +0.000 A 
ATOM     22  C   UNL     1       0.405  13.425  20.707  0.00  0.00    +0.000 A 
ENDBRANCH   9  22
ENDBRANCH   8  13
ENDBRANCH   7   8
ENDBRANCH   1   7
BRANCH   4  23
ATOM     23  C   UNL     1       4.283   4.079  18.074  0.00  0.00    +0.000 C 
BRANCH  23  24
ATOM     24  C   UNL     1       5.743   4.449  17.916  0.00  0.00    +0.000 A 
ATOM     25  N   UNL     1       6.525   4.947  18.860  0.00  0.00    +0.000 NA
ATOM     26  C   UNL     1       7.723   5.109  18.226  0.00  0.00    +0.000 A 
ATOM     27  N   UNL     1       7.728   4.786  16.933  0.00  0.00    +0.000 NA
ATOM     28  N   UNL     1       6.460   4.371  16.743  0.00  0.00    +0.000 N 
ATOM     29  C   UNL     1       6.033   3.998  15.418  0.00  0.00    +0.000 C 
ENDBRANCH  23  24
BRANCH  23  30
ATOM     30  C   UNL     1       4.105   2.864  18.991  0.00  0.00    +0.000 C 
BRANCH  30  31
ATOM     31  C   UNL     1       3.440   1.707  18.294  0.00  0.00    +0.000 C 
ATOM     32  O   UNL     1       2.401   1.816  17.655  0.00  0.00    +0.000 OA
BRANCH  31  33
ATOM     33  O   UNL     1       4.078   0.530  18.448  0.00  0.00    +0.000 OA
ATOM     34  H   UNL     1       4.554   0.483  19.313  0.00  0.00    +0.000 HD
ENDBRANCH  31  33
ENDBRANCH  30  31
ENDBRANCH  23  30
ENDBRANCH   4  23
TORSDOF 9
ENDMDL
MODEL 2
REMARK VINA RESULT:      -8.7      2.544      3.598
REMARK  Name = 
REMARK  11 active torsions:
REMARK  status: ('A' for Active; 'I' for Inactive)
REMARK    1  A    between atoms: C_1  and  C_2
REMARK    2  A    between atoms: C_8  and  C_9
REMARK    3  A    between atoms: C_13  and  C_14
REMARK    4  A    between atoms: C_14  and  O_15
REMARK    5  A    between atoms: O_15  and  C_16
REMARK    6  A    between atoms: C_19  and  C_20
REMARK    7  A    between atoms: C_20  and  C_21
REMARK    8  A    between atoms: C_20  and  C_25
REMARK    9  A    between atoms: C_21  and  C_22
REMARK   10  A    between atoms: C_22  and  O_24
REMARK   11  A    between atoms: N_29  and  C_30
REMARK                            x       y       z     vdW  Elec       q    Type
REMARK                         _______ _______ _______ _____ _____    ______ ____
ROOT
ATOM      1  C   UNL     1       2.093   8.094  18.937  0.00  0.00    +0.000 A 
ATOM      2  C   UNL     1       2.085   7.087  19.904  0.00  0.00    +0.000 A 
ATOM      3  C   UNL     1       2.778   5.892  19.694  0.00  0.00    +0.000 A 
ATOM      4  C   UNL     1       3.487   5.687  18.502  0.00  0.00    +0.000 A 
ATOM      5  C   UNL     1       3.544   6.733  17.567  0.00  0.00    +0.000 A 
ATOM      6  C   UNL     1       2.831   7.913  17.770  0.00  0.00    +0.000 A 
ENDROOT
BRANCH   1   7
ATOM      7  O   UNL     1       1.319   9.184  19.223  0.00  0.00    +0.000 OA
BRANCH   7   8
ATOM      8  C   UNL     1       0.811   9.247  20.554  0.00  0.00    +0.000 C 
BRANCH   8  13
ATOM      9  C   UNL     1      -1.321  12.207  21.766  0.00  0.00    +0.000 A 
ATOM     10  C   UNL     1      -0.346  13.219  21.685  0.00  0.00    +0.000 A 
ATOM     11  C   UNL     1       0.924  12.985  21.148  0.00  0.00    +0.000 A 
ATOM     12  C   UNL     1       1.287  11.709  20.748  0.00  0.00    +0.000 A 
ATOM     13  C   UNL     1       0.379  10.658  20.867  0.00  0.00    +0.000 A 
ATOM     14  C   UNL     1      -0.919  10.921  21.344  0.00  0.00    +0.000 A 
BRANCH   9  22
ATOM     15  C   UNL     1      -3.821  12.823  20.011  0.00  0.00    +0.000 C 
ATOM     16  C   UNL     1      -3.840  12.722  21.514  0.00  0.00    +0.000 A 
ATOM     17  C   UNL     1      -5.093  12.933  22.137  0.00  0.00    +0.000 A 
ATOM     18  C   UNL     1      -5.242  12.832  23.513  0.00  0.00    +0.000 A 
ATOM     19 CL   UNL     1      -6.786  13.062  24.232  0.00  0.00    +0.000 Cl
ATOM     20  C   UNL     1      -4.144  12.546  24.305  0.00  0.00    +0.000 A 
ATOM     21  C   UNL     1      -2.892  12.372  23.710  0.00  0.00    +0.000 A 
ATOM     22  C   UNL     1      -2.693  12.444  22.308  0.00  0.00    +0.000 A 
ENDBRANCH   9  22
ENDBRANCH   8  13
ENDBRANCH   7   8
ENDBRANCH   1   7
BRANCH   4  23
ATOM     23  C   UNL     1       4.165   4.346  18.233  0.00  0.00    +0.000 C 
BRANCH  23  24
ATOM     24  C   UNL     1       5.637   4.498  17.913  0.00  0.00    +0.000 A 
ATOM     25  N   UNL     1       6.603   4.730  18.786  0.00  0.00    +0.000 NA
ATOM     26  C   UNL     1       7.724   4.785  18.011  0.00  0.00    +0.000 A 
ATOM     27  N   UNL     1       7.517   4.645  16.702  0.00  0.00    +0.000 NA
ATOM     28  N   UNL     1       6.182   4.468  16.649  0.00  0.00    +0.000 N 
ATOM     29  C   UNL     1       5.539   4.352  15.363  0.00  0.00    +0.000 C 
ENDBRANCH  23  24
BRANCH  23  30
ATOM     30  C   UNL     1       3.942   3.448  19.455  0.00  0.00    +0.000 C 
BRANCH  30  31
ATOM     31  C   UNL     1       3.290   2.138  19.098  0.00  0.00    +0.000 C 
ATOM     32  O   UNL     1       2.103   1.907  19.286  0.00  0.00    +0.000 OA
BRANCH  31  33
ATOM     33  O   UNL     1       4.133   1.229  18.570  0.00  0.00    +0.000 OA
ATOM     34  H   UNL     1       3.699   0.347  18.463  0.00  0.00    +0.000 HD
ENDBRANCH  31  33
ENDBRANCH  30  31
ENDBRANCH  23  30
ENDBRANCH   4  23
TORSDOF 9
ENDMDL
MODEL 3
REMARK VINA RESULT:      -8.6      2.226      2.942
REMARK  Name = 
REMARK  11 active torsions:
REMARK  status: ('A' for Active; 'I' for Inactive)
REMARK    1  A    between atoms: C_1  and  C_2
REMARK    2  A    between atoms: C_8  and  C_9
REMARK    3  A    between atoms: C_13  and  C_14
REMARK    4  A    between atoms: C_14  and  O_15
REMARK    5  A    between atoms: O_15  and  C_16
REMARK    6  A    between atoms: C_19  and  C_20
REMARK    7  A    between atoms: C_20  and  C_21
REMARK    8  A    between atoms: C_20  and  C_25
REMARK    9  A    between atoms: C_21  and  C_22
REMARK   10  A    between atoms: C_22  and  O_24
REMARK   11  A    between atoms: N_29  and  C_30
REMARK                            x       y       z     vdW  Elec       q    Type
REMARK                         _______ _______ _______ _____ _____    ______ ____
ROOT
ATOM      1  C   UNL     1       2.249   7.761  19.155  0.00  0.00    +0.000 A 
ATOM      2  C   UNL     1       2.966   7.746  17.957  0.00  0.00    +0.000 A 
ATOM      3  C   UNL     1       3.571   6.572  17.504  0.00  0.00    +0.000 A 
ATOM      4  C   UNL     1       3.471   5.391  18.253  0.00  0.00    +0.000 A 
ATOM      5  C   UNL     1       2.690   5.402  19.420  0.00  0.00    +0.000 A 
ATOM      6  C   UNL     1       2.109   6.581  19.881  0.00  0.00    +0.000 A 
ENDROOT
BRANCH   1   7
ATOM      7  O   UNL     1       1.766   8.984  19.531  0.00  0.00    +0.000 OA
BRANCH   7   8
ATOM      8  C   UNL     1       0.698   8.960  20.476  0.00  0.00    +0.000 C 
BRANCH   8  13
ATOM      9  C   UNL     1      -1.527  12.061  20.934  0.00  0.00    +0.000 A 
ATOM     10  C   UNL     1      -1.863  12.283  19.585  0.00  0.00    +0.000 A 
ATOM     11  C   UNL     1      -1.484  11.399  18.571  0.00  0.00    +0.000 A 
ATOM     12  C   UNL     1      -0.686  10.304  18.863  0.00  0.00    +0.000 A 
ATOM     13  C   UNL     1      -0.273  10.074  20.174  0.00  0.00    +0.000 A 
ATOM     14  C   UNL     1      -0.719  10.933  21.196  0.00  0.00    +0.000 A 
BRANCH   9  22
ATOM     15  C   UNL     1      -4.490  12.648  21.696  0.00  0.00    +0.000 C 
ATOM     16  C   UNL     1      -3.298  13.249  22.393  0.00  0.00    +0.000 A 
ATOM     17  C   UNL     1      -3.580  14.139  23.457  0.00  0.00    +0.000 A 
ATOM     18  C   UNL     1      -2.563  14.727  24.196  0.00  0.00    +0.000 A 
ATOM     19 CL   UNL     1      -2.945  15.778  25.501  0.00  0.00    +0.000 Cl
ATOM     20  C   UNL     1      -1.242  14.467  23.878  0.00  0.00    +0.000 A 
ATOM     21  C   UNL     1      -0.944  13.619  22.807  0.00  0.00    +0.000 A 
ATOM     22  C   UNL     1      -1.948  12.978  22.037  0.00  0.00    +0.000 A 
ENDBRANCH   9  22
ENDBRANCH   8  13
ENDBRANCH   7   8
ENDBRANCH   1   7
BRANCH   4  23
ATOM     23  C   UNL     1       4.211   4.133  17.806  0.00  0.00    +0.000 C 
BRANCH  23  24
ATOM     24  C   UNL     1       5.690   4.378  17.592  0.00  0.00    +0.000 A 
ATOM     25  N   UNL     1       6.589   4.581  18.541  0.00  0.00    +0.000 NA
ATOM     26  C   UNL     1       7.750   4.752  17.844  0.00  0.00    +0.000 A 
ATOM     27  N   UNL     1       7.627   4.712  16.518  0.00  0.00    +0.000 NA
ATOM     28  N   UNL     1       6.309   4.478  16.367  0.00  0.00    +0.000 N 
ATOM     29  C   UNL     1       5.750   4.441  15.038  0.00  0.00    +0.000 C 
ENDBRANCH  23  24
BRANCH  23  30
ATOM     30  C   UNL     1       3.965   3.041  18.853  0.00  0.00    +0.000 C 
BRANCH  30  31
ATOM     31  C   UNL     1       3.301   1.821  18.271  0.00  0.00    +0.000 C 
ATOM     32  O   UNL     1       2.233   1.859  17.675  0.00  0.00    +0.000 OA
BRANCH  31  33
ATOM     33  O   UNL     1       3.976   0.674  18.478  0.00  0.00    +0.000 OA
ATOM     34  H   UNL     1       4.364   0.321  17.639  0.00  0.00    +0.000 HD
ENDBRANCH  31  33
ENDBRANCH  30  31
ENDBRANCH  23  30
ENDBRANCH   4  23
TORSDOF 9
ENDMDL
MODEL 4
REMARK VINA RESULT:      -8.5      4.643     10.076
REMARK  Name = 
REMARK  11 active torsions:
REMARK  status: ('A' for Active; 'I' for Inactive)
REMARK    1  A    between atoms: C_1  and  C_2
REMARK    2  A    between atoms: C_8  and  C_9
REMARK    3  A    between atoms: C_13  and  C_14
REMARK    4  A    between atoms: C_14  and  O_15
REMARK    5  A    between atoms: O_15  and  C_16
REMARK    6  A    between atoms: C_19  and  C_20
REMARK    7  A    between atoms: C_20  and  C_21
REMARK    8  A    between atoms: C_20  and  C_25
REMARK    9  A    between atoms: C_21  and  C_22
REMARK   10  A    between atoms: C_22  and  O_24
REMARK   11  A    between atoms: N_29  and  C_30
REMARK                            x       y       z     vdW  Elec       q    Type
REMARK                         _______ _______ _______ _____ _____    ______ ____
ROOT
ATOM      1  C   UNL     1       1.921   7.717  20.038  0.00  0.00    +0.000 A 
ATOM      2  C   UNL     1       1.904   8.561  18.926  0.00  0.00    +0.000 A 
ATOM      3  C   UNL     1       1.094   9.699  18.908  0.00  0.00    +0.000 A 
ATOM      4  C   UNL     1       0.280  10.003  20.008  0.00  0.00    +0.000 A 
ATOM      5  C   UNL     1       0.357   9.185  21.147  0.00  0.00    +0.000 A 
ATOM      6  C   UNL     1       1.147   8.038  21.150  0.00  0.00    +0.000 A 
ENDROOT
BRANCH   1   7
ATOM      7  O   UNL     1       2.696   6.598  19.909  0.00  0.00    +0.000 OA
BRANCH   7   8
ATOM      8  C   UNL     1       2.021   5.356  20.104  0.00  0.00    +0.000 C 
BRANCH   8  13
ATOM      9  C   UNL     1       4.164   3.719  17.365  0.00  0.00    +0.000 A 
ATOM     10  C   UNL     1       3.854   2.372  17.629  0.00  0.00    +0.000 A 
ATOM     11  C   UNL     1       2.899   2.002  18.580  0.00  0.00    +0.000 A 
ATOM     12  C   UNL     1       2.278   2.969  19.356  0.00  0.00    +0.000 A 
ATOM     13  C   UNL     1       2.596   4.314  19.177  0.00  0.00    +0.000 A 
ATOM     14  C   UNL     1       3.509   4.677  18.169  0.00  0.00    +0.000 A 
BRANCH   9  22
ATOM     15  C   UNL     1       7.030   4.758  18.006  0.00  0.00    +0.000 C 
ATOM     16  C   UNL     1       6.471   4.607  16.615  0.00  0.00    +0.000 A 
ATOM     17  C   UNL     1       7.332   4.977  15.554  0.00  0.00    +0.000 A 
ATOM     18  C   UNL     1       6.940   4.849  14.228  0.00  0.00    +0.000 A 
ATOM     19 CL   UNL     1       8.024   5.278  12.965  0.00  0.00    +0.000 Cl
ATOM     20  C   UNL     1       5.675   4.377  13.926  0.00  0.00    +0.000 A 
ATOM     21  C   UNL     1       4.799   4.042  14.963  0.00  0.00    +0.000 A 
ATOM     22  C   UNL     1       5.160   4.135  16.331  0.00  0.00    +0.000 A 
ENDBRANCH   9  22
ENDBRANCH   8  13
ENDBRANCH   7   8
ENDBRANCH   1   7
BRANCH   4  23
ATOM     23  C   UNL     1      -0.676  11.193  19.950  0.00  0.00    +0.000 C 
BRANCH  23  24
ATOM     24  C   UNL     1      -0.222  12.340  20.828  0.00  0.00    +0.000 A 
ATOM     25  N   UNL     1       0.670  13.262  20.505  0.00  0.00    +0.000 NA
ATOM     26  C   UNL     1       0.728  14.051  21.617  0.00  0.00    +0.000 A 
ATOM     27  N   UNL     1      -0.039  13.656  22.633  0.00  0.00    +0.000 NA
ATOM     28  N   UNL     1      -0.637  12.561  22.123  0.00  0.00    +0.000 N 
ATOM     29  C   UNL     1      -1.511  11.782  22.964  0.00  0.00    +0.000 C 
ENDBRANCH  23  24
BRANCH  23  30
ATOM     30  C   UNL     1      -0.810  11.622  18.485  0.00  0.00    +0.000 C 
BRANCH  30  31
ATOM     31  C   UNL     1      -2.099  11.154  17.862  0.00  0.00    +0.000 C 
ATOM     32  O   UNL     1      -2.276  10.008  17.469  0.00  0.00    +0.000 OA
BRANCH  31  33
ATOM     33  O   UNL     1      -3.040  12.112  17.757  0.00  0.00    +0.000 OA
ATOM     34  H   UNL     1      -3.216  12.350  16.813  0.00  0.00    +0.000 HD
ENDBRANCH  31  33
ENDBRANCH  30  31
ENDBRANCH  23  30
ENDBRANCH   4  23
TORSDOF 9
ENDMDL
MODEL 5
REMARK VINA RESULT:      -8.5      2.612      3.956
REMARK  Name = 
REMARK  11 active torsions:
REMARK  status: ('A' for Active; 'I' for Inactive)
REMARK    1  A    between atoms: C_1  and  C_2
REMARK    2  A    between atoms: C_8  and  C_9
REMARK    3  A    between atoms: C_13  and  C_14
REMARK    4  A    between atoms: C_14  and  O_15
REMARK    5  A    between atoms: O_15  and  C_16
REMARK    6  A    between atoms: C_19  and  C_20
REMARK    7  A    between atoms: C_20  and  C_21
REMARK    8  A    between atoms: C_20  and  C_25
REMARK    9  A    between atoms: C_21  and  C_22
REMARK   10  A    between atoms: C_22  and  O_24
REMARK   11  A    between atoms: N_29  and  C_30
REMARK                            x       y       z     vdW  Elec       q    Type
REMARK                         _______ _______ _______ _____ _____    ______ ____
ROOT
ATOM      1  C   UNL     1       1.919   8.447  19.187  0.00  0.00    +0.000 A 
ATOM      2  C   UNL     1       1.925   7.430  20.143  0.00  0.00    +0.000 A 
ATOM      3  C   UNL     1       2.616   6.238  19.912  0.00  0.00    +0.000 A 
ATOM      4  C   UNL     1       3.309   6.046  18.708  0.00  0.00    +0.000 A 
ATOM      5  C   UNL     1       3.353   7.102  17.783  0.00  0.00    +0.000 A 
ATOM      6  C   UNL     1       2.642   8.279  18.008  0.00  0.00    +0.000 A 
ENDROOT
BRANCH   1   7
ATOM      7  O   UNL     1       1.149   9.533  19.494  0.00  0.00    +0.000 OA
BRANCH   7   8
ATOM      8  C   UNL     1       0.365  10.056  18.424  0.00  0.00    +0.000 C 
BRANCH   8  13
ATOM      9  C   UNL     1      -1.784  12.706  20.193  0.00  0.00    +0.000 A 
ATOM     10  C   UNL     1      -1.108  13.859  19.751  0.00  0.00    +0.000 A 
ATOM     11  C   UNL     1      -0.067  13.797  18.820  0.00  0.00    +0.000 A 
ATOM     12  C   UNL     1       0.386  12.570  18.362  0.00  0.00    +0.000 A 
ATOM     13  C   UNL     1      -0.207  11.395  18.819  0.00  0.00    +0.000 A 
ATOM     14  C   UNL     1      -1.301  11.475  19.702  0.00  0.00    +0.000 A 
BRANCH   9  22
ATOM     15  C   UNL     1      -1.496  12.218  23.257  0.00  0.00    +0.000 C 
ATOM     16  C   UNL     1      -2.796  12.536  22.565  0.00  0.00    +0.000 A 
ATOM     17  C   UNL     1      -3.943  12.603  23.391  0.00  0.00    +0.000 A 
ATOM     18  C   UNL     1      -5.190  12.923  22.872  0.00  0.00    +0.000 A 
ATOM     19 CL   UNL     1      -6.555  13.027  23.912  0.00  0.00    +0.000 Cl
ATOM     20  C   UNL     1      -5.332  13.155  21.515  0.00  0.00    +0.000 A 
ATOM     21  C   UNL     1      -4.217  13.056  20.679  0.00  0.00    +0.000 A 
ATOM     22  C   UNL     1      -2.919  12.754  21.164  0.00  0.00    +0.000 A 
ENDBRANCH   9  22
ENDBRANCH   8  13
ENDBRANCH   7   8
ENDBRANCH   1   7
BRANCH   4  23
ATOM     23  C   UNL     1       3.984   4.708  18.416  0.00  0.00    +0.000 C 
BRANCH  23  24
ATOM     24  C   UNL     1       5.485   4.840  18.266  0.00  0.00    +0.000 A 
ATOM     25  N   UNL     1       6.308   5.397  19.139  0.00  0.00    +0.000 NA
ATOM     26  C   UNL     1       7.531   5.272  18.547  0.00  0.00    +0.000 A 
ATOM     27  N   UNL     1       7.520   4.711  17.338  0.00  0.00    +0.000 NA
ATOM     28  N   UNL     1       6.211   4.444  17.165  0.00  0.00    +0.000 N 
ATOM     29  C   UNL     1       5.767   3.886  15.912  0.00  0.00    +0.000 C 
ENDBRANCH  23  24
BRANCH  23  30
ATOM     30  C   UNL     1       3.612   3.734  19.539  0.00  0.00    +0.000 C 
BRANCH  30  31
ATOM     31  C   UNL     1       4.286   2.396  19.390  0.00  0.00    +0.000 C 
ATOM     32  O   UNL     1       5.058   1.937  20.223  0.00  0.00    +0.000 OA
BRANCH  31  33
ATOM     33  O   UNL     1       3.983   1.750  18.248  0.00  0.00    +0.000 OA
ATOM     34  H   UNL     1       4.772   1.654  17.660  0.00  0.00    +0.000 HD
ENDBRANCH  31  33
ENDBRANCH  30  31
ENDBRANCH  23  30
ENDBRANCH   4  23
TORSDOF 9
ENDMDL
MODEL 6
REMARK VINA RESULT:      -8.4      2.529      3.350
REMARK  Name = 
REMARK  11 active torsions:
REMARK  status: ('A' for Active; 'I' for Inactive)
REMARK    1  A    between atoms: C_1  and  C_2
REMARK    2  A    between atoms: C_8  and  C_9
REMARK    3  A    between atoms: C_13  and  C_14
REMARK    4  A    between atoms: C_14  and  O_15
REMARK    5  A    between atoms: O_15  and  C_16
REMARK    6  A    between atoms: C_19  and  C_20
REMARK    7  A    between atoms: C_20  and  C_21
REMARK    8  A    between atoms: C_20  and  C_25
REMARK    9  A    between atoms: C_21  and  C_22
REMARK   10  A    between atoms: C_22  and  O_24
REMARK   11  A    between atoms: N_29  and  C_30
REMARK                            x       y       z     vdW  Elec       q    Type
REMARK                         _______ _______ _______ _____ _____    ______ ____
ROOT
ATOM      1  C   UNL     1       2.197   8.256  18.762  0.00  0.00    +0.000 A 
ATOM      2  C   UNL     1       2.919   7.947  17.608  0.00  0.00    +0.000 A 
ATOM      3  C   UNL     1       3.538   6.703  17.467  0.00  0.00    +0.000 A 
ATOM      4  C   UNL     1       3.445   5.748  18.490  0.00  0.00    +0.000 A 
ATOM      5  C   UNL     1       2.658   6.045  19.615  0.00  0.00    +0.000 A 
ATOM      6  C   UNL     1       2.065   7.296  19.762  0.00  0.00    +0.000 A 
ENDROOT
BRANCH   1   7
ATOM      7  O   UNL     1       1.701   9.529  18.817  0.00  0.00    +0.000 OA
BRANCH   7   8
ATOM      8  C   UNL     1       0.804   9.796  19.894  0.00  0.00    +0.000 C 
BRANCH   8  13
ATOM      9  C   UNL     1      -2.324  12.011  19.609  0.00  0.00    +0.000 A 
ATOM     10  C   UNL     1      -2.677  11.711  18.281  0.00  0.00    +0.000 A 
ATOM     11  C   UNL     1      -2.004  10.740  17.535  0.00  0.00    +0.000 A 
ATOM     12  C   UNL     1      -0.899  10.093  18.069  0.00  0.00    +0.000 A 
ATOM     13  C   UNL     1      -0.469  10.401  19.358  0.00  0.00    +0.000 A 
ATOM     14  C   UNL     1      -1.199  11.330  20.123  0.00  0.00    +0.000 A 
BRANCH   9  22
ATOM     15  C   UNL     1      -1.154  14.784  20.419  0.00  0.00    +0.000 C 
ATOM     16  C   UNL     1      -2.526  14.293  20.805  0.00  0.00    +0.000 A 
ATOM     17  C   UNL     1      -3.305  15.175  21.592  0.00  0.00    +0.000 A 
ATOM     18  C   UNL     1      -4.597  14.848  21.978  0.00  0.00    +0.000 A 
ATOM     19 CL   UNL     1      -5.525  15.957  22.907  0.00  0.00    +0.000 Cl
ATOM     20  C   UNL     1      -5.135  13.626  21.616  0.00  0.00    +0.000 A 
ATOM     21  C   UNL     1      -4.367  12.727  20.870  0.00  0.00    +0.000 A 
ATOM     22  C   UNL     1      -3.051  13.025  20.433  0.00  0.00    +0.000 A 
ENDBRANCH   9  22
ENDBRANCH   8  13
ENDBRANCH   7   8
ENDBRANCH   1   7
BRANCH   4  23
ATOM     23  C   UNL     1       4.198   4.425  18.376  0.00  0.00    +0.000 C 
BRANCH  23  24
ATOM     24  C   UNL     1       5.689   4.623  18.201  0.00  0.00    +0.000 A 
ATOM     25  N   UNL     1       6.516   5.135  19.097  0.00  0.00    +0.000 NA
ATOM     26  C   UNL     1       7.726   5.103  18.466  0.00  0.00    +0.000 A 
ATOM     27  N   UNL     1       7.701   4.645  17.216  0.00  0.00    +0.000 NA
ATOM     28  N   UNL     1       6.397   4.346  17.053  0.00  0.00    +0.000 N 
ATOM     29  C   UNL     1       5.938   3.879  15.768  0.00  0.00    +0.000 C 
ENDBRANCH  23  24
BRANCH  23  30
ATOM     30  C   UNL     1       3.882   3.591  19.622  0.00  0.00    +0.000 C 
BRANCH  30  31
ATOM     31  C   UNL     1       4.152   2.123  19.418  0.00  0.00    +0.000 C 
ATOM     32  O   UNL     1       3.504   1.422  18.652  0.00  0.00    +0.000 OA
BRANCH  31  33
ATOM     33  O   UNL     1       5.161   1.639  20.168  0.00  0.00    +0.000 OA
ATOM     34  H   UNL     1       5.896   2.294  20.260  0.00  0.00    +0.000 HD
ENDBRANCH  31  33
ENDBRANCH  30  31
ENDBRANCH  23  30
ENDBRANCH   4  23
TORSDOF 9
ENDMDL
MODEL 7
REMARK VINA RESULT:      -8.4      2.327      3.307
REMARK  Name = 
REMARK  11 active torsions:
REMARK  status: ('A' for Active; 'I' for Inactive)
REMARK    1  A    between atoms: C_1  and  C_2
REMARK    2  A    between atoms: C_8  and  C_9
REMARK    3  A    between atoms: C_13  and  C_14
REMARK    4  A    between atoms: C_14  and  O_15
REMARK    5  A    between atoms: O_15  and  C_16
REMARK    6  A    between atoms: C_19  and  C_20
REMARK    7  A    between atoms: C_20  and  C_21
REMARK    8  A    between atoms: C_20  and  C_25
REMARK    9  A    between atoms: C_21  and  C_22
REMARK   10  A    between atoms: C_22  and  O_24
REMARK   11  A    between atoms: N_29  and  C_30
REMARK                            x       y       z     vdW  Elec       q    Type
REMARK                         _______ _______ _______ _____ _____    ______ ____
ROOT
ATOM      1  C   UNL     1       2.272   8.308  18.450  0.00  0.00    +0.000 A 
ATOM      2  C   UNL     1       2.049   7.366  19.455  0.00  0.00    +0.000 A 
ATOM      3  C   UNL     1       2.725   6.144  19.449  0.00  0.00    +0.000 A 
ATOM      4  C   UNL     1       3.633   5.845  18.424  0.00  0.00    +0.000 A 
ATOM      5  C   UNL     1       3.901   6.827  17.456  0.00  0.00    +0.000 A 
ATOM      6  C   UNL     1       3.206   8.034  17.453  0.00  0.00    +0.000 A 
ENDROOT
BRANCH   1   7
ATOM      7  O   UNL     1       1.499   9.434  18.522  0.00  0.00    +0.000 OA
BRANCH   7   8
ATOM      8  C   UNL     1       0.937   9.714  19.803  0.00  0.00    +0.000 C 
BRANCH   8  13
ATOM      9  C   UNL     1      -1.983  12.129  20.449  0.00  0.00    +0.000 A 
ATOM     10  C   UNL     1      -2.656  11.982  19.221  0.00  0.00    +0.000 A 
ATOM     11  C   UNL     1      -2.252  11.052  18.260  0.00  0.00    +0.000 A 
ATOM     12  C   UNL     1      -1.111  10.291  18.463  0.00  0.00    +0.000 A 
ATOM     13  C   UNL     1      -0.372  10.444  19.634  0.00  0.00    +0.000 A 
ATOM     14  C   UNL     1      -0.829  11.335  20.624  0.00  0.00    +0.000 A 
BRANCH   9  22
ATOM     15  C   UNL     1      -1.204  15.145  20.490  0.00  0.00    +0.000 C 
ATOM     16  C   UNL     1      -2.068  14.476  21.527  0.00  0.00    +0.000 A 
ATOM     17  C   UNL     1      -2.535  15.301  22.577  0.00  0.00    +0.000 A 
ATOM     18  C   UNL     1      -3.368  14.804  23.570  0.00  0.00    +0.000 A 
ATOM     19 CL   UNL     1      -3.942  15.845  24.813  0.00  0.00    +0.000 Cl
ATOM     20  C   UNL     1      -3.733  13.470  23.559  0.00  0.00    +0.000 A 
ATOM     21  C   UNL     1      -3.252  12.632  22.550  0.00  0.00    +0.000 A 
ATOM     22  C   UNL     1      -2.417  13.097  21.502  0.00  0.00    +0.000 A 
ENDBRANCH   9  22
ENDBRANCH   8  13
ENDBRANCH   7   8
ENDBRANCH   1   7
BRANCH   4  23
ATOM     23  C   UNL     1       4.301   4.473  18.365  0.00  0.00    +0.000 C 
BRANCH  23  24
ATOM     24  C   UNL     1       5.795   4.567  18.141  0.00  0.00    +0.000 A 
ATOM     25  N   UNL     1       6.687   4.998  19.018  0.00  0.00    +0.000 NA
ATOM     26  C   UNL     1       7.869   4.893  18.344  0.00  0.00    +0.000 A 
ATOM     27  N   UNL     1       7.769   4.465  17.086  0.00  0.00    +0.000 NA
ATOM     28  N   UNL     1       6.442   4.264  16.964  0.00  0.00    +0.000 N 
ATOM     29  C   UNL     1       5.907   3.859  15.688  0.00  0.00    +0.000 C 
ENDBRANCH  23  24
BRANCH  23  30
ATOM     30  C   UNL     1       3.970   3.729  19.664  0.00  0.00    +0.000 C 
BRANCH  30  31
ATOM     31  C   UNL     1       4.411   2.289  19.633  0.00  0.00    +0.000 C 
ATOM     32  O   UNL     1       5.139   1.794  20.483  0.00  0.00    +0.000 OA
BRANCH  31  33
ATOM     33  O   UNL     1       3.950   1.593  18.576  0.00  0.00    +0.000 OA
ATOM     34  H   UNL     1       3.518   2.183  17.910  0.00  0.00    +0.000 HD
ENDBRANCH  31  33
ENDBRANCH  30  31
ENDBRANCH  23  30
ENDBRANCH   4  23
TORSDOF 9
ENDMDL
MODEL 8
REMARK VINA RESULT:      -8.4      2.110      3.261
REMARK  Name = 
REMARK  11 active torsions:
REMARK  status: ('A' for Active; 'I' for Inactive)
REMARK    1  A    between atoms: C_1  and  C_2
REMARK    2  A    between atoms: C_8  and  C_9
REMARK    3  A    between atoms: C_13  and  C_14
REMARK    4  A    between atoms: C_14  and  O_15
REMARK    5  A    between atoms: O_15  and  C_16
REMARK    6  A    between atoms: C_19  and  C_20
REMARK    7  A    between atoms: C_20  and  C_21
REMARK    8  A    between atoms: C_20  and  C_25
REMARK    9  A    between atoms: C_21  and  C_22
REMARK   10  A    between atoms: C_22  and  O_24
REMARK   11  A    between atoms: N_29  and  C_30
REMARK                            x       y       z     vdW  Elec       q    Type
REMARK                         _______ _______ _______ _____ _____    ______ ____
ROOT
ATOM      1  C   UNL     1       2.326   8.006  18.409  0.00  0.00    +0.000 A 
ATOM      2  C   UNL     1       1.937   6.881  19.138  0.00  0.00    +0.000 A 
ATOM      3  C   UNL     1       2.589   5.658  18.962  0.00  0.00    +0.000 A 
ATOM      4  C   UNL     1       3.641   5.545  18.041  0.00  0.00    +0.000 A 
ATOM      5  C   UNL     1       4.067   6.699  17.365  0.00  0.00    +0.000 A 
ATOM      6  C   UNL     1       3.398   7.910  17.526  0.00  0.00    +0.000 A 
ENDROOT
BRANCH   1   7
ATOM      7  O   UNL     1       1.567   9.125  18.613  0.00  0.00    +0.000 OA
BRANCH   7   8
ATOM      8  C   UNL     1       0.950   9.226  19.896  0.00  0.00    +0.000 C 
BRANCH   8  13
ATOM      9  C   UNL     1      -1.486  12.017  20.918  0.00  0.00    +0.000 A 
ATOM     10  C   UNL     1      -2.101  12.230  19.670  0.00  0.00    +0.000 A 
ATOM     11  C   UNL     1      -1.828  11.425  18.561  0.00  0.00    +0.000 A 
ATOM     12  C   UNL     1      -0.867  10.429  18.643  0.00  0.00    +0.000 A 
ATOM     13  C   UNL     1      -0.183  10.219  19.838  0.00  0.00    +0.000 A 
ATOM     14  C   UNL     1      -0.518  10.991  20.967  0.00  0.00    +0.000 A 
BRANCH   9  22
ATOM     15  C   UNL     1       0.324  14.334  21.952  0.00  0.00    +0.000 C 
ATOM     16  C   UNL     1      -0.968  13.909  22.601  0.00  0.00    +0.000 A 
ATOM     17  C   UNL     1      -1.352  14.628  23.758  0.00  0.00    +0.000 A 
ATOM     18  C   UNL     1      -2.539  14.351  24.421  0.00  0.00    +0.000 A 
ATOM     19 CL   UNL     1      -2.988  15.267  25.804  0.00  0.00    +0.000 Cl
ATOM     20  C   UNL     1      -3.360  13.334  23.967  0.00  0.00    +0.000 A 
ATOM     21  C   UNL     1      -2.979  12.588  22.847  0.00  0.00    +0.000 A 
ATOM     22  C   UNL     1      -1.787  12.848  22.124  0.00  0.00    +0.000 A 
ENDBRANCH   9  22
ENDBRANCH   8  13
ENDBRANCH   7   8
ENDBRANCH   1   7
BRANCH   4  23
ATOM     23  C   UNL     1       4.290   4.188  17.780  0.00  0.00    +0.000 C 
BRANCH  23  24
ATOM     24  C   UNL     1       5.796   4.281  17.664  0.00  0.00    +0.000 A 
ATOM     25  N   UNL     1       6.639   4.523  18.654  0.00  0.00    +0.000 NA
ATOM     26  C   UNL     1       7.859   4.511  18.042  0.00  0.00    +0.000 A 
ATOM     27  N   UNL     1       7.830   4.320  16.723  0.00  0.00    +0.000 NA
ATOM     28  N   UNL     1       6.510   4.180  16.490  0.00  0.00    +0.000 N 
ATOM     29  C   UNL     1       6.048   4.027  15.133  0.00  0.00    +0.000 C 
ENDBRANCH  23  24
BRANCH  23  30
ATOM     30  C   UNL     1       3.868   3.236  18.905  0.00  0.00    +0.000 C 
BRANCH  30  31
ATOM     31  C   UNL     1       3.316   1.935  18.385  0.00  0.00    +0.000 C 
ATOM     32  O   UNL     1       3.906   0.868  18.488  0.00  0.00    +0.000 OA
BRANCH  31  33
ATOM     33  O   UNL     1       2.120   2.048  17.775  0.00  0.00    +0.000 OA
ATOM     34  H   UNL     1       1.433   2.416  18.383  0.00  0.00    +0.000 HD
ENDBRANCH  31  33
ENDBRANCH  30  31
ENDBRANCH  23  30
ENDBRANCH   4  23
TORSDOF 9
ENDMDL
MODEL 9
REMARK VINA RESULT:      -8.3      2.261      3.353
REMARK  Name = 
REMARK  11 active torsions:
REMARK  status: ('A' for Active; 'I' for Inactive)
REMARK    1  A    between atoms: C_1  and  C_2
REMARK    2  A    between atoms: C_8  and  C_9
REMARK    3  A    between atoms: C_13  and  C_14
REMARK    4  A    between atoms: C_14  and  O_15
REMARK    5  A    between atoms: O_15  and  C_16
REMARK    6  A    between atoms: C_19  and  C_20
REMARK    7  A    between atoms: C_20  and  C_21
REMARK    8  A    between atoms: C_20  and  C_25
REMARK    9  A    between atoms: C_21  and  C_22
REMARK   10  A    between atoms: C_22  and  O_24
REMARK   11  A    between atoms: N_29  and  C_30
REMARK                            x       y       z     vdW  Elec       q    Type
REMARK                         _______ _______ _______ _____ _____    ______ ____
ROOT
ATOM      1  C   UNL     1       2.107   7.761  19.287  0.00  0.00    +0.000 A 
ATOM      2  C   UNL     1       2.782   7.668  18.068  0.00  0.00    +0.000 A 
ATOM      3  C   UNL     1       3.414   6.481  17.692  0.00  0.00    +0.000 A 
ATOM      4  C   UNL     1       3.383   5.365  18.542  0.00  0.00    +0.000 A 
ATOM      5  C   UNL     1       2.644   5.449  19.733  0.00  0.00    +0.000 A 
ATOM      6  C   UNL     1       2.037   6.643  20.115  0.00  0.00    +0.000 A 
ENDROOT
BRANCH   1   7
ATOM      7  O   UNL     1       1.593   8.994  19.577  0.00  0.00    +0.000 OA
BRANCH   7   8
ATOM      8  C   UNL     1       1.443   9.876  18.466  0.00  0.00    +0.000 C 
BRANCH   8  13
ATOM      9  C   UNL     1      -0.581  12.509  20.401  0.00  0.00    +0.000 A 
ATOM     10  C   UNL     1       0.146  13.654  20.027  0.00  0.00    +0.000 A 
ATOM     11  C   UNL     1       1.183  13.602  19.091  0.00  0.00    +0.000 A 
ATOM     12  C   UNL     1       1.579  12.385  18.558  0.00  0.00    +0.000 A 
ATOM     13  C   UNL     1       0.933  11.213  18.944  0.00  0.00    +0.000 A 
ATOM     14  C   UNL     1      -0.155  11.289  19.835  0.00  0.00    +0.000 A 
BRANCH   9  22
ATOM     15  C   UNL     1      -3.592  12.562  19.601  0.00  0.00    +0.000 C 
ATOM     16  C   UNL     1      -3.089  12.570  21.021  0.00  0.00    +0.000 A 
ATOM     17  C   UNL     1      -4.078  12.611  22.033  0.00  0.00    +0.000 A 
ATOM     18  C   UNL     1      -3.737  12.587  23.378  0.00  0.00    +0.000 A 
ATOM     19 CL   UNL     1      -4.966  12.605  24.579  0.00  0.00    +0.000 Cl
ATOM     20  C   UNL     1      -2.405  12.551  23.750  0.00  0.00    +0.000 A 
ATOM     21  C   UNL     1      -1.414  12.548  22.764  0.00  0.00    +0.000 A 
ATOM     22  C   UNL     1      -1.712  12.549  21.378  0.00  0.00    +0.000 A 
ENDBRANCH   9  22
ENDBRANCH   8  13
ENDBRANCH   7   8
ENDBRANCH   1   7
BRANCH   4  23
ATOM     23  C   UNL     1       4.153   4.099  18.174  0.00  0.00    +0.000 C 
BRANCH  23  24
ATOM     24  C   UNL     1       5.627   4.364  17.951  0.00  0.00    +0.000 A 
ATOM     25  N   UNL     1       6.501   4.724  18.877  0.00  0.00    +0.000 NA
ATOM     26  C   UNL     1       7.669   4.839  18.181  0.00  0.00    +0.000 A 
ATOM     27  N   UNL     1       7.574   4.616  16.871  0.00  0.00    +0.000 NA
ATOM     28  N   UNL     1       6.267   4.319  16.733  0.00  0.00    +0.000 N 
ATOM     29  C   UNL     1       5.735   4.083  15.413  0.00  0.00    +0.000 C 
ENDBRANCH  23  24
BRANCH  23  30
ATOM     30  C   UNL     1       3.926   3.067  19.284  0.00  0.00    +0.000 C 
BRANCH  30  31
ATOM     31  C   UNL     1       3.315   1.790  18.769  0.00  0.00    +0.000 C 
ATOM     32  O   UNL     1       3.971   0.895  18.251  0.00  0.00    +0.000 OA
BRANCH  31  33
ATOM     33  O   UNL     1       1.977   1.723  18.909  0.00  0.00    +0.000 OA
ATOM     34  H   UNL     1       1.699   0.893  19.370  0.00  0.00    +0.000 HD
ENDBRANCH  31  33
ENDBRANCH  30  31
ENDBRANCH  23  30
ENDBRANCH   4  23
TORSDOF 9
ENDMDL
