MODEL 1
REMARK VINA RESULT:      -7.5      0.000      0.000
REMARK  Name = 
REMARK  9 active torsions:
REMARK  status: ('A' for Active; 'I' for Inactive)
REMARK    1  A    between atoms: C_1  and  C_2
REMARK    2  A    between atoms: C_2  and  O_4
REMARK    3  A    between atoms: O_4  and  C_5
REMARK    4  A    between atoms: C_5  and  C_6
REMARK    5  A    between atoms: CA_7  and  C_8
REMARK    6  A    between atoms: C_8  and  OXT_10
REMARK    7  A    between atoms: CA_14  and  N_15
REMARK    8  A    between atoms: C_16  and  C_18
REMARK    9  A    between atoms: C_18  and  C_19
REMARK                            x       y       z     vdW  Elec       q    Type
REMARK                         _______ _______ _______ _____ _____    ______ ____
ROOT
ATOM      1  C   UNL     1       4.886   4.914  17.558  0.00  0.00    +0.000 C 
ATOM      2  CA  UNL     1       4.146   4.433  18.597  0.00  0.00    +0.000 C 
ATOM      3  N   UNL     1       3.384   5.294  19.338  0.00  0.00    +0.000 N 
ATOM      4  C   UNL     1       2.379   5.225  20.231  0.00  0.00    +0.000 C 
ATOM      5  O   UNL     1       1.979   4.299  20.894  0.00  0.00    +0.000 OA
ATOM      6  CA  UNL     1       2.021   6.729  19.968  0.00  0.00    +0.000 C 
ATOM      7  C   UNL     1       3.408   6.747  19.250  0.00  0.00    +0.000 C 
ATOM      8  S   UNL     1       3.369   7.228  17.512  0.00  0.00    +0.000 S 
ATOM      9  C   UNL     1       4.932   6.380  17.164  0.00  0.00    +0.000 C 
ENDROOT
BRANCH   6  10
ATOM     10  N   UNL     1       1.876   7.571  21.187  0.00  0.00    +0.000 N 
ATOM     11  C   UNL     1       1.048   8.677  21.189  0.00  0.00    +0.000 C 
ATOM     12  O   UNL     1       0.493   9.081  20.170  0.00  0.00    +0.000 OA
ATOM     13  H   UNL     1       2.157   7.192  22.087  0.00  0.00    +0.000 HD
BRANCH  11  14
ATOM     14  C   UNL     1       0.908   9.372  22.525  0.00  0.00    +0.000 C 
BRANCH  14  15
ATOM     15  C   UNL     1      -0.044  10.520  22.422  0.00  0.00    +0.000 A 
ATOM     16  C   UNL     1      -1.222  10.717  23.116  0.00  0.00    +0.000 A 
ATOM     17  C   UNL     1      -1.909  11.892  22.694  0.00  0.00    +0.000 A 
ATOM     18  C   UNL     1      -1.222  12.564  21.708  0.00  0.00    +0.000 A 
ATOM     19  S   UNL     1       0.245  11.786  21.303  0.00  0.00    +0.000 S 
ENDBRANCH  14  15
ENDBRANCH  11  14
ENDBRANCH   6  10
BRANCH   2  20
ATOM     20  C   UNL     1       4.108   2.945  18.876  0.00  0.00    +0.000 C 
ATOM     21  O   UNL     1       3.318   2.171  18.357  0.00  0.00    +0.000 OA
BRANCH  20  22
ATOM     22  OXT UNL     1       5.073   2.480  19.697  0.00  0.00    +0.000 OA
ATOM     23  HXT UNL     1       5.740   1.891  19.286  0.00  0.00    +0.000 HD
ENDBRANCH  20  22
ENDBRANCH   2  20
BRANCH   1  24
ATOM     24  C   UNL     1       5.721   4.062  16.619  0.00  0.00    +0.000 C 
BRANCH  24  25
ATOM     25  O   UNL     1       6.874   4.774  16.162  0.00  0.00    +0.000 OA
BRANCH  25  27
ATOM     26  C   UNL     1       6.038   3.956  14.142  0.00  0.00    +0.000 C 
ATOM     27  C   UNL     1       7.031   4.850  14.816  0.00  0.00    +0.000 C 
ATOM     28  O   UNL     1       7.861   5.535  14.237  0.00  0.00    +0.000 OA
ENDBRANCH  25  27
ENDBRANCH  24  25
ENDBRANCH   1  24
TORSDOF 8
ENDMDL
MODEL 2
REMARK VINA RESULT:      -7.3      3.206      9.755
REMARK  Name = 
REMARK  9 active torsions:
REMARK  status: ('A' for Active; 'I' for Inactive)
REMARK    1  A    between atoms: C_1  and  C_2
REMARK    2  A    between atoms: C_2  and  O_4
REMARK    3  A    between atoms: O_4  and  C_5
REMARK    4  A    between atoms: C_5  and  C_6
REMARK    5  A    between atoms: CA_7  and  C_8
REMARK    6  A    between atoms: C_8  and  OXT_10
REMARK    7  A    between atoms: CA_14  and  N_15
REMARK    8  A    between atoms: C_16  and  C_18
REMARK    9  A    between atoms: C_18  and  C_19
REMARK                            x       y       z     vdW  Elec       q    Type
REMARK                         _______ _______ _______ _____ _____    ______ ____
ROOT
ATOM      1  C   UNL     1      -1.595  11.905  20.425  0.00  0.00    +0.000 C 
ATOM      2  CA  UNL     1      -1.073  11.382  21.571  0.00  0.00    +0.000 C 
ATOM      3  N   UNL     1      -0.267  10.279  21.503  0.00  0.00    +0.000 N 
ATOM      4  C   UNL     1       0.602   9.624  22.295  0.00  0.00    +0.000 C 
ATOM      5  O   UNL     1       0.759   9.666  23.492  0.00  0.00    +0.000 OA
ATOM      6  CA  UNL     1       1.237   8.920  21.046  0.00  0.00    +0.000 C 
ATOM      7  C   UNL     1      -0.035   9.464  20.319  0.00  0.00    +0.000 C 
ATOM      8  S   UNL     1       0.286  10.550  18.915  0.00  0.00    +0.000 S 
ATOM      9  C   UNL     1      -1.347  11.324  19.045  0.00  0.00    +0.000 C 
ENDROOT
BRANCH   6  10
ATOM     10  N   UNL     1       1.380   7.442  21.152  0.00  0.00    +0.000 N 
ATOM     11  C   UNL     1       2.075   6.729  20.195  0.00  0.00    +0.000 C 
ATOM     12  O   UNL     1       2.499   7.252  19.168  0.00  0.00    +0.000 OA
ATOM     13  H   UNL     1       1.214   6.992  22.048  0.00  0.00    +0.000 HD
BRANCH  11  14
ATOM     14  C   UNL     1       2.238   5.253  20.488  0.00  0.00    +0.000 C 
BRANCH  14  15
ATOM     15  C   UNL     1       2.647   4.516  19.253  0.00  0.00    +0.000 A 
ATOM     16  C   UNL     1       1.840   4.039  18.238  0.00  0.00    +0.000 A 
ATOM     17  C   UNL     1       2.577   3.312  17.257  0.00  0.00    +0.000 A 
ATOM     18  C   UNL     1       3.923   3.279  17.544  0.00  0.00    +0.000 A 
ATOM     19  S   UNL     1       4.294   4.127  18.982  0.00  0.00    +0.000 S 
ENDBRANCH  14  15
ENDBRANCH  11  14
ENDBRANCH   6  10
BRANCH   2  20
ATOM     20  C   UNL     1      -1.319  12.067  22.899  0.00  0.00    +0.000 C 
ATOM     21  O   UNL     1      -0.601  12.941  23.362  0.00  0.00    +0.000 OA
BRANCH  20  22
ATOM     22  OXT UNL     1      -2.454  11.712  23.537  0.00  0.00    +0.000 OA
ATOM     23  HXT UNL     1      -3.292  11.928  23.077  0.00  0.00    +0.000 HD
ENDBRANCH  20  22
ENDBRANCH   2  20
BRANCH   1  24
ATOM     24  C   UNL     1      -2.447  13.159  20.353  0.00  0.00    +0.000 C 
BRANCH  24  25
ATOM     25  O   UNL     1      -3.794  12.850  19.985  0.00  0.00    +0.000 OA
BRANCH  25  27
ATOM     26  C   UNL     1      -5.964  12.178  20.519  0.00  0.00    +0.000 C 
ATOM     27  C   UNL     1      -4.694  12.810  20.999  0.00  0.00    +0.000 C 
ATOM     28  O   UNL     1      -4.508  13.231  22.130  0.00  0.00    +0.000 OA
ENDBRANCH  25  27
ENDBRANCH  24  25
ENDBRANCH   1  24
TORSDOF 8
ENDMDL
MODEL 3
REMARK VINA RESULT:      -7.0      0.890      1.177
REMARK  Name = 
REMARK  9 active torsions:
REMARK  status: ('A' for Active; 'I' for Inactive)
REMARK    1  A    between atoms: C_1  and  C_2
REMARK    2  A    between atoms: C_2  and  O_4
REMARK    3  A    between atoms: O_4  and  C_5
REMARK    4  A    between atoms: C_5  and  C_6
REMARK    5  A    between atoms: CA_7  and  C_8
REMARK    6  A    between atoms: C_8  and  OXT_10
REMARK    7  A    between atoms: CA_14  and  N_15
REMARK    8  A    between atoms: C_16  and  C_18
REMARK    9  A    between atoms: C_18  and  C_19
REMARK                            x       y       z     vdW  Elec       q    Type
REMARK                         _______ _______ _______ _____ _____    ______ ____
ROOT
ATOM      1  C   UNL     1       5.453   4.934  17.954  0.00  0.00    +0.000 C 
ATOM      2  CA  UNL     1       4.593   4.384  18.858  0.00  0.00    +0.000 C 
ATOM      3  N   UNL     1       3.639   5.168  19.446  0.00  0.00    +0.000 N 
ATOM      4  C   UNL     1       2.507   5.004  20.155  0.00  0.00    +0.000 C 
ATOM      5  O   UNL     1       2.086   4.043  20.752  0.00  0.00    +0.000 OA
ATOM      6  CA  UNL     1       2.062   6.469  19.814  0.00  0.00    +0.000 C 
ATOM      7  C   UNL     1       3.544   6.617  19.343  0.00  0.00    +0.000 C 
ATOM      8  S   UNL     1       3.759   7.096  17.617  0.00  0.00    +0.000 S 
ATOM      9  C   UNL     1       5.431   6.399  17.554  0.00  0.00    +0.000 C 
ENDROOT
BRANCH   6  10
ATOM     10  N   UNL     1       1.633   7.291  20.979  0.00  0.00    +0.000 N 
ATOM     11  C   UNL     1       1.217   8.597  20.807  0.00  0.00    +0.000 C 
ATOM     12  O   UNL     1       1.291   9.171  19.724  0.00  0.00    +0.000 OA
ATOM     13  H   UNL     1       1.381   6.826  21.846  0.00  0.00    +0.000 HD
BRANCH  11  14
ATOM     14  C   UNL     1       0.702   9.275  22.058  0.00  0.00    +0.000 C 
BRANCH  14  15
ATOM     15  C   UNL     1      -0.265  10.359  21.705  0.00  0.00    +0.000 A 
ATOM     16  C   UNL     1      -0.575  10.852  20.453  0.00  0.00    +0.000 A 
ATOM     17  C   UNL     1      -1.487  11.946  20.511  0.00  0.00    +0.000 A 
ATOM     18  C   UNL     1      -1.861  12.236  21.804  0.00  0.00    +0.000 A 
ATOM     19  S   UNL     1      -1.122  11.189  22.936  0.00  0.00    +0.000 S 
ENDBRANCH  14  15
ENDBRANCH  11  14
ENDBRANCH   6  10
BRANCH   2  20
ATOM     20  C   UNL     1       4.645   2.897  19.147  0.00  0.00    +0.000 C 
ATOM     21  O   UNL     1       5.118   2.414  20.164  0.00  0.00    +0.000 OA
BRANCH  20  22
ATOM     22  OXT UNL     1       4.051   2.105  18.230  0.00  0.00    +0.000 OA
ATOM     23  HXT UNL     1       3.192   2.420  17.880  0.00  0.00    +0.000 HD
ENDBRANCH  20  22
ENDBRANCH   2  20
BRANCH   1  24
ATOM     24  C   UNL     1       6.511   4.166  17.183  0.00  0.00    +0.000 C 
BRANCH  24  25
ATOM     25  O   UNL     1       6.037   3.788  15.889  0.00  0.00    +0.000 OA
BRANCH  25  27
ATOM     26  C   UNL     1       6.028   3.905  13.558  0.00  0.00    +0.000 C 
ATOM     27  C   UNL     1       6.633   4.400  14.834  0.00  0.00    +0.000 C 
ATOM     28  O   UNL     1       7.533   5.223  14.907  0.00  0.00    +0.000 OA
ENDBRANCH  25  27
ENDBRANCH  24  25
ENDBRANCH   1  24
TORSDOF 8
ENDMDL
MODEL 4
REMARK VINA RESULT:      -6.9      1.297      1.789
REMARK  Name = 
REMARK  9 active torsions:
REMARK  status: ('A' for Active; 'I' for Inactive)
REMARK    1  A    between atoms: C_1  and  C_2
REMARK    2  A    between atoms: C_2  and  O_4
REMARK    3  A    between atoms: O_4  and  C_5
REMARK    4  A    between atoms: C_5  and  C_6
REMARK    5  A    between atoms: CA_7  and  C_8
REMARK    6  A    between atoms: C_8  and  OXT_10
REMARK    7  A    between atoms: CA_14  and  N_15
REMARK    8  A    between atoms: C_16  and  C_18
REMARK    9  A    between atoms: C_18  and  C_19
REMARK                            x       y       z     vdW  Elec       q    Type
REMARK                         _______ _______ _______ _____ _____    ______ ____
ROOT
ATOM      1  C   UNL     1       4.454   5.711  17.675  0.00  0.00    +0.000 C 
ATOM      2  CA  UNL     1       3.903   5.262  18.838  0.00  0.00    +0.000 C 
ATOM      3  N   UNL     1       3.068   6.078  19.550  0.00  0.00    +0.000 N 
ATOM      4  C   UNL     1       2.172   5.969  20.547  0.00  0.00    +0.000 C 
ATOM      5  O   UNL     1       2.001   5.088  21.356  0.00  0.00    +0.000 OA
ATOM      6  CA  UNL     1       1.532   7.343  20.147  0.00  0.00    +0.000 C 
ATOM      7  C   UNL     1       2.828   7.490  19.286  0.00  0.00    +0.000 C 
ATOM      8  S   UNL     1       2.554   7.716  17.517  0.00  0.00    +0.000 S 
ATOM      9  C   UNL     1       4.207   7.097  17.106  0.00  0.00    +0.000 C 
ENDROOT
BRANCH   6  10
ATOM     10  N   UNL     1       1.347   8.309  21.265  0.00  0.00    +0.000 N 
ATOM     11  C   UNL     1       0.107   8.487  21.848  0.00  0.00    +0.000 C 
ATOM     12  O   UNL     1      -0.907   7.957  21.403  0.00  0.00    +0.000 OA
ATOM     13  H   UNL     1       2.161   8.628  21.783  0.00  0.00    +0.000 HD
BRANCH  11  14
ATOM     14  C   UNL     1       0.088   9.412  23.045  0.00  0.00    +0.000 C 
BRANCH  14  15
ATOM     15  C   UNL     1      -0.584  10.702  22.699  0.00  0.00    +0.000 A 
ATOM     16  C   UNL     1      -1.732  11.239  23.247  0.00  0.00    +0.000 A 
ATOM     17  C   UNL     1      -2.121  12.453  22.608  0.00  0.00    +0.000 A 
ATOM     18  C   UNL     1      -1.243  12.813  21.610  0.00  0.00    +0.000 A 
ATOM     19  S   UNL     1       0.043  11.697  21.453  0.00  0.00    +0.000 S 
ENDBRANCH  14  15
ENDBRANCH  11  14
ENDBRANCH   6  10
BRANCH   2  20
ATOM     20  C   UNL     1       4.153   3.839  19.296  0.00  0.00    +0.000 C 
ATOM     21  O   UNL     1       5.219   3.439  19.738  0.00  0.00    +0.000 OA
BRANCH  20  22
ATOM     22  OXT UNL     1       3.080   3.020  19.265  0.00  0.00    +0.000 OA
ATOM     23  HXT UNL     1       2.329   3.274  19.842  0.00  0.00    +0.000 HD
ENDBRANCH  20  22
ENDBRANCH   2  20
BRANCH   1  24
ATOM     24  C   UNL     1       5.342   4.888  16.759  0.00  0.00    +0.000 C 
BRANCH  24  25
ATOM     25  O   UNL     1       6.626   5.495  16.600  0.00  0.00    +0.000 OA
BRANCH  25  27
ATOM     26  C   UNL     1       7.815   6.762  18.158  0.00  0.00    +0.000 C 
ATOM     27  C   UNL     1       7.468   5.394  17.659  0.00  0.00    +0.000 C 
ATOM     28  O   UNL     1       7.890   4.350  18.134  0.00  0.00    +0.000 OA
ENDBRANCH  25  27
ENDBRANCH  24  25
ENDBRANCH   1  24
TORSDOF 8
ENDMDL
MODEL 5
REMARK VINA RESULT:      -6.9      1.202      1.723
REMARK  Name = 
REMARK  9 active torsions:
REMARK  status: ('A' for Active; 'I' for Inactive)
REMARK    1  A    between atoms: C_1  and  C_2
REMARK    2  A    between atoms: C_2  and  O_4
REMARK    3  A    between atoms: O_4  and  C_5
REMARK    4  A    between atoms: C_5  and  C_6
REMARK    5  A    between atoms: CA_7  and  C_8
REMARK    6  A    between atoms: C_8  and  OXT_10
REMARK    7  A    between atoms: CA_14  and  N_15
REMARK    8  A    between atoms: C_16  and  C_18
REMARK    9  A    between atoms: C_18  and  C_19
REMARK                            x       y       z     vdW  Elec       q    Type
REMARK                         _______ _______ _______ _____ _____    ______ ____
ROOT
ATOM      1  C   UNL     1       4.508   5.369  17.644  0.00  0.00    +0.000 C 
ATOM      2  CA  UNL     1       3.937   4.850  18.768  0.00  0.00    +0.000 C 
ATOM      3  N   UNL     1       3.104   5.629  19.524  0.00  0.00    +0.000 N 
ATOM      4  C   UNL     1       2.195   5.465  20.502  0.00  0.00    +0.000 C 
ATOM      5  O   UNL     1       2.001   4.534  21.246  0.00  0.00    +0.000 OA
ATOM      6  CA  UNL     1       1.581   6.874  20.190  0.00  0.00    +0.000 C 
ATOM      7  C   UNL     1       2.889   7.059  19.355  0.00  0.00    +0.000 C 
ATOM      8  S   UNL     1       2.640   7.410  17.604  0.00  0.00    +0.000 S 
ATOM      9  C   UNL     1       4.289   6.795  17.170  0.00  0.00    +0.000 C 
ENDROOT
BRANCH   6  10
ATOM     10  N   UNL     1       1.396   7.763  21.370  0.00  0.00    +0.000 N 
ATOM     11  C   UNL     1       0.608   8.894  21.286  0.00  0.00    +0.000 C 
ATOM     12  O   UNL     1       0.128   9.280  20.224  0.00  0.00    +0.000 OA
ATOM     13  H   UNL     1       1.611   7.406  22.297  0.00  0.00    +0.000 HD
BRANCH  11  14
ATOM     14  C   UNL     1       0.417   9.640  22.588  0.00  0.00    +0.000 C 
BRANCH  14  15
ATOM     15  C   UNL     1      -0.235  10.963  22.343  0.00  0.00    +0.000 A 
ATOM     16  C   UNL     1       0.205  11.995  21.537  0.00  0.00    +0.000 A 
ATOM     17  C   UNL     1      -0.640  13.141  21.613  0.00  0.00    +0.000 A 
ATOM     18  C   UNL     1      -1.708  12.937  22.457  0.00  0.00    +0.000 A 
ATOM     19  S   UNL     1      -1.694  11.371  23.144  0.00  0.00    +0.000 S 
ENDBRANCH  14  15
ENDBRANCH  11  14
ENDBRANCH   6  10
BRANCH   2  20
ATOM     20  C   UNL     1       4.159   3.395  19.129  0.00  0.00    +0.000 C 
ATOM     21  O   UNL     1       3.364   2.500  18.885  0.00  0.00    +0.000 OA
BRANCH  20  22
ATOM     22  OXT UNL     1       5.355   3.109  19.684  0.00  0.00    +0.000 OA
ATOM     23  HXT UNL     1       6.099   3.694  19.429  0.00  0.00    +0.000 HD
ENDBRANCH  20  22
ENDBRANCH   2  20
BRANCH   1  24
ATOM     24  C   UNL     1       5.395   4.597  16.685  0.00  0.00    +0.000 C 
BRANCH  24  25
ATOM     25  O   UNL     1       6.676   5.218  16.549  0.00  0.00    +0.000 OA
BRANCH  25  27
ATOM     26  C   UNL     1       7.741   6.741  17.961  0.00  0.00    +0.000 C 
ATOM     27  C   UNL     1       7.418   5.306  17.682  0.00  0.00    +0.000 C 
ATOM     28  O   UNL     1       7.778   4.363  18.369  0.00  0.00    +0.000 OA
ENDBRANCH  25  27
ENDBRANCH  24  25
ENDBRANCH   1  24
TORSDOF 8
ENDMDL
MODEL 6
REMARK VINA RESULT:      -6.9      0.878      1.142
REMARK  Name = 
REMARK  9 active torsions:
REMARK  status: ('A' for Active; 'I' for Inactive)
REMARK    1  A    between atoms: C_1  and  C_2
REMARK    2  A    between atoms: C_2  and  O_4
REMARK    3  A    between atoms: O_4  and  C_5
REMARK    4  A    between atoms: C_5  and  C_6
REMARK    5  A    between atoms: CA_7  and  C_8
REMARK    6  A    between atoms: C_8  and  OXT_10
REMARK    7  A    between atoms: CA_14  and  N_15
REMARK    8  A    between atoms: C_16  and  C_18
REMARK    9  A    between atoms: C_18  and  C_19
REMARK                            x       y       z     vdW  Elec       q    Type
REMARK                         _______ _______ _______ _____ _____    ______ ____
ROOT
ATOM      1  C   UNL     1       4.612   5.320  17.721  0.00  0.00    +0.000 C 
ATOM      2  CA  UNL     1       3.974   4.832  18.823  0.00  0.00    +0.000 C 
ATOM      3  N   UNL     1       3.169   5.658  19.558  0.00  0.00    +0.000 N 
ATOM      4  C   UNL     1       2.221   5.547  20.506  0.00  0.00    +0.000 C 
ATOM      5  O   UNL     1       1.946   4.627  21.238  0.00  0.00    +0.000 OA
ATOM      6  CA  UNL     1       1.706   6.993  20.185  0.00  0.00    +0.000 C 
ATOM      7  C   UNL     1       3.049   7.100  19.392  0.00  0.00    +0.000 C 
ATOM      8  S   UNL     1       2.878   7.474  17.636  0.00  0.00    +0.000 S 
ATOM      9  C   UNL     1       4.497   6.759  17.249  0.00  0.00    +0.000 C 
ENDROOT
BRANCH   6  10
ATOM     10  N   UNL     1       1.541   7.886  21.364  0.00  0.00    +0.000 N 
ATOM     11  C   UNL     1       0.447   8.724  21.469  0.00  0.00    +0.000 C 
ATOM     12  O   UNL     1      -0.364   8.858  20.557  0.00  0.00    +0.000 OA
ATOM     13  H   UNL     1       2.067   7.690  22.211  0.00  0.00    +0.000 HD
BRANCH  11  14
ATOM     14  C   UNL     1       0.349   9.490  22.770  0.00  0.00    +0.000 C 
BRANCH  14  15
ATOM     15  C   UNL     1      -0.427  10.753  22.576  0.00  0.00    +0.000 A 
ATOM     16  C   UNL     1      -1.602  11.136  23.194  0.00  0.00    +0.000 A 
ATOM     17  C   UNL     1      -2.096  12.377  22.697  0.00  0.00    +0.000 A 
ATOM     18  C   UNL     1      -1.270  12.911  21.733  0.00  0.00    +0.000 A 
ATOM     19  S   UNL     1       0.095  11.924  21.439  0.00  0.00    +0.000 S 
ENDBRANCH  14  15
ENDBRANCH  11  14
ENDBRANCH   6  10
BRANCH   2  20
ATOM     20  C   UNL     1       4.093   3.365  19.181  0.00  0.00    +0.000 C 
ATOM     21  O   UNL     1       5.045   2.880  19.774  0.00  0.00    +0.000 OA
BRANCH  20  22
ATOM     22  OXT UNL     1       3.024   2.601  18.873  0.00  0.00    +0.000 OA
ATOM     23  HXT UNL     1       2.639   2.738  17.982  0.00  0.00    +0.000 HD
ENDBRANCH  20  22
ENDBRANCH   2  20
BRANCH   1  24
ATOM     24  C   UNL     1       5.478   4.498  16.784  0.00  0.00    +0.000 C 
BRANCH  24  25
ATOM     25  O   UNL     1       4.945   4.492  15.457  0.00  0.00    +0.000 OA
BRANCH  25  27
ATOM     26  C   UNL     1       7.166   4.886  14.859  0.00  0.00    +0.000 C 
ATOM     27  C   UNL     1       5.843   4.314  14.456  0.00  0.00    +0.000 C 
ATOM     28  O   UNL     1       5.612   3.777  13.382  0.00  0.00    +0.000 OA
ENDBRANCH  25  27
ENDBRANCH  24  25
ENDBRANCH   1  24
TORSDOF 8
ENDMDL
MODEL 7
REMARK VINA RESULT:      -6.8      4.767      7.266
REMARK  Name = 
REMARK  9 active torsions:
REMARK  status: ('A' for Active; 'I' for Inactive)
REMARK    1  A    between atoms: C_1  and  C_2
REMARK    2  A    between atoms: C_2  and  O_4
REMARK    3  A    between atoms: O_4  and  C_5
REMARK    4  A    between atoms: C_5  and  C_6
REMARK    5  A    between atoms: CA_7  and  C_8
REMARK    6  A    between atoms: C_8  and  OXT_10
REMARK    7  A    between atoms: CA_14  and  N_15
REMARK    8  A    between atoms: C_16  and  C_18
REMARK    9  A    between atoms: C_18  and  C_19
REMARK                            x       y       z     vdW  Elec       q    Type
REMARK                         _______ _______ _______ _____ _____    ______ ____
ROOT
ATOM      1  C   UNL     1       3.834   4.471  17.162  0.00  0.00    +0.000 C 
ATOM      2  CA  UNL     1       4.931   4.717  16.390  0.00  0.00    +0.000 C 
ATOM      3  N   UNL     1       5.755   5.764  16.702  0.00  0.00    +0.000 N 
ATOM      4  C   UNL     1       6.991   6.193  16.388  0.00  0.00    +0.000 C 
ATOM      5  O   UNL     1       7.715   5.896  15.468  0.00  0.00    +0.000 OA
ATOM      6  CA  UNL     1       7.019   7.102  17.665  0.00  0.00    +0.000 C 
ATOM      7  C   UNL     1       5.487   6.791  17.699  0.00  0.00    +0.000 C 
ATOM      8  S   UNL     1       4.896   6.001  19.209  0.00  0.00    +0.000 S 
ATOM      9  C   UNL     1       3.447   5.309  18.367  0.00  0.00    +0.000 C 
ENDROOT
BRANCH   6  10
ATOM     10  N   UNL     1       7.420   8.516  17.431  0.00  0.00    +0.000 N 
ATOM     11  C   UNL     1       8.404   9.108  18.199  0.00  0.00    +0.000 C 
ATOM     12  O   UNL     1       8.902   8.547  19.171  0.00  0.00    +0.000 OA
ATOM     13  H   UNL     1       7.182   8.958  16.548  0.00  0.00    +0.000 HD
BRANCH  11  14
ATOM     14  C   UNL     1       8.790  10.509  17.777  0.00  0.00    +0.000 C 
BRANCH  14  15
ATOM     15  C   UNL     1       9.715  11.121  18.780  0.00  0.00    +0.000 A 
ATOM     16  C   UNL     1       9.498  11.325  20.129  0.00  0.00    +0.000 A 
ATOM     17  C   UNL     1      10.579  12.012  20.754  0.00  0.00    +0.000 A 
ATOM     18  C   UNL     1      11.595  12.289  19.866  0.00  0.00    +0.000 A 
ATOM     19  S   UNL     1      11.247  11.716  18.293  0.00  0.00    +0.000 S 
ENDBRANCH  14  15
ENDBRANCH  11  14
ENDBRANCH   6  10
BRANCH   2  20
ATOM     20  C   UNL     1       5.277   3.787  15.245  0.00  0.00    +0.000 C 
ATOM     21  O   UNL     1       5.164   4.083  14.065  0.00  0.00    +0.000 OA
BRANCH  20  22
ATOM     22  OXT UNL     1       5.812   2.600  15.600  0.00  0.00    +0.000 OA
ATOM     23  HXT UNL     1       6.763   2.478  15.396  0.00  0.00    +0.000 HD
ENDBRANCH  20  22
ENDBRANCH   2  20
BRANCH   1  24
ATOM     24  C   UNL     1       2.878   3.308  16.967  0.00  0.00    +0.000 C 
BRANCH  24  25
ATOM     25  O   UNL     1       3.359   2.128  17.615  0.00  0.00    +0.000 OA
BRANCH  25  27
ATOM     26  C   UNL     1       4.203   1.985  19.786  0.00  0.00    +0.000 C 
ATOM     27  C   UNL     1       2.989   1.968  18.911  0.00  0.00    +0.000 C 
ATOM     28  O   UNL     1       1.843   1.823  19.309  0.00  0.00    +0.000 OA
ENDBRANCH  25  27
ENDBRANCH  24  25
ENDBRANCH   1  24
TORSDOF 8
ENDMDL
MODEL 8
REMARK VINA RESULT:      -6.8      0.842      1.180
REMARK  Name = 
REMARK  9 active torsions:
REMARK  status: ('A' for Active; 'I' for Inactive)
REMARK    1  A    between atoms: C_1  and  C_2
REMARK    2  A    between atoms: C_2  and  O_4
REMARK    3  A    between atoms: O_4  and  C_5
REMARK    4  A    between atoms: C_5  and  C_6
REMARK    5  A    between atoms: CA_7  and  C_8
REMARK    6  A    between atoms: C_8  and  OXT_10
REMARK    7  A    between atoms: CA_14  and  N_15
REMARK    8  A    between atoms: C_16  and  C_18
REMARK    9  A    between atoms: C_18  and  C_19
REMARK                            x       y       z     vdW  Elec       q    Type
REMARK                         _______ _______ _______ _____ _____    ______ ____
ROOT
ATOM      1  C   UNL     1       4.736   4.975  17.826  0.00  0.00    +0.000 C 
ATOM      2  CA  UNL     1       3.990   4.626  18.912  0.00  0.00    +0.000 C 
ATOM      3  N   UNL     1       3.210   5.567  19.527  0.00  0.00    +0.000 N 
ATOM      4  C   UNL     1       2.197   5.605  20.411  0.00  0.00    +0.000 C 
ATOM      5  O   UNL     1       1.800   4.769  21.187  0.00  0.00    +0.000 OA
ATOM      6  CA  UNL     1       1.825   7.056  19.950  0.00  0.00    +0.000 C 
ATOM      7  C   UNL     1       3.220   6.997  19.248  0.00  0.00    +0.000 C 
ATOM      8  S   UNL     1       3.194   7.244  17.461  0.00  0.00    +0.000 S 
ATOM      9  C   UNL     1       4.771   6.377  17.244  0.00  0.00    +0.000 C 
ENDROOT
BRANCH   6  10
ATOM     10  N   UNL     1       1.658   8.050  21.046  0.00  0.00    +0.000 N 
ATOM     11  C   UNL     1       0.404   8.356  21.537  0.00  0.00    +0.000 C 
ATOM     12  O   UNL     1      -0.624   7.923  21.024  0.00  0.00    +0.000 OA
ATOM     13  H   UNL     1       2.461   8.295  21.618  0.00  0.00    +0.000 HD
BRANCH  11  14
ATOM     14  C   UNL     1       0.392   9.294  22.725  0.00  0.00    +0.000 C 
BRANCH  14  15
ATOM     15  C   UNL     1      -0.125  10.638  22.325  0.00  0.00    +0.000 A 
ATOM     16  C   UNL     1       0.403  11.515  21.397  0.00  0.00    +0.000 A 
ATOM     17  C   UNL     1      -0.318  12.743  21.339  0.00  0.00    +0.000 A 
ATOM     18  C   UNL     1      -1.386  12.754  22.208  0.00  0.00    +0.000 A 
ATOM     19  S   UNL     1      -1.520  11.289  23.080  0.00  0.00    +0.000 S 
ENDBRANCH  14  15
ENDBRANCH  11  14
ENDBRANCH   6  10
BRANCH   2  20
ATOM     20  C   UNL     1       3.965   3.187  19.384  0.00  0.00    +0.000 C 
ATOM     21  O   UNL     1       4.859   2.663  20.031  0.00  0.00    +0.000 OA
BRANCH  20  22
ATOM     22  OXT UNL     1       2.831   2.506  19.116  0.00  0.00    +0.000 OA
ATOM     23  HXT UNL     1       2.693   2.252  18.180  0.00  0.00    +0.000 HD
ENDBRANCH  20  22
ENDBRANCH   2  20
BRANCH   1  24
ATOM     24  C   UNL     1       5.590   4.018  17.015  0.00  0.00    +0.000 C 
BRANCH  24  25
ATOM     25  O   UNL     1       6.817   4.632  16.614  0.00  0.00    +0.000 OA
BRANCH  25  27
ATOM     26  C   UNL     1       6.046   3.893  14.540  0.00  0.00    +0.000 C 
ATOM     27  C   UNL     1       7.003   4.776  15.277  0.00  0.00    +0.000 C 
ATOM     28  O   UNL     1       7.828   5.505  14.750  0.00  0.00    +0.000 OA
ENDBRANCH  25  27
ENDBRANCH  24  25
ENDBRANCH   1  24
TORSDOF 8
ENDMDL
MODEL 9
REMARK VINA RESULT:      -6.8      0.970      1.190
REMARK  Name = 
REMARK  9 active torsions:
REMARK  status: ('A' for Active; 'I' for Inactive)
REMARK    1  A    between atoms: C_1  and  C_2
REMARK    2  A    between atoms: C_2  and  O_4
REMARK    3  A    between atoms: O_4  and  C_5
REMARK    4  A    between atoms: C_5  and  C_6
REMARK    5  A    between atoms: CA_7  and  C_8
REMARK    6  A    between atoms: C_8  and  OXT_10
REMARK    7  A    between atoms: CA_14  and  N_15
REMARK    8  A    between atoms: C_16  and  C_18
REMARK    9  A    between atoms: C_18  and  C_19
REMARK                            x       y       z     vdW  Elec       q    Type
REMARK                         _______ _______ _______ _____ _____    ______ ____
ROOT
ATOM      1  C   UNL     1       4.879   5.084  17.655  0.00  0.00    +0.000 C 
ATOM      2  CA  UNL     1       4.132   4.593  18.684  0.00  0.00    +0.000 C 
ATOM      3  N   UNL     1       3.320   5.436  19.392  0.00  0.00    +0.000 N 
ATOM      4  C   UNL     1       2.297   5.345  20.261  0.00  0.00    +0.000 C 
ATOM      5  O   UNL     1       1.916   4.415  20.931  0.00  0.00    +0.000 OA
ATOM      6  CA  UNL     1       1.890   6.829  19.964  0.00  0.00    +0.000 C 
ATOM      7  C   UNL     1       3.293   6.888  19.278  0.00  0.00    +0.000 C 
ATOM      8  S   UNL     1       3.278   7.338  17.532  0.00  0.00    +0.000 S 
ATOM      9  C   UNL     1       4.880   6.543  17.237  0.00  0.00    +0.000 C 
ENDROOT
BRANCH   6  10
ATOM     10  N   UNL     1       1.684   7.686  21.164  0.00  0.00    +0.000 N 
ATOM     11  C   UNL     1       0.743   8.697  21.159  0.00  0.00    +0.000 C 
ATOM     12  O   UNL     1       0.126   9.010  20.145  0.00  0.00    +0.000 OA
ATOM     13  H   UNL     1       2.025   7.364  22.066  0.00  0.00    +0.000 HD
BRANCH  11  14
ATOM     14  C   UNL     1       0.561   9.411  22.480  0.00  0.00    +0.000 C 
BRANCH  14  15
ATOM     15  C   UNL     1      -0.005  10.777  22.264  0.00  0.00    +0.000 A 
ATOM     16  C   UNL     1       0.508  11.801  21.490  0.00  0.00    +0.000 A 
ATOM     17  C   UNL     1      -0.265  12.994  21.588  0.00  0.00    +0.000 A 
ATOM     18  C   UNL     1      -1.355  12.835  22.414  0.00  0.00    +0.000 A 
ATOM     19  S   UNL     1      -1.446  11.254  23.059  0.00  0.00    +0.000 S 
ENDBRANCH  14  15
ENDBRANCH  11  14
ENDBRANCH   6  10
BRANCH   2  20
ATOM     20  C   UNL     1       4.142   3.108  18.988  0.00  0.00    +0.000 C 
ATOM     21  O   UNL     1       3.347   2.308  18.520  0.00  0.00    +0.000 OA
BRANCH  20  22
ATOM     22  OXT UNL     1       5.157   2.680  19.768  0.00  0.00    +0.000 OA
ATOM     23  HXT UNL     1       5.719   1.971  19.392  0.00  0.00    +0.000 HD
ENDBRANCH  20  22
ENDBRANCH   2  20
BRANCH   1  24
ATOM     24  C   UNL     1       5.768   4.248  16.751  0.00  0.00    +0.000 C 
BRANCH  24  25
ATOM     25  O   UNL     1       5.165   4.052  15.470  0.00  0.00    +0.000 OA
BRANCH  25  27
ATOM     26  C   UNL     1       7.204   4.946  14.771  0.00  0.00    +0.000 C 
ATOM     27  C   UNL     1       5.995   4.145  14.400  0.00  0.00    +0.000 C 
ATOM     28  O   UNL     1       5.790   3.660  13.298  0.00  0.00    +0.000 OA
ENDBRANCH  25  27
ENDBRANCH  24  25
ENDBRANCH   1  24
TORSDOF 8
ENDMDL
