MODEL 1
REMARK VINA RESULT:      -6.3      0.000      0.000
REMARK  Name = 
REMARK  14 active torsions:
REMARK  status: ('A' for Active; 'I' for Inactive)
REMARK    1  A    between atoms: N_1  and  C_2
REMARK    2  A    between atoms: C_2  and  C_3
REMARK    3  A    between atoms: C_3  and  C_4
REMARK    4  A    between atoms: C_4  and  C_5
REMARK    5  A    between atoms: C_5  and  N_6
REMARK    6  A    between atoms: N_6  and  C_7
REMARK    7  A    between atoms: C_7  and  C_8
REMARK    8  A    between atoms: C_8  and  C_9
REMARK    9  A    between atoms: C_9  and  N_10
REMARK   10  A    between atoms: C_11  and  C_13
REMARK   11  A    between atoms: C_15  and  C_16
REMARK   12  A    between atoms: C_18  and  C_19
REMARK   13  A    between atoms: C_19  and  C_20
REMARK   14  A    between atoms: C_20  and  N_21
REMARK                            x       y       z     vdW  Elec       q    Type
REMARK                         _______ _______ _______ _____ _____    ______ ____
ROOT
ATOM      1  C   UNL     1       3.337   4.681  19.400  0.00  0.00    +0.000 A 
ATOM      2  N   UNL     1       2.975   6.001  19.029  0.00  0.00    +0.000 NA
ATOM      3  C   UNL     1       2.032   6.464  19.841  0.00  0.00    +0.000 A 
ATOM      4  S   UNL     1       1.426   5.318  20.973  0.00  0.00    +0.000 S 
ATOM      5  C   UNL     1       2.612   4.214  20.479  0.00  0.00    +0.000 A 
ATOM      6 CL   UNL     1       2.764   2.746  21.359  0.00  0.00    +0.000 Cl
ENDROOT
BRANCH   3   7
ATOM      7  C   UNL     1       1.547   7.903  19.869  0.00  0.00    +0.000 A 
ATOM      8  N   UNL     1       0.879   8.436  20.988  0.00  0.00    +0.000 NA
ATOM      9  C   UNL     1       0.657   9.728  20.825  0.00  0.00    +0.000 A 
ATOM     10  S   UNL     1       1.205  10.365  19.318  0.00  0.00    +0.000 S 
ATOM     11  C   UNL     1       1.777   8.825  18.875  0.00  0.00    +0.000 A 
ATOM     12 CL   UNL     1       2.576   8.658  17.364  0.00  0.00    +0.000 Cl
BRANCH   9  13
ATOM     13  C   UNL     1      -0.032  10.645  21.810  0.00  0.00    +0.000 C 
BRANCH  13  14
ATOM     14  C   UNL     1      -0.522   9.906  23.062  0.00  0.00    +0.000 C 
BRANCH  14  15
ATOM     15  N   UNL     1       0.594   9.499  23.925  0.00  0.00    +0.000 NA
ATOM     16  H   UNL     1       1.332   9.073  23.366  0.00  0.00    +0.000 HD
ATOM     17  H   UNL     1       0.276   8.769  24.567  0.00  0.00    +0.000 HD
ENDBRANCH  14  15
ENDBRANCH  13  14
ENDBRANCH   9  13
ENDBRANCH   3   7
BRANCH   1  19
ATOM     18  N   UNL     1       4.410   4.026  17.344  0.00  0.00    +0.000 N 
ATOM     19  C   UNL     1       4.402   3.929  18.719  0.00  0.00    +0.000 C 
ATOM     20  O   UNL     1       5.244   3.264  19.323  0.00  0.00    +0.000 OA
ATOM     21  H   UNL     1       3.676   4.579  16.913  0.00  0.00    +0.000 HD
BRANCH  18  22
ATOM     22  C   UNL     1       5.451   3.417  16.527  0.00  0.00    +0.000 C 
BRANCH  22  23
ATOM     23  C   UNL     1       5.712   4.140  15.204  0.00  0.00    +0.000 C 
BRANCH  23  24
ATOM     24  C   UNL     1       6.354   5.524  15.343  0.00  0.00    +0.000 C 
BRANCH  24  25
ATOM     25  N   UNL     1       5.428   6.503  15.913  0.00  0.00    +0.000 NA
ATOM     26  H   UNL     1       5.224   7.237  15.238  0.00  0.00    +0.000 HD
BRANCH  25  27
ATOM     27  C   UNL     1       5.971   7.111  17.127  0.00  0.00    +0.000 C 
BRANCH  27  28
ATOM     28  C   UNL     1       7.497   6.965  17.179  0.00  0.00    +0.000 C 
BRANCH  28  29
ATOM     29  C   UNL     1       8.043   6.876  18.608  0.00  0.00    +0.000 C 
BRANCH  29  30
ATOM     30  C   UNL     1       7.441   5.691  19.361  0.00  0.00    +0.000 C 
BRANCH  30  31
ATOM     31  N   UNL     1       8.258   5.365  20.523  0.00  0.00    +0.000 NA
ATOM     32  H   UNL     1       8.127   6.071  21.245  0.00  0.00    +0.000 HD
ATOM     33  H   UNL     1       9.243   5.383  20.271  0.00  0.00    +0.000 HD
ENDBRANCH  30  31
ENDBRANCH  29  30
ENDBRANCH  28  29
ENDBRANCH  27  28
ENDBRANCH  25  27
ENDBRANCH  24  25
ENDBRANCH  23  24
ENDBRANCH  22  23
ENDBRANCH  18  22
ENDBRANCH   1  19
TORSDOF 14
ENDMDL
MODEL 2
REMARK VINA RESULT:      -6.0      4.270      8.464
REMARK  Name = 
REMARK  14 active torsions:
REMARK  status: ('A' for Active; 'I' for Inactive)
REMARK    1  A    between atoms: N_1  and  C_2
REMARK    2  A    between atoms: C_2  and  C_3
REMARK    3  A    between atoms: C_3  and  C_4
REMARK    4  A    between atoms: C_4  and  C_5
REMARK    5  A    between atoms: C_5  and  N_6
REMARK    6  A    between atoms: N_6  and  C_7
REMARK    7  A    between atoms: C_7  and  C_8
REMARK    8  A    between atoms: C_8  and  C_9
REMARK    9  A    between atoms: C_9  and  N_10
REMARK   10  A    between atoms: C_11  and  C_13
REMARK   11  A    between atoms: C_15  and  C_16
REMARK   12  A    between atoms: C_18  and  C_19
REMARK   13  A    between atoms: C_19  and  C_20
REMARK   14  A    between atoms: C_20  and  N_21
REMARK                            x       y       z     vdW  Elec       q    Type
REMARK                         _______ _______ _______ _____ _____    ______ ____
ROOT
ATOM      1  C   UNL     1       5.121   5.936  17.158  0.00  0.00    +0.000 A 
ATOM      2  N   UNL     1       5.111   5.647  15.770  0.00  0.00    +0.000 NA
ATOM      3  C   UNL     1       6.232   5.026  15.422  0.00  0.00    +0.000 A 
ATOM      4  S   UNL     1       7.403   4.893  16.677  0.00  0.00    +0.000 S 
ATOM      5  C   UNL     1       6.283   5.525  17.779  0.00  0.00    +0.000 A 
ATOM      6 CL   UNL     1       6.713   5.543  19.443  0.00  0.00    +0.000 Cl
ENDROOT
BRANCH   3   7
ATOM      7  C   UNL     1       6.482   4.390  14.066  0.00  0.00    +0.000 A 
ATOM      8  N   UNL     1       5.681   3.338  13.582  0.00  0.00    +0.000 NA
ATOM      9  C   UNL     1       6.017   3.030  12.343  0.00  0.00    +0.000 A 
ATOM     10  S   UNL     1       7.325   3.955  11.704  0.00  0.00    +0.000 S 
ATOM     11  C   UNL     1       7.430   4.817  13.166  0.00  0.00    +0.000 A 
ATOM     12 CL   UNL     1       8.594   6.075  13.286  0.00  0.00    +0.000 Cl
BRANCH   9  13
ATOM     13  C   UNL     1       5.382   1.956  11.489  0.00  0.00    +0.000 C 
BRANCH  13  14
ATOM     14  C   UNL     1       6.404   0.948  10.946  0.00  0.00    +0.000 C 
BRANCH  14  15
ATOM     15  N   UNL     1       6.027  -0.434  11.267  0.00  0.00    +0.000 NA
ATOM     16  H   UNL     1       6.774  -1.072  10.998  0.00  0.00    +0.000 HD
ATOM     17  H   UNL     1       5.217  -0.702  10.703  0.00  0.00    +0.000 HD
ENDBRANCH  14  15
ENDBRANCH  13  14
ENDBRANCH   9  13
ENDBRANCH   3   7
BRANCH   1  19
ATOM     18  N   UNL     1       3.355   5.788  18.791  0.00  0.00    +0.000 N 
ATOM     19  C   UNL     1       3.984   6.568  17.845  0.00  0.00    +0.000 C 
ATOM     20  O   UNL     1       3.617   7.720  17.613  0.00  0.00    +0.000 OA
ATOM     21  H   UNL     1       3.702   4.842  18.919  0.00  0.00    +0.000 HD
BRANCH  18  22
ATOM     22  C   UNL     1       2.272   6.296  19.623  0.00  0.00    +0.000 C 
BRANCH  22  23
ATOM     23  C   UNL     1       1.833   5.337  20.732  0.00  0.00    +0.000 C 
BRANCH  23  24
ATOM     24  C   UNL     1       0.946   4.178  20.266  0.00  0.00    +0.000 C 
BRANCH  24  25
ATOM     25  N   UNL     1       1.159   3.858  18.854  0.00  0.00    +0.000 NA
ATOM     26  H   UNL     1       0.490   4.356  18.271  0.00  0.00    +0.000 HD
BRANCH  25  27
ATOM     27  C   UNL     1       1.032   2.422  18.606  0.00  0.00    +0.000 C 
BRANCH  27  28
ATOM     28  C   UNL     1       2.274   1.667  19.095  0.00  0.00    +0.000 C 
BRANCH  28  29
ATOM     29  C   UNL     1       3.578   2.212  18.505  0.00  0.00    +0.000 C 
BRANCH  29  30
ATOM     30  C   UNL     1       4.526   2.697  19.600  0.00  0.00    +0.000 C 
BRANCH  30  31
ATOM     31  N   UNL     1       5.158   1.561  20.259  0.00  0.00    +0.000 NA
ATOM     32  H   UNL     1       4.444   0.954  20.658  0.00  0.00    +0.000 HD
ATOM     33  H   UNL     1       5.732   1.885  21.033  0.00  0.00    +0.000 HD
ENDBRANCH  30  31
ENDBRANCH  29  30
ENDBRANCH  28  29
ENDBRANCH  27  28
ENDBRANCH  25  27
ENDBRANCH  24  25
ENDBRANCH  23  24
ENDBRANCH  22  23
ENDBRANCH  18  22
ENDBRANCH   1  19
TORSDOF 14
ENDMDL
MODEL 3
REMARK VINA RESULT:      -5.8      4.109      8.226
REMARK  Name = 
REMARK  14 active torsions:
REMARK  status: ('A' for Active; 'I' for Inactive)
REMARK    1  A    between atoms: N_1  and  C_2
REMARK    2  A    between atoms: C_2  and  C_3
REMARK    3  A    between atoms: C_3  and  C_4
REMARK    4  A    between atoms: C_4  and  C_5
REMARK    5  A    between atoms: C_5  and  N_6
REMARK    6  A    between atoms: N_6  and  C_7
REMARK    7  A    between atoms: C_7  and  C_8
REMARK    8  A    between atoms: C_8  and  C_9
REMARK    9  A    between atoms: C_9  and  N_10
REMARK   10  A    between atoms: C_11  and  C_13
REMARK   11  A    between atoms: C_15  and  C_16
REMARK   12  A    between atoms: C_18  and  C_19
REMARK   13  A    between atoms: C_19  and  C_20
REMARK   14  A    between atoms: C_20  and  N_21
REMARK                            x       y       z     vdW  Elec       q    Type
REMARK                         _______ _______ _______ _____ _____    ______ ____
ROOT
ATOM      1  C   UNL     1       4.974   5.956  17.244  0.00  0.00    +0.000 A 
ATOM      2  N   UNL     1       4.943   5.745  15.842  0.00  0.00    +0.000 NA
ATOM      3  C   UNL     1       6.026   5.083  15.453  0.00  0.00    +0.000 A 
ATOM      4  S   UNL     1       7.194   4.817  16.691  0.00  0.00    +0.000 S 
ATOM      5  C   UNL     1       6.114   5.448  17.834  0.00  0.00    +0.000 A 
ATOM      6 CL   UNL     1       6.550   5.351  19.493  0.00  0.00    +0.000 Cl
ENDROOT
BRANCH   3   7
ATOM      7  C   UNL     1       6.237   4.510  14.063  0.00  0.00    +0.000 A 
ATOM      8  N   UNL     1       5.282   3.672  13.456  0.00  0.00    +0.000 NA
ATOM      9  C   UNL     1       5.631   3.393  12.213  0.00  0.00    +0.000 A 
ATOM     10  S   UNL     1       7.129   4.090  11.716  0.00  0.00    +0.000 S 
ATOM     11  C   UNL     1       7.304   4.808  13.248  0.00  0.00    +0.000 A 
ATOM     12 CL   UNL     1       8.675   5.803  13.527  0.00  0.00    +0.000 Cl
BRANCH   9  13
ATOM     13  C   UNL     1       4.858   2.528  11.244  0.00  0.00    +0.000 C 
BRANCH  13  14
ATOM     14  C   UNL     1       3.418   3.015  11.033  0.00  0.00    +0.000 C 
BRANCH  14  15
ATOM     15  N   UNL     1       3.348   4.082  10.027  0.00  0.00    +0.000 NA
ATOM     16  H   UNL     1       4.180   4.065   9.439  0.00  0.00    +0.000 HD
ATOM     17  H   UNL     1       3.358   4.990  10.497  0.00  0.00    +0.000 HD
ENDBRANCH  14  15
ENDBRANCH  13  14
ENDBRANCH   9  13
ENDBRANCH   3   7
BRANCH   1  19
ATOM     18  N   UNL     1       3.323   5.876  18.997  0.00  0.00    +0.000 N 
ATOM     19  C   UNL     1       3.877   6.612  17.972  0.00  0.00    +0.000 C 
ATOM     20  O   UNL     1       3.479   7.746  17.704  0.00  0.00    +0.000 OA
ATOM     21  H   UNL     1       3.691   4.942  19.151  0.00  0.00    +0.000 HD
BRANCH  18  22
ATOM     22  C   UNL     1       2.291   6.415  19.872  0.00  0.00    +0.000 C 
BRANCH  22  23
ATOM     23  C   UNL     1       1.689   5.390  20.836  0.00  0.00    +0.000 C 
BRANCH  23  24
ATOM     24  C   UNL     1       0.815   4.320  20.174  0.00  0.00    +0.000 C 
BRANCH  24  25
ATOM     25  N   UNL     1       1.091   2.984  20.700  0.00  0.00    +0.000 NA
ATOM     26  H   UNL     1       0.393   2.722  21.394  0.00  0.00    +0.000 HD
BRANCH  25  27
ATOM     27  C   UNL     1       2.419   2.912  21.310  0.00  0.00    +0.000 C 
BRANCH  27  28
ATOM     28  C   UNL     1       3.481   2.531  20.271  0.00  0.00    +0.000 C 
BRANCH  28  29
ATOM     29  C   UNL     1       2.892   1.842  19.036  0.00  0.00    +0.000 C 
BRANCH  29  30
ATOM     30  C   UNL     1       3.391   2.490  17.746  0.00  0.00    +0.000 C 
BRANCH  30  31
ATOM     31  N   UNL     1       2.359   3.351  17.182  0.00  0.00    +0.000 NA
ATOM     32  H   UNL     1       1.513   3.288  17.746  0.00  0.00    +0.000 HD
ATOM     33  H   UNL     1       2.112   3.031  16.249  0.00  0.00    +0.000 HD
ENDBRANCH  30  31
ENDBRANCH  29  30
ENDBRANCH  28  29
ENDBRANCH  27  28
ENDBRANCH  25  27
ENDBRANCH  24  25
ENDBRANCH  23  24
ENDBRANCH  22  23
ENDBRANCH  18  22
ENDBRANCH   1  19
TORSDOF 14
ENDMDL
MODEL 4
REMARK VINA RESULT:      -5.7      4.667      9.576
REMARK  Name = 
REMARK  14 active torsions:
REMARK  status: ('A' for Active; 'I' for Inactive)
REMARK    1  A    between atoms: N_1  and  C_2
REMARK    2  A    between atoms: C_2  and  C_3
REMARK    3  A    between atoms: C_3  and  C_4
REMARK    4  A    between atoms: C_4  and  C_5
REMARK    5  A    between atoms: C_5  and  N_6
REMARK    6  A    between atoms: N_6  and  C_7
REMARK    7  A    between atoms: C_7  and  C_8
REMARK    8  A    between atoms: C_8  and  C_9
REMARK    9  A    between atoms: C_9  and  N_10
REMARK   10  A    between atoms: C_11  and  C_13
REMARK   11  A    between atoms: C_15  and  C_16
REMARK   12  A    between atoms: C_18  and  C_19
REMARK   13  A    between atoms: C_19  and  C_20
REMARK   14  A    between atoms: C_20  and  N_21
REMARK                            x       y       z     vdW  Elec       q    Type
REMARK                         _______ _______ _______ _____ _____    ______ ____
ROOT
ATOM      1  C   UNL     1       1.353   9.213  19.464  0.00  0.00    +0.000 A 
ATOM      2  N   UNL     1       2.104   8.488  18.504  0.00  0.00    +0.000 NA
ATOM      3  C   UNL     1       2.396   7.279  18.966  0.00  0.00    +0.000 A 
ATOM      4  S   UNL     1       1.933   7.000  20.601  0.00  0.00    +0.000 S 
ATOM      5  C   UNL     1       1.140   8.496  20.624  0.00  0.00    +0.000 A 
ATOM      6 CL   UNL     1       0.202   8.890  22.009  0.00  0.00    +0.000 Cl
ENDROOT
BRANCH   3   7
ATOM      7  C   UNL     1       3.012   6.163  18.141  0.00  0.00    +0.000 A 
ATOM      8  N   UNL     1       4.148   6.378  17.338  0.00  0.00    +0.000 NA
ATOM      9  C   UNL     1       4.564   5.241  16.808  0.00  0.00    +0.000 A 
ATOM     10  S   UNL     1       3.605   3.867  17.215  0.00  0.00    +0.000 S 
ATOM     11  C   UNL     1       2.590   4.854  18.158  0.00  0.00    +0.000 A 
ATOM     12 CL   UNL     1       1.293   4.112  19.006  0.00  0.00    +0.000 Cl
BRANCH   9  13
ATOM     13  C   UNL     1       5.756   5.069  15.893  0.00  0.00    +0.000 C 
BRANCH  13  14
ATOM     14  C   UNL     1       7.092   5.306  16.610  0.00  0.00    +0.000 C 
BRANCH  14  15
ATOM     15  N   UNL     1       7.434   6.733  16.663  0.00  0.00    +0.000 NA
ATOM     16  H   UNL     1       6.625   7.297  16.407  0.00  0.00    +0.000 HD
ATOM     17  H   UNL     1       8.148   6.936  15.959  0.00  0.00    +0.000 HD
ENDBRANCH  14  15
ENDBRANCH  13  14
ENDBRANCH   9  13
ENDBRANCH   3   7
BRANCH   1  19
ATOM     18  N   UNL     1      -0.197  10.643  18.298  0.00  0.00    +0.000 N 
ATOM     19  C   UNL     1       0.834  10.566  19.209  0.00  0.00    +0.000 C 
ATOM     20  O   UNL     1       1.271  11.568  19.774  0.00  0.00    +0.000 OA
ATOM     21  H   UNL     1      -0.496   9.777  17.859  0.00  0.00    +0.000 HD
BRANCH  18  22
ATOM     22  C   UNL     1      -0.882  11.893  18.002  0.00  0.00    +0.000 C 
BRANCH  22  23
ATOM     23  C   UNL     1      -2.119  12.150  18.866  0.00  0.00    +0.000 C 
BRANCH  23  24
ATOM     24  C   UNL     1      -3.401  11.474  18.370  0.00  0.00    +0.000 C 
BRANCH  24  25
ATOM     25  N   UNL     1      -4.555  12.370  18.439  0.00  0.00    +0.000 NA
ATOM     26  H   UNL     1      -5.009  12.300  19.348  0.00  0.00    +0.000 HD
BRANCH  25  27
ATOM     27  C   UNL     1      -5.533  12.066  17.394  0.00  0.00    +0.000 C 
BRANCH  27  28
ATOM     28  C   UNL     1      -6.908  11.759  18.000  0.00  0.00    +0.000 C 
BRANCH  28  29
ATOM     29  C   UNL     1      -6.918  10.483  18.849  0.00  0.00    +0.000 C 
BRANCH  29  30
ATOM     30  C   UNL     1      -7.367  10.769  20.280  0.00  0.00    +0.000 C 
BRANCH  30  31
ATOM     31  N   UNL     1      -6.359  11.559  20.976  0.00  0.00    +0.000 NA
ATOM     32  H   UNL     1      -5.447  11.119  20.875  0.00  0.00    +0.000 HD
ATOM     33  H   UNL     1      -6.564  11.583  21.972  0.00  0.00    +0.000 HD
ENDBRANCH  30  31
ENDBRANCH  29  30
ENDBRANCH  28  29
ENDBRANCH  27  28
ENDBRANCH  25  27
ENDBRANCH  24  25
ENDBRANCH  23  24
ENDBRANCH  22  23
ENDBRANCH  18  22
ENDBRANCH   1  19
TORSDOF 14
ENDMDL
MODEL 5
REMARK VINA RESULT:      -5.7      2.776      4.338
REMARK  Name = 
REMARK  14 active torsions:
REMARK  status: ('A' for Active; 'I' for Inactive)
REMARK    1  A    between atoms: N_1  and  C_2
REMARK    2  A    between atoms: C_2  and  C_3
REMARK    3  A    between atoms: C_3  and  C_4
REMARK    4  A    between atoms: C_4  and  C_5
REMARK    5  A    between atoms: C_5  and  N_6
REMARK    6  A    between atoms: N_6  and  C_7
REMARK    7  A    between atoms: C_7  and  C_8
REMARK    8  A    between atoms: C_8  and  C_9
REMARK    9  A    between atoms: C_9  and  N_10
REMARK   10  A    between atoms: C_11  and  C_13
REMARK   11  A    between atoms: C_15  and  C_16
REMARK   12  A    between atoms: C_18  and  C_19
REMARK   13  A    between atoms: C_19  and  C_20
REMARK   14  A    between atoms: C_20  and  N_21
REMARK                            x       y       z     vdW  Elec       q    Type
REMARK                         _______ _______ _______ _____ _____    ______ ____
ROOT
ATOM      1  C   UNL     1       2.786   6.926  19.253  0.00  0.00    +0.000 A 
ATOM      2  N   UNL     1       1.919   7.689  20.075  0.00  0.00    +0.000 NA
ATOM      3  C   UNL     1       1.570   8.811  19.457  0.00  0.00    +0.000 A 
ATOM      4  S   UNL     1       2.365   9.086  17.954  0.00  0.00    +0.000 S 
ATOM      5  C   UNL     1       3.059   7.544  18.049  0.00  0.00    +0.000 A 
ATOM      6 CL   UNL     1       3.944   6.974  16.690  0.00  0.00    +0.000 Cl
ENDROOT
BRANCH   3   7
ATOM      7  C   UNL     1       0.502   9.772  19.948  0.00  0.00    +0.000 A 
ATOM      8  N   UNL     1      -0.347  10.455  19.056  0.00  0.00    +0.000 NA
ATOM      9  C   UNL     1      -1.262  11.141  19.717  0.00  0.00    +0.000 A 
ATOM     10  S   UNL     1      -1.137  11.033  21.434  0.00  0.00    +0.000 S 
ATOM     11  C   UNL     1       0.207  10.003  21.272  0.00  0.00    +0.000 A 
ATOM     12 CL   UNL     1       0.927   9.375  22.699  0.00  0.00    +0.000 Cl
BRANCH   9  13
ATOM     13  C   UNL     1      -2.349  11.994  19.104  0.00  0.00    +0.000 C 
BRANCH  13  14
ATOM     14  C   UNL     1      -2.729  11.543  17.688  0.00  0.00    +0.000 C 
BRANCH  14  15
ATOM     15  N   UNL     1      -3.629  10.383  17.710  0.00  0.00    +0.000 NA
ATOM     16  H   UNL     1      -4.589  10.682  17.550  0.00  0.00    +0.000 HD
ATOM     17  H   UNL     1      -3.620   9.967  18.644  0.00  0.00    +0.000 HD
ENDBRANCH  14  15
ENDBRANCH  13  14
ENDBRANCH   9  13
ENDBRANCH   3   7
BRANCH   1  19
ATOM     18  N   UNL     1       2.330   4.632  19.834  0.00  0.00    +0.000 N 
ATOM     19  C   UNL     1       3.291   5.601  19.646  0.00  0.00    +0.000 C 
ATOM     20  O   UNL     1       4.489   5.356  19.788  0.00  0.00    +0.000 OA
ATOM     21  H   UNL     1       1.360   4.909  19.714  0.00  0.00    +0.000 HD
BRANCH  18  22
ATOM     22  C   UNL     1       2.668   3.248  20.136  0.00  0.00    +0.000 C 
BRANCH  22  23
ATOM     23  C   UNL     1       2.244   2.249  19.057  0.00  0.00    +0.000 C 
BRANCH  23  24
ATOM     24  C   UNL     1       3.376   1.773  18.141  0.00  0.00    +0.000 C 
BRANCH  24  25
ATOM     25  N   UNL     1       4.462   2.750  18.058  0.00  0.00    +0.000 NA
ATOM     26  H   UNL     1       4.457   3.359  18.873  0.00  0.00    +0.000 HD
BRANCH  25  27
ATOM     27  C   UNL     1       4.355   3.568  16.850  0.00  0.00    +0.000 C 
BRANCH  27  28
ATOM     28  C   UNL     1       5.584   3.385  15.951  0.00  0.00    +0.000 C 
BRANCH  28  29
ATOM     29  C   UNL     1       5.641   4.396  14.800  0.00  0.00    +0.000 C 
BRANCH  29  30
ATOM     30  C   UNL     1       7.041   4.984  14.645  0.00  0.00    +0.000 C 
BRANCH  30  31
ATOM     31  N   UNL     1       7.362   5.831  15.786  0.00  0.00    +0.000 NA
ATOM     32  H   UNL     1       8.277   6.259  15.651  0.00  0.00    +0.000 HD
ATOM     33  H   UNL     1       7.425   5.267  16.630  0.00  0.00    +0.000 HD
ENDBRANCH  30  31
ENDBRANCH  29  30
ENDBRANCH  28  29
ENDBRANCH  27  28
ENDBRANCH  25  27
ENDBRANCH  24  25
ENDBRANCH  23  24
ENDBRANCH  22  23
ENDBRANCH  18  22
ENDBRANCH   1  19
TORSDOF 14
ENDMDL
MODEL 6
REMARK VINA RESULT:      -5.7      3.479      8.004
REMARK  Name = 
REMARK  14 active torsions:
REMARK  status: ('A' for Active; 'I' for Inactive)
REMARK    1  A    between atoms: N_1  and  C_2
REMARK    2  A    between atoms: C_2  and  C_3
REMARK    3  A    between atoms: C_3  and  C_4
REMARK    4  A    between atoms: C_4  and  C_5
REMARK    5  A    between atoms: C_5  and  N_6
REMARK    6  A    between atoms: N_6  and  C_7
REMARK    7  A    between atoms: C_7  and  C_8
REMARK    8  A    between atoms: C_8  and  C_9
REMARK    9  A    between atoms: C_9  and  N_10
REMARK   10  A    between atoms: C_11  and  C_13
REMARK   11  A    between atoms: C_15  and  C_16
REMARK   12  A    between atoms: C_18  and  C_19
REMARK   13  A    between atoms: C_19  and  C_20
REMARK   14  A    between atoms: C_20  and  N_21
REMARK                            x       y       z     vdW  Elec       q    Type
REMARK                         _______ _______ _______ _____ _____    ______ ____
ROOT
ATOM      1  C   UNL     1       2.896   4.804  19.111  0.00  0.00    +0.000 A 
ATOM      2  N   UNL     1       4.094   5.137  18.431  0.00  0.00    +0.000 NA
ATOM      3  C   UNL     1       4.356   4.236  17.493  0.00  0.00    +0.000 A 
ATOM      4  S   UNL     1       3.290   2.884  17.473  0.00  0.00    +0.000 S 
ATOM      5  C   UNL     1       2.327   3.635  18.647  0.00  0.00    +0.000 A 
ATOM      6 CL   UNL     1       0.834   2.892  19.061  0.00  0.00    +0.000 Cl
ENDROOT
BRANCH   3   7
ATOM      7  C   UNL     1       5.442   4.373  16.441  0.00  0.00    +0.000 A 
ATOM      8  N   UNL     1       5.243   3.954  15.112  0.00  0.00    +0.000 NA
ATOM      9  C   UNL     1       6.281   4.277  14.361  0.00  0.00    +0.000 A 
ATOM     10  S   UNL     1       7.559   5.068  15.208  0.00  0.00    +0.000 S 
ATOM     11  C   UNL     1       6.660   4.978  16.649  0.00  0.00    +0.000 A 
ATOM     12 CL   UNL     1       7.329   5.674  18.070  0.00  0.00    +0.000 Cl
BRANCH   9  13
ATOM     13  C   UNL     1       6.433   3.996  12.884  0.00  0.00    +0.000 C 
BRANCH  13  14
ATOM     14  C   UNL     1       5.258   3.193  12.310  0.00  0.00    +0.000 C 
BRANCH  14  15
ATOM     15  N   UNL     1       5.708   1.939  11.691  0.00  0.00    +0.000 NA
ATOM     16  H   UNL     1       4.920   1.462  11.256  0.00  0.00    +0.000 HD
ATOM     17  H   UNL     1       6.048   1.307  12.419  0.00  0.00    +0.000 HD
ENDBRANCH  14  15
ENDBRANCH  13  14
ENDBRANCH   9  13
ENDBRANCH   3   7
BRANCH   1  19
ATOM     18  N   UNL     1       2.291   7.003  19.892  0.00  0.00    +0.000 N 
ATOM     19  C   UNL     1       2.319   5.653  20.166  0.00  0.00    +0.000 C 
ATOM     20  O   UNL     1       1.874   5.201  21.221  0.00  0.00    +0.000 OA
ATOM     21  H   UNL     1       2.690   7.306  19.008  0.00  0.00    +0.000 HD
BRANCH  18  22
ATOM     22  C   UNL     1       1.672   7.967  20.790  0.00  0.00    +0.000 C 
BRANCH  22  23
ATOM     23  C   UNL     1       0.756   8.975  20.092  0.00  0.00    +0.000 C 
BRANCH  23  24
ATOM     24  C   UNL     1       1.249   9.451  18.722  0.00  0.00    +0.000 C 
BRANCH  24  25
ATOM     25  N   UNL     1       0.440  10.553  18.201  0.00  0.00    +0.000 NA
ATOM     26  H   UNL     1       1.037  11.302  17.855  0.00  0.00    +0.000 HD
BRANCH  25  27
ATOM     27  C   UNL     1      -0.454  11.092  19.226  0.00  0.00    +0.000 C 
BRANCH  27  28
ATOM     28  C   UNL     1      -0.091  12.543  19.564  0.00  0.00    +0.000 C 
BRANCH  28  29
ATOM     29  C   UNL     1       0.535  13.296  18.385  0.00  0.00    +0.000 C 
BRANCH  29  30
ATOM     30  C   UNL     1       2.053  13.388  18.526  0.00  0.00    +0.000 C 
BRANCH  30  31
ATOM     31  N   UNL     1       2.704  12.577  17.504  0.00  0.00    +0.000 NA
ATOM     32  H   UNL     1       3.699  12.504  17.707  0.00  0.00    +0.000 HD
ATOM     33  H   UNL     1       2.623  13.031  16.598  0.00  0.00    +0.000 HD
ENDBRANCH  30  31
ENDBRANCH  29  30
ENDBRANCH  28  29
ENDBRANCH  27  28
ENDBRANCH  25  27
ENDBRANCH  24  25
ENDBRANCH  23  24
ENDBRANCH  22  23
ENDBRANCH  18  22
ENDBRANCH   1  19
TORSDOF 14
ENDMDL
MODEL 7
REMARK VINA RESULT:      -5.7      2.985      5.026
REMARK  Name = 
REMARK  14 active torsions:
REMARK  status: ('A' for Active; 'I' for Inactive)
REMARK    1  A    between atoms: N_1  and  C_2
REMARK    2  A    between atoms: C_2  and  C_3
REMARK    3  A    between atoms: C_3  and  C_4
REMARK    4  A    between atoms: C_4  and  C_5
REMARK    5  A    between atoms: C_5  and  N_6
REMARK    6  A    between atoms: N_6  and  C_7
REMARK    7  A    between atoms: C_7  and  C_8
REMARK    8  A    between atoms: C_8  and  C_9
REMARK    9  A    between atoms: C_9  and  N_10
REMARK   10  A    between atoms: C_11  and  C_13
REMARK   11  A    between atoms: C_15  and  C_16
REMARK   12  A    between atoms: C_18  and  C_19
REMARK   13  A    between atoms: C_19  and  C_20
REMARK   14  A    between atoms: C_20  and  N_21
REMARK                            x       y       z     vdW  Elec       q    Type
REMARK                         _______ _______ _______ _____ _____    ______ ____
ROOT
ATOM      1  C   UNL     1       2.141   7.510  19.813  0.00  0.00    +0.000 A 
ATOM      2  N   UNL     1       1.382   8.291  20.722  0.00  0.00    +0.000 NA
ATOM      3  C   UNL     1       0.979   9.412  20.138  0.00  0.00    +0.000 A 
ATOM      4  S   UNL     1       1.599   9.665  18.552  0.00  0.00    +0.000 S 
ATOM      5  C   UNL     1       2.282   8.115  18.580  0.00  0.00    +0.000 A 
ATOM      6 CL   UNL     1       3.000   7.524  17.135  0.00  0.00    +0.000 Cl
ENDROOT
BRANCH   3   7
ATOM      7  C   UNL     1      -0.015  10.390  20.739  0.00  0.00    +0.000 A 
ATOM      8  N   UNL     1      -0.734  11.300  19.940  0.00  0.00    +0.000 NA
ATOM      9  C   UNL     1      -1.614  11.964  20.668  0.00  0.00    +0.000 A 
ATOM     10  S   UNL     1      -1.608  11.560  22.345  0.00  0.00    +0.000 S 
ATOM     11  C   UNL     1      -0.367  10.429  22.068  0.00  0.00    +0.000 A 
ATOM     12 CL   UNL     1       0.196   9.499  23.397  0.00  0.00    +0.000 Cl
BRANCH   9  13
ATOM     13  C   UNL     1      -2.569  13.022  20.163  0.00  0.00    +0.000 C 
BRANCH  13  14
ATOM     14  C   UNL     1      -2.921  14.061  21.236  0.00  0.00    +0.000 C 
BRANCH  14  15
ATOM     15  N   UNL     1      -3.755  15.141  20.692  0.00  0.00    +0.000 NA
ATOM     16  H   UNL     1      -3.466  16.037  21.082  0.00  0.00    +0.000 HD
ATOM     17  H   UNL     1      -4.722  15.006  20.995  0.00  0.00    +0.000 HD
ENDBRANCH  14  15
ENDBRANCH  13  14
ENDBRANCH   9  13
ENDBRANCH   3   7
BRANCH   1  19
ATOM     18  N   UNL     1       1.841   5.391  20.921  0.00  0.00    +0.000 N 
ATOM     19  C   UNL     1       2.672   6.182  20.159  0.00  0.00    +0.000 C 
ATOM     20  O   UNL     1       3.777   5.785  19.787  0.00  0.00    +0.000 OA
ATOM     21  H   UNL     1       0.950   5.790  21.204  0.00  0.00    +0.000 HD
BRANCH  18  22
ATOM     22  C   UNL     1       2.178   4.018  21.271  0.00  0.00    +0.000 C 
BRANCH  22  23
ATOM     23  C   UNL     1       1.135   2.986  20.836  0.00  0.00    +0.000 C 
BRANCH  23  24
ATOM     24  C   UNL     1       0.907   2.900  19.324  0.00  0.00    +0.000 C 
BRANCH  24  25
ATOM     25  N   UNL     1       1.559   1.729  18.737  0.00  0.00    +0.000 NA
ATOM     26  H   UNL     1       1.866   1.089  19.466  0.00  0.00    +0.000 HD
BRANCH  25  27
ATOM     27  C   UNL     1       2.711   2.110  17.920  0.00  0.00    +0.000 C 
BRANCH  27  28
ATOM     28  C   UNL     1       2.570   3.549  17.409  0.00  0.00    +0.000 C 
BRANCH  28  29
ATOM     29  C   UNL     1       3.870   4.105  16.818  0.00  0.00    +0.000 C 
BRANCH  29  30
ATOM     30  C   UNL     1       5.083   3.306  17.290  0.00  0.00    +0.000 C 
BRANCH  30  31
ATOM     31  N   UNL     1       5.678   3.937  18.461  0.00  0.00    +0.000 NA
ATOM     32  H   UNL     1       5.407   4.918  18.498  0.00  0.00    +0.000 HD
ATOM     33  H   UNL     1       6.692   3.916  18.389  0.00  0.00    +0.000 HD
ENDBRANCH  30  31
ENDBRANCH  29  30
ENDBRANCH  28  29
ENDBRANCH  27  28
ENDBRANCH  25  27
ENDBRANCH  24  25
ENDBRANCH  23  24
ENDBRANCH  22  23
ENDBRANCH  18  22
ENDBRANCH   1  19
TORSDOF 14
ENDMDL
MODEL 8
REMARK VINA RESULT:      -5.6      2.813      4.862
REMARK  Name = 
REMARK  14 active torsions:
REMARK  status: ('A' for Active; 'I' for Inactive)
REMARK    1  A    between atoms: N_1  and  C_2
REMARK    2  A    between atoms: C_2  and  C_3
REMARK    3  A    between atoms: C_3  and  C_4
REMARK    4  A    between atoms: C_4  and  C_5
REMARK    5  A    between atoms: C_5  and  N_6
REMARK    6  A    between atoms: N_6  and  C_7
REMARK    7  A    between atoms: C_7  and  C_8
REMARK    8  A    between atoms: C_8  and  C_9
REMARK    9  A    between atoms: C_9  and  N_10
REMARK   10  A    between atoms: C_11  and  C_13
REMARK   11  A    between atoms: C_15  and  C_16
REMARK   12  A    between atoms: C_18  and  C_19
REMARK   13  A    between atoms: C_19  and  C_20
REMARK   14  A    between atoms: C_20  and  N_21
REMARK                            x       y       z     vdW  Elec       q    Type
REMARK                         _______ _______ _______ _____ _____    ______ ____
ROOT
ATOM      1  C   UNL     1       1.854   7.612  19.886  0.00  0.00    +0.000 A 
ATOM      2  N   UNL     1       1.121   8.328  20.865  0.00  0.00    +0.000 NA
ATOM      3  C   UNL     1       0.813   9.538  20.415  0.00  0.00    +0.000 A 
ATOM      4  S   UNL     1       1.502   9.937  18.888  0.00  0.00    +0.000 S 
ATOM      5  C   UNL     1       2.077   8.351  18.741  0.00  0.00    +0.000 A 
ATOM      6 CL   UNL     1       2.801   7.891  17.252  0.00  0.00    +0.000 Cl
ENDROOT
BRANCH   3   7
ATOM      7  C   UNL     1      -0.131  10.504  21.107  0.00  0.00    +0.000 A 
ATOM      8  N   UNL     1      -0.845  11.484  20.391  0.00  0.00    +0.000 NA
ATOM      9  C   UNL     1      -1.682  12.125  21.187  0.00  0.00    +0.000 A 
ATOM     10  S   UNL     1      -1.638  11.614  22.834  0.00  0.00    +0.000 S 
ATOM     11  C   UNL     1      -0.442  10.468  22.447  0.00  0.00    +0.000 A 
ATOM     12 CL   UNL     1       0.131   9.437  23.696  0.00  0.00    +0.000 Cl
BRANCH   9  13
ATOM     13  C   UNL     1      -2.618  13.240  20.781  0.00  0.00    +0.000 C 
BRANCH  13  14
ATOM     14  C   UNL     1      -1.957  14.623  20.851  0.00  0.00    +0.000 C 
BRANCH  14  15
ATOM     15  N   UNL     1      -0.502  14.540  20.671  0.00  0.00    +0.000 NA
ATOM     16  H   UNL     1      -0.040  15.267  21.215  0.00  0.00    +0.000 HD
ATOM     17  H   UNL     1      -0.271  14.734  19.694  0.00  0.00    +0.000 HD
ENDBRANCH  14  15
ENDBRANCH  13  14
ENDBRANCH   9  13
ENDBRANCH   3   7
BRANCH   1  19
ATOM     18  N   UNL     1       1.330   5.371  20.601  0.00  0.00    +0.000 N 
ATOM     19  C   UNL     1       2.283   6.217  20.077  0.00  0.00    +0.000 C 
ATOM     20  O   UNL     1       3.408   5.816  19.780  0.00  0.00    +0.000 OA
ATOM     21  H   UNL     1       0.429   5.775  20.837  0.00  0.00    +0.000 HD
BRANCH  18  22
ATOM     22  C   UNL     1       1.564   3.943  20.768  0.00  0.00    +0.000 C 
BRANCH  22  23
ATOM     23  C   UNL     1       1.002   3.080  19.636  0.00  0.00    +0.000 C 
BRANCH  23  24
ATOM     24  C   UNL     1       1.841   1.846  19.290  0.00  0.00    +0.000 C 
BRANCH  24  25
ATOM     25  N   UNL     1       2.480   1.969  17.980  0.00  0.00    +0.000 NA
ATOM     26  H   UNL     1       2.644   1.049  17.575  0.00  0.00    +0.000 HD
BRANCH  25  27
ATOM     27  C   UNL     1       3.754   2.682  18.070  0.00  0.00    +0.000 C 
BRANCH  27  28
ATOM     28  C   UNL     1       3.871   3.740  16.966  0.00  0.00    +0.000 C 
BRANCH  28  29
ATOM     29  C   UNL     1       5.228   4.454  16.961  0.00  0.00    +0.000 C 
BRANCH  29  30
ATOM     30  C   UNL     1       6.075   4.030  15.763  0.00  0.00    +0.000 C 
BRANCH  30  31
ATOM     31  N   UNL     1       7.385   4.664  15.822  0.00  0.00    +0.000 NA
ATOM     32  H   UNL     1       7.929   4.261  16.583  0.00  0.00    +0.000 HD
ATOM     33  H   UNL     1       7.282   5.654  16.030  0.00  0.00    +0.000 HD
ENDBRANCH  30  31
ENDBRANCH  29  30
ENDBRANCH  28  29
ENDBRANCH  27  28
ENDBRANCH  25  27
ENDBRANCH  24  25
ENDBRANCH  23  24
ENDBRANCH  22  23
ENDBRANCH  18  22
ENDBRANCH   1  19
TORSDOF 14
ENDMDL
MODEL 9
REMARK VINA RESULT:      -5.6      2.807      4.104
REMARK  Name = 
REMARK  14 active torsions:
REMARK  status: ('A' for Active; 'I' for Inactive)
REMARK    1  A    between atoms: N_1  and  C_2
REMARK    2  A    between atoms: C_2  and  C_3
REMARK    3  A    between atoms: C_3  and  C_4
REMARK    4  A    between atoms: C_4  and  C_5
REMARK    5  A    between atoms: C_5  and  N_6
REMARK    6  A    between atoms: N_6  and  C_7
REMARK    7  A    between atoms: C_7  and  C_8
REMARK    8  A    between atoms: C_8  and  C_9
REMARK    9  A    between atoms: C_9  and  N_10
REMARK   10  A    between atoms: C_11  and  C_13
REMARK   11  A    between atoms: C_15  and  C_16
REMARK   12  A    between atoms: C_18  and  C_19
REMARK   13  A    between atoms: C_19  and  C_20
REMARK   14  A    between atoms: C_20  and  N_21
REMARK                            x       y       z     vdW  Elec       q    Type
REMARK                         _______ _______ _______ _____ _____    ______ ____
ROOT
ATOM      1  C   UNL     1       2.390   7.258  19.205  0.00  0.00    +0.000 A 
ATOM      2  N   UNL     1       1.500   8.083  19.938  0.00  0.00    +0.000 NA
ATOM      3  C   UNL     1       1.304   9.230  19.298  0.00  0.00    +0.000 A 
ATOM      4  S   UNL     1       2.273   9.447  17.892  0.00  0.00    +0.000 S 
ATOM      5  C   UNL     1       2.836   7.857  18.044  0.00  0.00    +0.000 A 
ATOM      6 CL   UNL     1       3.817   7.225  16.782  0.00  0.00    +0.000 Cl
ENDROOT
BRANCH   3   7
ATOM      7  C   UNL     1       0.264  10.267  19.682  0.00  0.00    +0.000 A 
ATOM      8  N   UNL     1       0.409  11.071  20.829  0.00  0.00    +0.000 NA
ATOM      9  C   UNL     1      -0.557  11.970  20.893  0.00  0.00    +0.000 A 
ATOM     10  S   UNL     1      -1.703  11.882  19.607  0.00  0.00    +0.000 S 
ATOM     11  C   UNL     1      -0.845  10.578  18.931  0.00  0.00    +0.000 A 
ATOM     12 CL   UNL     1      -1.412   9.910  17.453  0.00  0.00    +0.000 Cl
BRANCH   9  13
ATOM     13  C   UNL     1      -0.735  13.010  21.975  0.00  0.00    +0.000 C 
BRANCH  13  14
ATOM     14  C   UNL     1      -1.484  12.468  23.200  0.00  0.00    +0.000 C 
BRANCH  14  15
ATOM     15  N   UNL     1      -1.415  11.003  23.274  0.00  0.00    +0.000 NA
ATOM     16  H   UNL     1      -1.646  10.688  24.214  0.00  0.00    +0.000 HD
ATOM     17  H   UNL     1      -0.452  10.701  23.109  0.00  0.00    +0.000 HD
ENDBRANCH  14  15
ENDBRANCH  13  14
ENDBRANCH   9  13
ENDBRANCH   3   7
BRANCH   1  19
ATOM     18  N   UNL     1       1.763   4.949  19.488  0.00  0.00    +0.000 N 
ATOM     19  C   UNL     1       2.750   5.899  19.637  0.00  0.00    +0.000 C 
ATOM     20  O   UNL     1       3.858   5.611  20.090  0.00  0.00    +0.000 OA
ATOM     21  H   UNL     1       0.868   5.261  19.122  0.00  0.00    +0.000 HD
BRANCH  18  22
ATOM     22  C   UNL     1       1.988   3.540  19.782  0.00  0.00    +0.000 C 
BRANCH  22  23
ATOM     23  C   UNL     1       2.076   2.648  18.542  0.00  0.00    +0.000 C 
BRANCH  23  24
ATOM     24  C   UNL     1       3.226   2.984  17.587  0.00  0.00    +0.000 C 
BRANCH  24  25
ATOM     25  N   UNL     1       4.481   3.220  18.302  0.00  0.00    +0.000 NA
ATOM     26  H   UNL     1       4.300   3.643  19.210  0.00  0.00    +0.000 HD
BRANCH  25  27
ATOM     27  C   UNL     1       5.376   4.090  17.540  0.00  0.00    +0.000 C 
BRANCH  27  28
ATOM     28  C   UNL     1       5.068   4.017  16.039  0.00  0.00    +0.000 C 
BRANCH  28  29
ATOM     29  C   UNL     1       6.271   3.573  15.201  0.00  0.00    +0.000 C 
BRANCH  29  30
ATOM     30  C   UNL     1       6.517   4.525  14.032  0.00  0.00    +0.000 C 
BRANCH  30  31
ATOM     31  N   UNL     1       6.492   3.793  12.772  0.00  0.00    +0.000 NA
ATOM     32  H   UNL     1       7.433   3.482  12.537  0.00  0.00    +0.000 HD
ATOM     33  H   UNL     1       6.192   4.408  12.020  0.00  0.00    +0.000 HD
ENDBRANCH  30  31
ENDBRANCH  29  30
ENDBRANCH  28  29
ENDBRANCH  27  28
ENDBRANCH  25  27
ENDBRANCH  24  25
ENDBRANCH  23  24
ENDBRANCH  22  23
ENDBRANCH  18  22
ENDBRANCH   1  19
TORSDOF 14
ENDMDL
