MODEL 1
REMARK VINA RESULT:      -7.7      0.000      0.000
REMARK  Name = 
REMARK  8 active torsions:
REMARK  status: ('A' for Active; 'I' for Inactive)
REMARK    1  A    between atoms: C_2  and  C_3
REMARK    2  A    between atoms: C_2  and  C_26
REMARK    3  A    between atoms: C_3  and  N_4
REMARK    4  A    between atoms: C_7  and  N_8
REMARK    5  A    between atoms: C_21  and  C_22
REMARK    6  A    between atoms: N_30  and  C_31
REMARK    7  A    between atoms: C_31  and  C_32
REMARK    8  A    between atoms: C_32  and  O_33
REMARK                            x       y       z     vdW  Elec       q    Type
REMARK                         _______ _______ _______ _____ _____    ______ ____
ROOT
ATOM      1  N   UNL     1       0.829   9.289  20.103  0.00  0.00    +0.000 N 
ATOM      2  C   UNL     1       1.630   8.303  19.534  0.00  0.00    +0.000 A 
ATOM      3  N   UNL     1       1.711   7.125  20.089  0.00  0.00    +0.000 NA
ATOM      4  C   UNL     1       2.476   6.130  19.525  0.00  0.00    +0.000 A 
ATOM      5  C   UNL     1       3.166   6.359  18.398  0.00  0.00    +0.000 A 
ATOM      6  C   UNL     1       3.107   7.663  17.751  0.00  0.00    +0.000 A 
ATOM      7  O   UNL     1       3.706   7.836  16.690  0.00  0.00    +0.000 OA
ATOM      8  N   UNL     1       2.349   8.614  18.393  0.00  0.00    +0.000 N 
ATOM      9  C   UNL     1       2.245   9.900  17.729  0.00  0.00    +0.000 C 
ATOM     10  C   UNL     1       1.786  11.006  18.652  0.00  0.00    +0.000 C 
ATOM     11  C   UNL     1       0.529  10.563  19.390  0.00  0.00    +0.000 C 
ENDROOT
BRANCH   4  12
ATOM     12  N   UNL     1       2.535   4.862  20.094  0.00  0.00    +0.000 N 
ATOM     13  C   UNL     1       2.246   4.496  21.496  0.00  0.00    +0.000 C 
ATOM     14  C   UNL     1       2.273   2.951  21.423  0.00  0.00    +0.000 C 
ATOM     15  C   UNL     1       3.364   2.704  20.399  0.00  0.00    +0.000 C 
ATOM     16  C   UNL     1       2.667   3.583  19.362  0.00  0.00    +0.000 C 
ATOM     17  C   UNL     1       1.283   2.906  19.347  0.00  0.00    +0.000 C 
ATOM     18  O   UNL     1       1.071   2.500  20.736  0.00  0.00    +0.000 OA
ENDBRANCH   4  12
BRANCH  11  19
ATOM     19  C   UNL     1      -0.723  10.519  18.474  0.00  0.00    +0.000 C 
ATOM     20  F   UNL     1      -0.698   9.477  17.613  0.00  0.00    +0.000 F 
ATOM     21  F   UNL     1      -1.845  10.380  19.224  0.00  0.00    +0.000 F 
ATOM     22  F   UNL     1      -0.882  11.643  17.742  0.00  0.00    +0.000 F 
ENDBRANCH  11  19
BRANCH   1  23
ATOM     23  C   UNL     1      -0.063   8.975  21.236  0.00  0.00    +0.000 C 
BRANCH  23  25
ATOM     24  O   UNL     1       1.078   9.756  23.220  0.00  0.00    +0.000 OA
ATOM     25  C   UNL     1       0.163   9.922  22.408  0.00  0.00    +0.000 C 
BRANCH  25  26
ATOM     26  C   UNL     1      -0.686  11.126  22.545  0.00  0.00    +0.000 A 
ATOM     27  C   UNL     1      -0.261  12.332  21.991  0.00  0.00    +0.000 A 
ATOM     28  C   UNL     1      -1.037  13.476  22.166  0.00  0.00    +0.000 A 
ATOM     29  C   UNL     1      -2.199  13.407  22.928  0.00  0.00    +0.000 A 
ATOM     30  N   UNL     1      -2.819  14.613  23.262  0.00  0.00    +0.000 N 
ATOM     31  N   UNL     1      -2.631  12.239  23.451  0.00  0.00    +0.000 NA
ATOM     32  C   UNL     1      -1.875  11.127  23.252  0.00  0.00    +0.000 A 
ATOM     33  H   UNL     1      -3.076  15.160  22.446  0.00  0.00    +0.000 HD
BRANCH  30  34
ATOM     34  C   UNL     1      -3.835  14.571  24.317  0.00  0.00    +0.000 C 
BRANCH  34  35
ATOM     35  C   UNL     1      -5.035  15.431  23.893  0.00  0.00    +0.000 C 
BRANCH  35  36
ATOM     36  O   UNL     1      -6.246  14.811  24.338  0.00  0.00    +0.000 OA
ATOM     37  H   UNL     1      -6.607  14.395  23.529  0.00  0.00    +0.000 HD
ENDBRANCH  35  36
ENDBRANCH  34  35
ENDBRANCH  30  34
ENDBRANCH  25  26
ENDBRANCH  23  25
ENDBRANCH   1  23
TORSDOF 8
ENDMDL
MODEL 2
REMARK VINA RESULT:      -7.6      4.147      6.836
REMARK  Name = 
REMARK  8 active torsions:
REMARK  status: ('A' for Active; 'I' for Inactive)
REMARK    1  A    between atoms: C_2  and  C_3
REMARK    2  A    between atoms: C_2  and  C_26
REMARK    3  A    between atoms: C_3  and  N_4
REMARK    4  A    between atoms: C_7  and  N_8
REMARK    5  A    between atoms: C_21  and  C_22
REMARK    6  A    between atoms: N_30  and  C_31
REMARK    7  A    between atoms: C_31  and  C_32
REMARK    8  A    between atoms: C_32  and  O_33
REMARK                            x       y       z     vdW  Elec       q    Type
REMARK                         _______ _______ _______ _____ _____    ______ ____
ROOT
ATOM      1  N   UNL     1      -0.364  11.693  20.090  0.00  0.00    +0.000 N 
ATOM      2  C   UNL     1      -1.473  11.432  19.291  0.00  0.00    +0.000 A 
ATOM      3  N   UNL     1      -2.615  12.008  19.549  0.00  0.00    +0.000 NA
ATOM      4  C   UNL     1      -3.714  11.782  18.753  0.00  0.00    +0.000 A 
ATOM      5  C   UNL     1      -3.635  10.952  17.703  0.00  0.00    +0.000 A 
ATOM      6  C   UNL     1      -2.381  10.284  17.386  0.00  0.00    +0.000 A 
ATOM      7  O   UNL     1      -2.316   9.567  16.388  0.00  0.00    +0.000 OA
ATOM      8  N   UNL     1      -1.338  10.534  18.246  0.00  0.00    +0.000 N 
ATOM      9  C   UNL     1      -0.071   9.912  17.909  0.00  0.00    +0.000 C 
ATOM     10  C   UNL     1       0.890   9.857  19.075  0.00  0.00    +0.000 C 
ATOM     11  C   UNL     1       1.004  11.240  19.705  0.00  0.00    +0.000 C 
ENDROOT
BRANCH   4  12
ATOM     12  N   UNL     1      -4.923  12.424  19.003  0.00  0.00    +0.000 N 
ATOM     13  C   UNL     1      -6.079  12.544  18.090  0.00  0.00    +0.000 C 
ATOM     14  C   UNL     1      -7.150  13.152  19.026  0.00  0.00    +0.000 C 
ATOM     15  C   UNL     1      -6.315  14.061  19.909  0.00  0.00    +0.000 C 
ATOM     16  C   UNL     1      -5.396  12.911  20.318  0.00  0.00    +0.000 C 
ATOM     17  C   UNL     1      -6.452  11.916  20.836  0.00  0.00    +0.000 C 
ATOM     18  O   UNL     1      -7.597  12.120  19.950  0.00  0.00    +0.000 OA
ENDBRANCH   4  12
BRANCH  11  19
ATOM     19  C   UNL     1       1.797  12.240  18.823  0.00  0.00    +0.000 C 
ATOM     20  F   UNL     1       0.989  13.058  18.113  0.00  0.00    +0.000 F 
ATOM     21  F   UNL     1       2.573  13.036  19.602  0.00  0.00    +0.000 F 
ATOM     22  F   UNL     1       2.625  11.630  17.947  0.00  0.00    +0.000 F 
ENDBRANCH  11  19
BRANCH   1  23
ATOM     23  C   UNL     1      -0.412  12.740  21.129  0.00  0.00    +0.000 C 
BRANCH  23  25
ATOM     24  O   UNL     1      -0.512  11.317  23.081  0.00  0.00    +0.000 OA
ATOM     25  C   UNL     1      -1.031  12.222  22.421  0.00  0.00    +0.000 C 
BRANCH  25  26
ATOM     26  C   UNL     1      -2.250  12.868  22.954  0.00  0.00    +0.000 A 
ATOM     27  C   UNL     1      -3.134  12.128  23.737  0.00  0.00    +0.000 A 
ATOM     28  C   UNL     1      -4.307  12.725  24.193  0.00  0.00    +0.000 A 
ATOM     29  C   UNL     1      -4.600  14.033  23.824  0.00  0.00    +0.000 A 
ATOM     30  N   UNL     1      -5.880  14.511  24.116  0.00  0.00    +0.000 N 
ATOM     31  N   UNL     1      -3.741  14.767  23.084  0.00  0.00    +0.000 NA
ATOM     32  C   UNL     1      -2.590  14.179  22.665  0.00  0.00    +0.000 A 
ATOM     33  H   UNL     1      -6.099  14.465  25.106  0.00  0.00    +0.000 HD
BRANCH  30  34
ATOM     34  C   UNL     1      -6.299  15.747  23.451  0.00  0.00    +0.000 C 
BRANCH  34  35
ATOM     35  C   UNL     1      -5.878  16.947  24.313  0.00  0.00    +0.000 C 
BRANCH  35  36
ATOM     36  O   UNL     1      -4.802  17.641  23.672  0.00  0.00    +0.000 OA
ATOM     37  H   UNL     1      -4.074  17.597  24.324  0.00  0.00    +0.000 HD
ENDBRANCH  35  36
ENDBRANCH  34  35
ENDBRANCH  30  34
ENDBRANCH  25  26
ENDBRANCH  23  25
ENDBRANCH   1  23
TORSDOF 8
ENDMDL
MODEL 3
REMARK VINA RESULT:      -7.5      1.227      1.555
REMARK  Name = 
REMARK  8 active torsions:
REMARK  status: ('A' for Active; 'I' for Inactive)
REMARK    1  A    between atoms: C_2  and  C_3
REMARK    2  A    between atoms: C_2  and  C_26
REMARK    3  A    between atoms: C_3  and  N_4
REMARK    4  A    between atoms: C_7  and  N_8
REMARK    5  A    between atoms: C_21  and  C_22
REMARK    6  A    between atoms: N_30  and  C_31
REMARK    7  A    between atoms: C_31  and  C_32
REMARK    8  A    between atoms: C_32  and  O_33
REMARK                            x       y       z     vdW  Elec       q    Type
REMARK                         _______ _______ _______ _____ _____    ______ ____
ROOT
ATOM      1  N   UNL     1       0.799   9.303  20.087  0.00  0.00    +0.000 N 
ATOM      2  C   UNL     1       1.601   8.325  19.506  0.00  0.00    +0.000 A 
ATOM      3  N   UNL     1       1.687   7.142  20.050  0.00  0.00    +0.000 NA
ATOM      4  C   UNL     1       2.454   6.155  19.473  0.00  0.00    +0.000 A 
ATOM      5  C   UNL     1       3.139   6.397  18.346  0.00  0.00    +0.000 A 
ATOM      6  C   UNL     1       3.074   7.707  17.712  0.00  0.00    +0.000 A 
ATOM      7  O   UNL     1       3.669   7.892  16.651  0.00  0.00    +0.000 OA
ATOM      8  N   UNL     1       2.315   8.649  18.366  0.00  0.00    +0.000 N 
ATOM      9  C   UNL     1       2.205   9.941  17.714  0.00  0.00    +0.000 C 
ATOM     10  C   UNL     1       1.746  11.037  18.649  0.00  0.00    +0.000 C 
ATOM     11  C   UNL     1       0.494  10.583  19.388  0.00  0.00    +0.000 C 
ENDROOT
BRANCH   4  12
ATOM     12  N   UNL     1       2.519   4.882  20.030  0.00  0.00    +0.000 N 
ATOM     13  C   UNL     1       2.241   4.502  21.431  0.00  0.00    +0.000 C 
ATOM     14  C   UNL     1       2.268   2.958  21.343  0.00  0.00    +0.000 C 
ATOM     15  C   UNL     1       3.352   2.721  20.308  0.00  0.00    +0.000 C 
ATOM     16  C   UNL     1       2.645   3.610  19.285  0.00  0.00    +0.000 C 
ATOM     17  C   UNL     1       1.262   2.931  19.275  0.00  0.00    +0.000 C 
ATOM     18  O   UNL     1       1.062   2.512  20.661  0.00  0.00    +0.000 OA
ENDBRANCH   4  12
BRANCH  11  19
ATOM     19  C   UNL     1      -0.762  10.544  18.476  0.00  0.00    +0.000 C 
ATOM     20  F   UNL     1      -1.897  10.297  19.168  0.00  0.00    +0.000 F 
ATOM     21  F   UNL     1      -0.931  11.742  17.862  0.00  0.00    +0.000 F 
ATOM     22  F   UNL     1      -0.676   9.616  17.498  0.00  0.00    +0.000 F 
ENDBRANCH  11  19
BRANCH   1  23
ATOM     23  C   UNL     1      -0.088   8.975  21.220  0.00  0.00    +0.000 C 
BRANCH  23  25
ATOM     24  O   UNL     1       1.160   9.636  23.184  0.00  0.00    +0.000 OA
ATOM     25  C   UNL     1       0.203   9.850  22.433  0.00  0.00    +0.000 C 
BRANCH  25  26
ATOM     26  C   UNL     1      -0.633  11.044  22.687  0.00  0.00    +0.000 A 
ATOM     27  C   UNL     1      -1.853  10.901  23.345  0.00  0.00    +0.000 A 
ATOM     28  C   UNL     1      -2.662  12.019  23.535  0.00  0.00    +0.000 A 
ATOM     29  C   UNL     1      -2.262  13.250  23.028  0.00  0.00    +0.000 A 
ATOM     30  N   UNL     1      -3.199  14.286  23.045  0.00  0.00    +0.000 N 
ATOM     31  N   UNL     1      -1.072  13.405  22.408  0.00  0.00    +0.000 NA
ATOM     32  C   UNL     1      -0.283  12.310  22.250  0.00  0.00    +0.000 A 
ATOM     33  H   UNL     1      -3.541  14.489  23.979  0.00  0.00    +0.000 HD
BRANCH  30  34
ATOM     34  C   UNL     1      -2.903  15.467  22.230  0.00  0.00    +0.000 C 
BRANCH  34  35
ATOM     35  C   UNL     1      -3.575  15.311  20.858  0.00  0.00    +0.000 C 
BRANCH  35  36
ATOM     36  O   UNL     1      -2.785  14.444  20.036  0.00  0.00    +0.000 OA
ATOM     37  H   UNL     1      -3.436  13.815  19.666  0.00  0.00    +0.000 HD
ENDBRANCH  35  36
ENDBRANCH  34  35
ENDBRANCH  30  34
ENDBRANCH  25  26
ENDBRANCH  23  25
ENDBRANCH   1  23
TORSDOF 8
ENDMDL
MODEL 4
REMARK VINA RESULT:      -7.5      0.864      1.152
REMARK  Name = 
REMARK  8 active torsions:
REMARK  status: ('A' for Active; 'I' for Inactive)
REMARK    1  A    between atoms: C_2  and  C_3
REMARK    2  A    between atoms: C_2  and  C_26
REMARK    3  A    between atoms: C_3  and  N_4
REMARK    4  A    between atoms: C_7  and  N_8
REMARK    5  A    between atoms: C_21  and  C_22
REMARK    6  A    between atoms: N_30  and  C_31
REMARK    7  A    between atoms: C_31  and  C_32
REMARK    8  A    between atoms: C_32  and  O_33
REMARK                            x       y       z     vdW  Elec       q    Type
REMARK                         _______ _______ _______ _____ _____    ______ ____
ROOT
ATOM      1  N   UNL     1       0.698   9.368  20.266  0.00  0.00    +0.000 N 
ATOM      2  C   UNL     1       1.441   8.356  19.665  0.00  0.00    +0.000 A 
ATOM      3  N   UNL     1       1.436   7.154  20.171  0.00  0.00    +0.000 NA
ATOM      4  C   UNL     1       2.142   6.135  19.573  0.00  0.00    +0.000 A 
ATOM      5  C   UNL     1       2.862   6.364  18.465  0.00  0.00    +0.000 A 
ATOM      6  C   UNL     1       2.898   7.695  17.874  0.00  0.00    +0.000 A 
ATOM      7  O   UNL     1       3.523   7.872  16.829  0.00  0.00    +0.000 OA
ATOM      8  N   UNL     1       2.195   8.666  18.547  0.00  0.00    +0.000 N 
ATOM      9  C   UNL     1       2.186   9.983  17.937  0.00  0.00    +0.000 C 
ATOM     10  C   UNL     1       1.787  11.078  18.900  0.00  0.00    +0.000 C 
ATOM     11  C   UNL     1       0.493  10.689  19.605  0.00  0.00    +0.000 C 
ENDROOT
BRANCH   4  12
ATOM     12  N   UNL     1       2.110   4.843  20.089  0.00  0.00    +0.000 N 
ATOM     13  C   UNL     1       0.920   4.083  20.526  0.00  0.00    +0.000 C 
ATOM     14  C   UNL     1       1.522   2.679  20.769  0.00  0.00    +0.000 C 
ATOM     15  C   UNL     1       2.900   3.017  21.306  0.00  0.00    +0.000 C 
ATOM     16  C   UNL     1       3.227   3.873  20.083  0.00  0.00    +0.000 C 
ATOM     17  C   UNL     1       2.950   2.842  18.972  0.00  0.00    +0.000 C 
ATOM     18  O   UNL     1       1.815   2.072  19.478  0.00  0.00    +0.000 OA
ENDBRANCH   4  12
BRANCH  11  19
ATOM     19  C   UNL     1      -0.746  10.765  18.673  0.00  0.00    +0.000 C 
ATOM     20  F   UNL     1      -1.906  10.852  19.361  0.00  0.00    +0.000 F 
ATOM     21  F   UNL     1      -0.672  11.870  17.888  0.00  0.00    +0.000 F 
ATOM     22  F   UNL     1      -0.848   9.706  17.842  0.00  0.00    +0.000 F 
ENDBRANCH  11  19
BRANCH   1  23
ATOM     23  C   UNL     1      -0.229   9.067  21.374  0.00  0.00    +0.000 C 
BRANCH  23  25
ATOM     24  O   UNL     1       0.732   9.810  23.466  0.00  0.00    +0.000 OA
ATOM     25  C   UNL     1      -0.049  10.036  22.536  0.00  0.00    +0.000 C 
BRANCH  25  26
ATOM     26  C   UNL     1      -0.768  11.328  22.524  0.00  0.00    +0.000 A 
ATOM     27  C   UNL     1      -0.155  12.450  21.968  0.00  0.00    +0.000 A 
ATOM     28  C   UNL     1      -0.814  13.678  22.005  0.00  0.00    +0.000 A 
ATOM     29  C   UNL     1      -2.050  13.775  22.636  0.00  0.00    +0.000 A 
ATOM     30  N   UNL     1      -2.564  15.056  22.844  0.00  0.00    +0.000 N 
ATOM     31  N   UNL     1      -2.662  12.690  23.158  0.00  0.00    +0.000 NA
ATOM     32  C   UNL     1      -2.018  11.495  23.094  0.00  0.00    +0.000 A 
ATOM     33  H   UNL     1      -2.671  15.581  21.981  0.00  0.00    +0.000 HD
BRANCH  30  34
ATOM     34  C   UNL     1      -3.684  15.181  23.781  0.00  0.00    +0.000 C 
BRANCH  34  35
ATOM     35  C   UNL     1      -3.131  15.331  25.206  0.00  0.00    +0.000 C 
BRANCH  35  36
ATOM     36  O   UNL     1      -3.441  14.156  25.963  0.00  0.00    +0.000 OA
ATOM     37  H   UNL     1      -2.597  13.662  25.985  0.00  0.00    +0.000 HD
ENDBRANCH  35  36
ENDBRANCH  34  35
ENDBRANCH  30  34
ENDBRANCH  25  26
ENDBRANCH  23  25
ENDBRANCH   1  23
TORSDOF 8
ENDMDL
MODEL 5
REMARK VINA RESULT:      -7.3      5.490      9.572
REMARK  Name = 
REMARK  8 active torsions:
REMARK  status: ('A' for Active; 'I' for Inactive)
REMARK    1  A    between atoms: C_2  and  C_3
REMARK    2  A    between atoms: C_2  and  C_26
REMARK    3  A    between atoms: C_3  and  N_4
REMARK    4  A    between atoms: C_7  and  N_8
REMARK    5  A    between atoms: C_21  and  C_22
REMARK    6  A    between atoms: N_30  and  C_31
REMARK    7  A    between atoms: C_31  and  C_32
REMARK    8  A    between atoms: C_32  and  O_33
REMARK                            x       y       z     vdW  Elec       q    Type
REMARK                         _______ _______ _______ _____ _____    ______ ____
ROOT
ATOM      1  N   UNL     1       5.957   6.397  17.280  0.00  0.00    +0.000 N 
ATOM      2  C   UNL     1       4.634   6.250  17.684  0.00  0.00    +0.000 A 
ATOM      3  N   UNL     1       3.923   7.300  17.991  0.00  0.00    +0.000 NA
ATOM      4  C   UNL     1       2.605   7.175  18.366  0.00  0.00    +0.000 A 
ATOM      5  C   UNL     1       2.030   5.966  18.437  0.00  0.00    +0.000 A 
ATOM      6  C   UNL     1       2.791   4.769  18.110  0.00  0.00    +0.000 A 
ATOM      7  O   UNL     1       2.230   3.674  18.132  0.00  0.00    +0.000 OA
ATOM      8  N   UNL     1       4.109   4.972  17.777  0.00  0.00    +0.000 N 
ATOM      9  C   UNL     1       4.861   3.789  17.401  0.00  0.00    +0.000 C 
ATOM     10  C   UNL     1       6.358   3.993  17.469  0.00  0.00    +0.000 C 
ATOM     11  C   UNL     1       6.733   5.259  16.709  0.00  0.00    +0.000 C 
ENDROOT
BRANCH   4  12
ATOM     12  N   UNL     1       1.834   8.296  18.657  0.00  0.00    +0.000 N 
ATOM     13  C   UNL     1       1.493   8.825  19.994  0.00  0.00    +0.000 C 
ATOM     14  C   UNL     1       0.827  10.173  19.633  0.00  0.00    +0.000 C 
ATOM     15  C   UNL     1       0.107   9.831  18.342  0.00  0.00    +0.000 C 
ATOM     16  C   UNL     1       1.395   9.328  17.692  0.00  0.00    +0.000 C 
ATOM     17  C   UNL     1       2.283  10.570  17.895  0.00  0.00    +0.000 C 
ATOM     18  O   UNL     1       1.863  11.097  19.193  0.00  0.00    +0.000 OA
ENDBRANCH   4  12
BRANCH  11  19
ATOM     19  C   UNL     1       6.612   5.095  15.170  0.00  0.00    +0.000 C 
ATOM     20  F   UNL     1       6.505   3.801  14.795  0.00  0.00    +0.000 F 
ATOM     21  F   UNL     1       5.499   5.727  14.720  0.00  0.00    +0.000 F 
ATOM     22  F   UNL     1       7.658   5.624  14.499  0.00  0.00    +0.000 F 
ENDBRANCH  11  19
BRANCH   1  23
ATOM     23  C   UNL     1       6.526   7.735  17.032  0.00  0.00    +0.000 C 
BRANCH  23  25
ATOM     24  O   UNL     1       8.264   7.163  18.614  0.00  0.00    +0.000 OA
ATOM     25  C   UNL     1       7.669   8.047  17.990  0.00  0.00    +0.000 C 
BRANCH  25  26
ATOM     26  C   UNL     1       8.142   9.442  18.128  0.00  0.00    +0.000 A 
ATOM     27  C   UNL     1       7.477  10.464  17.452  0.00  0.00    +0.000 A 
ATOM     28  C   UNL     1       7.958  11.768  17.542  0.00  0.00    +0.000 A 
ATOM     29  C   UNL     1       9.118  12.024  18.266  0.00  0.00    +0.000 A 
ATOM     30  N   UNL     1       9.682  13.296  18.145  0.00  0.00    +0.000 N 
ATOM     31  N   UNL     1       9.757  11.046  18.943  0.00  0.00    +0.000 NA
ATOM     32  C   UNL     1       9.264   9.782  18.865  0.00  0.00    +0.000 A 
ATOM     33  H   UNL     1       9.040  14.036  18.411  0.00  0.00    +0.000 HD
BRANCH  30  34
ATOM     34  C   UNL     1      11.053  13.467  18.632  0.00  0.00    +0.000 C 
BRANCH  34  35
ATOM     35  C   UNL     1      12.033  13.158  17.491  0.00  0.00    +0.000 C 
BRANCH  35  36
ATOM     36  O   UNL     1      12.322  11.756  17.477  0.00  0.00    +0.000 OA
ATOM     37  H   UNL     1      13.020  11.667  16.798  0.00  0.00    +0.000 HD
ENDBRANCH  35  36
ENDBRANCH  34  35
ENDBRANCH  30  34
ENDBRANCH  25  26
ENDBRANCH  23  25
ENDBRANCH   1  23
TORSDOF 8
ENDMDL
MODEL 6
REMARK VINA RESULT:      -7.3      5.377      9.243
REMARK  Name = 
REMARK  8 active torsions:
REMARK  status: ('A' for Active; 'I' for Inactive)
REMARK    1  A    between atoms: C_2  and  C_3
REMARK    2  A    between atoms: C_2  and  C_26
REMARK    3  A    between atoms: C_3  and  N_4
REMARK    4  A    between atoms: C_7  and  N_8
REMARK    5  A    between atoms: C_21  and  C_22
REMARK    6  A    between atoms: N_30  and  C_31
REMARK    7  A    between atoms: C_31  and  C_32
REMARK    8  A    between atoms: C_32  and  O_33
REMARK                            x       y       z     vdW  Elec       q    Type
REMARK                         _______ _______ _______ _____ _____    ______ ____
ROOT
ATOM      1  N   UNL     1       5.867   6.306  17.232  0.00  0.00    +0.000 N 
ATOM      2  C   UNL     1       4.527   6.197  17.591  0.00  0.00    +0.000 A 
ATOM      3  N   UNL     1       3.854   7.261  17.935  0.00  0.00    +0.000 NA
ATOM      4  C   UNL     1       2.520   7.175  18.266  0.00  0.00    +0.000 A 
ATOM      5  C   UNL     1       1.891   5.991  18.253  0.00  0.00    +0.000 A 
ATOM      6  C   UNL     1       2.609   4.780  17.881  0.00  0.00    +0.000 A 
ATOM      7  O   UNL     1       2.000   3.712  17.826  0.00  0.00    +0.000 OA
ATOM      8  N   UNL     1       3.945   4.941  17.597  0.00  0.00    +0.000 N 
ATOM      9  C   UNL     1       4.655   3.748  17.177  0.00  0.00    +0.000 C 
ATOM     10  C   UNL     1       6.157   3.880  17.298  0.00  0.00    +0.000 C 
ATOM     11  C   UNL     1       6.610   5.167  16.620  0.00  0.00    +0.000 C 
ENDROOT
BRANCH   4  12
ATOM     12  N   UNL     1       1.791   8.312  18.598  0.00  0.00    +0.000 N 
ATOM     13  C   UNL     1       1.467   8.804  19.953  0.00  0.00    +0.000 C 
ATOM     14  C   UNL     1       0.851  10.188  19.641  0.00  0.00    +0.000 C 
ATOM     15  C   UNL     1       0.122   9.920  18.338  0.00  0.00    +0.000 C 
ATOM     16  C   UNL     1       1.391   9.393  17.671  0.00  0.00    +0.000 C 
ATOM     17  C   UNL     1       2.323  10.595  17.920  0.00  0.00    +0.000 C 
ATOM     18  O   UNL     1       1.921  11.089  19.236  0.00  0.00    +0.000 OA
ENDBRANCH   4  12
BRANCH  11  19
ATOM     19  C   UNL     1       6.528   5.093  15.072  0.00  0.00    +0.000 C 
ATOM     20  F   UNL     1       5.488   5.798  14.574  0.00  0.00    +0.000 F 
ATOM     21  F   UNL     1       7.654   5.613  14.520  0.00  0.00    +0.000 F 
ATOM     22  F   UNL     1       6.417   3.829  14.609  0.00  0.00    +0.000 F 
ENDBRANCH  11  19
BRANCH   1  23
ATOM     23  C   UNL     1       6.501   7.630  17.075  0.00  0.00    +0.000 C 
BRANCH  23  25
ATOM     24  O   UNL     1       8.218   6.844  18.586  0.00  0.00    +0.000 OA
ATOM     25  C   UNL     1       7.683   7.802  18.021  0.00  0.00    +0.000 C 
BRANCH  25  26
ATOM     26  C   UNL     1       8.268   9.147  18.216  0.00  0.00    +0.000 A 
ATOM     27  C   UNL     1       9.150   9.366  19.272  0.00  0.00    +0.000 A 
ATOM     28  C   UNL     1       9.659  10.646  19.484  0.00  0.00    +0.000 A 
ATOM     29  C   UNL     1       9.243  11.693  18.669  0.00  0.00    +0.000 A 
ATOM     30  N   UNL     1       9.601  12.987  19.055  0.00  0.00    +0.000 N 
ATOM     31  N   UNL     1       8.405  11.488  17.630  0.00  0.00    +0.000 NA
ATOM     32  C   UNL     1       7.936  10.230  17.421  0.00  0.00    +0.000 A 
ATOM     33  H   UNL     1      10.605  13.107  19.140  0.00  0.00    +0.000 HD
BRANCH  30  34
ATOM     34  C   UNL     1       8.904  14.095  18.398  0.00  0.00    +0.000 C 
BRANCH  34  35
ATOM     35  C   UNL     1       9.942  15.097  17.868  0.00  0.00    +0.000 C 
BRANCH  35  36
ATOM     36  O   UNL     1       9.302  16.024  16.985  0.00  0.00    +0.000 OA
ATOM     37  H   UNL     1       9.720  16.881  17.202  0.00  0.00    +0.000 HD
ENDBRANCH  35  36
ENDBRANCH  34  35
ENDBRANCH  30  34
ENDBRANCH  25  26
ENDBRANCH  23  25
ENDBRANCH   1  23
TORSDOF 8
ENDMDL
MODEL 7
REMARK VINA RESULT:      -7.3      1.409      1.656
REMARK  Name = 
REMARK  8 active torsions:
REMARK  status: ('A' for Active; 'I' for Inactive)
REMARK    1  A    between atoms: C_2  and  C_3
REMARK    2  A    between atoms: C_2  and  C_26
REMARK    3  A    between atoms: C_3  and  N_4
REMARK    4  A    between atoms: C_7  and  N_8
REMARK    5  A    between atoms: C_21  and  C_22
REMARK    6  A    between atoms: N_30  and  C_31
REMARK    7  A    between atoms: C_31  and  C_32
REMARK    8  A    between atoms: C_32  and  O_33
REMARK                            x       y       z     vdW  Elec       q    Type
REMARK                         _______ _______ _______ _____ _____    ______ ____
ROOT
ATOM      1  N   UNL     1       0.703   9.312  20.240  0.00  0.00    +0.000 N 
ATOM      2  C   UNL     1       1.435   8.288  19.645  0.00  0.00    +0.000 A 
ATOM      3  N   UNL     1       1.412   7.087  20.154  0.00  0.00    +0.000 NA
ATOM      4  C   UNL     1       2.108   6.057  19.562  0.00  0.00    +0.000 A 
ATOM      5  C   UNL     1       2.836   6.274  18.458  0.00  0.00    +0.000 A 
ATOM      6  C   UNL     1       2.893   7.603  17.864  0.00  0.00    +0.000 A 
ATOM      7  O   UNL     1       3.525   7.769  16.821  0.00  0.00    +0.000 OA
ATOM      8  N   UNL     1       2.200   8.585  18.530  0.00  0.00    +0.000 N 
ATOM      9  C   UNL     1       2.211   9.900  17.917  0.00  0.00    +0.000 C 
ATOM     10  C   UNL     1       1.822  11.003  18.876  0.00  0.00    +0.000 C 
ATOM     11  C   UNL     1       0.520  10.633  19.574  0.00  0.00    +0.000 C 
ENDROOT
BRANCH   4  12
ATOM     12  N   UNL     1       2.055   4.767  20.081  0.00  0.00    +0.000 N 
ATOM     13  C   UNL     1       0.893   3.855  20.097  0.00  0.00    +0.000 C 
ATOM     14  C   UNL     1       1.539   2.539  20.589  0.00  0.00    +0.000 C 
ATOM     15  C   UNL     1       2.582   3.049  21.567  0.00  0.00    +0.000 C 
ATOM     16  C   UNL     1       3.213   3.951  20.509  0.00  0.00    +0.000 C 
ATOM     17  C   UNL     1       3.481   2.904  19.411  0.00  0.00    +0.000 C 
ATOM     18  O   UNL     1       2.346   1.988  19.510  0.00  0.00    +0.000 OA
ENDBRANCH   4  12
BRANCH  11  19
ATOM     19  C   UNL     1      -0.713  10.724  18.636  0.00  0.00    +0.000 C 
ATOM     20  F   UNL     1      -0.847   9.632  17.850  0.00  0.00    +0.000 F 
ATOM     21  F   UNL     1      -1.851  10.820  19.369  0.00  0.00    +0.000 F 
ATOM     22  F   UNL     1      -0.682  11.803  17.825  0.00  0.00    +0.000 F 
ENDBRANCH  11  19
BRANCH   1  23
ATOM     23  C   UNL     1      -0.233   9.026  21.344  0.00  0.00    +0.000 C 
BRANCH  23  25
ATOM     24  O   UNL     1       0.909   9.725  23.358  0.00  0.00    +0.000 OA
ATOM     25  C   UNL     1       0.011   9.939  22.538  0.00  0.00    +0.000 C 
BRANCH  25  26
ATOM     26  C   UNL     1      -0.796  11.170  22.690  0.00  0.00    +0.000 A 
ATOM     27  C   UNL     1      -2.021  11.111  23.353  0.00  0.00    +0.000 A 
ATOM     28  C   UNL     1      -2.803  12.261  23.448  0.00  0.00    +0.000 A 
ATOM     29  C   UNL     1      -2.372  13.436  22.841  0.00  0.00    +0.000 A 
ATOM     30  N   UNL     1      -3.283  14.492  22.770  0.00  0.00    +0.000 N 
ATOM     31  N   UNL     1      -1.177  13.510  22.215  0.00  0.00    +0.000 NA
ATOM     32  C   UNL     1      -0.415  12.386  22.151  0.00  0.00    +0.000 A 
ATOM     33  H   UNL     1      -3.621  14.780  23.683  0.00  0.00    +0.000 HD
BRANCH  30  34
ATOM     34  C   UNL     1      -2.957  15.594  21.861  0.00  0.00    +0.000 C 
BRANCH  34  35
ATOM     35  C   UNL     1      -2.338  16.745  22.669  0.00  0.00    +0.000 C 
BRANCH  35  36
ATOM     36  O   UNL     1      -0.911  16.669  22.591  0.00  0.00    +0.000 OA
ATOM     37  H   UNL     1      -0.747  16.206  21.745  0.00  0.00    +0.000 HD
ENDBRANCH  35  36
ENDBRANCH  34  35
ENDBRANCH  30  34
ENDBRANCH  25  26
ENDBRANCH  23  25
ENDBRANCH   1  23
TORSDOF 8
ENDMDL
MODEL 8
REMARK VINA RESULT:      -7.2      3.781      9.540
REMARK  Name = 
REMARK  8 active torsions:
REMARK  status: ('A' for Active; 'I' for Inactive)
REMARK    1  A    between atoms: C_2  and  C_3
REMARK    2  A    between atoms: C_2  and  C_26
REMARK    3  A    between atoms: C_3  and  N_4
REMARK    4  A    between atoms: C_7  and  N_8
REMARK    5  A    between atoms: C_21  and  C_22
REMARK    6  A    between atoms: N_30  and  C_31
REMARK    7  A    between atoms: C_31  and  C_32
REMARK    8  A    between atoms: C_32  and  O_33
REMARK                            x       y       z     vdW  Elec       q    Type
REMARK                         _______ _______ _______ _____ _____    ______ ____
ROOT
ATOM      1  N   UNL     1       0.168  11.023  19.037  0.00  0.00    +0.000 N 
ATOM      2  C   UNL     1       0.398  12.382  19.229  0.00  0.00    +0.000 A 
ATOM      3  N   UNL     1       1.598  12.870  19.076  0.00  0.00    +0.000 NA
ATOM      4  C   UNL     1       1.838  14.216  19.234  0.00  0.00    +0.000 A 
ATOM      5  C   UNL     1       0.841  15.050  19.565  0.00  0.00    +0.000 A 
ATOM      6  C   UNL     1      -0.511  14.543  19.752  0.00  0.00    +0.000 A 
ATOM      7  O   UNL     1      -1.421  15.333  20.003  0.00  0.00    +0.000 OA
ATOM      8  N   UNL     1      -0.664  13.184  19.608  0.00  0.00    +0.000 N 
ATOM      9  C   UNL     1      -2.017  12.678  19.744  0.00  0.00    +0.000 C 
ATOM     10  C   UNL     1      -2.068  11.190  20.008  0.00  0.00    +0.000 C 
ATOM     11  C   UNL     1      -1.212  10.462  18.980  0.00  0.00    +0.000 C 
ENDROOT
BRANCH   4  12
ATOM     12  N   UNL     1       3.109  14.745  19.036  0.00  0.00    +0.000 N 
ATOM     13  C   UNL     1       3.777  15.011  17.744  0.00  0.00    +0.000 C 
ATOM     14  C   UNL     1       5.035  15.786  18.201  0.00  0.00    +0.000 C 
ATOM     15  C   UNL     1       5.362  15.106  19.517  0.00  0.00    +0.000 C 
ATOM     16  C   UNL     1       3.963  15.374  20.067  0.00  0.00    +0.000 C 
ATOM     17  C   UNL     1       3.900  16.900  19.863  0.00  0.00    +0.000 C 
ATOM     18  O   UNL     1       4.630  17.121  18.616  0.00  0.00    +0.000 OA
ENDBRANCH   4  12
BRANCH  11  19
ATOM     19  C   UNL     1      -1.851  10.447  17.566  0.00  0.00    +0.000 C 
ATOM     20  F   UNL     1      -1.651  11.604  16.896  0.00  0.00    +0.000 F 
ATOM     21  F   UNL     1      -1.301   9.460  16.814  0.00  0.00    +0.000 F 
ATOM     22  F   UNL     1      -3.182  10.220  17.590  0.00  0.00    +0.000 F 
ENDBRANCH  11  19
BRANCH   1  23
ATOM     23  C   UNL     1       1.228  10.147  18.501  0.00  0.00    +0.000 C 
BRANCH  23  25
ATOM     24  O   UNL     1       1.146   8.990  20.623  0.00  0.00    +0.000 OA
ATOM     25  C   UNL     1       1.550   9.005  19.457  0.00  0.00    +0.000 C 
BRANCH  25  26
ATOM     26  C   UNL     1       2.304   7.833  18.961  0.00  0.00    +0.000 A 
ATOM     27  C   UNL     1       2.265   6.637  19.677  0.00  0.00    +0.000 A 
ATOM     28  C   UNL     1       3.018   5.551  19.236  0.00  0.00    +0.000 A 
ATOM     29  C   UNL     1       3.833   5.690  18.117  0.00  0.00    +0.000 A 
ATOM     30  N   UNL     1       4.732   4.656  17.847  0.00  0.00    +0.000 N 
ATOM     31  N   UNL     1       3.862   6.836  17.404  0.00  0.00    +0.000 NA
ATOM     32  C   UNL     1       3.104   7.880  17.832  0.00  0.00    +0.000 A 
ATOM     33  H   UNL     1       4.272   3.759  17.724  0.00  0.00    +0.000 HD
BRANCH  30  34
ATOM     34  C   UNL     1       5.799   4.935  16.883  0.00  0.00    +0.000 C 
BRANCH  34  35
ATOM     35  C   UNL     1       7.127   5.098  17.638  0.00  0.00    +0.000 C 
BRANCH  35  36
ATOM     36  O   UNL     1       8.060   4.114  17.178  0.00  0.00    +0.000 OA
ATOM     37  H   UNL     1       7.607   3.700  16.416  0.00  0.00    +0.000 HD
ENDBRANCH  35  36
ENDBRANCH  34  35
ENDBRANCH  30  34
ENDBRANCH  25  26
ENDBRANCH  23  25
ENDBRANCH   1  23
TORSDOF 8
ENDMDL
MODEL 9
REMARK VINA RESULT:      -7.1      3.665      9.358
REMARK  Name = 
REMARK  8 active torsions:
REMARK  status: ('A' for Active; 'I' for Inactive)
REMARK    1  A    between atoms: C_2  and  C_3
REMARK    2  A    between atoms: C_2  and  C_26
REMARK    3  A    between atoms: C_3  and  N_4
REMARK    4  A    between atoms: C_7  and  N_8
REMARK    5  A    between atoms: C_21  and  C_22
REMARK    6  A    between atoms: N_30  and  C_31
REMARK    7  A    between atoms: C_31  and  C_32
REMARK    8  A    between atoms: C_32  and  O_33
REMARK                            x       y       z     vdW  Elec       q    Type
REMARK                         _______ _______ _______ _____ _____    ______ ____
ROOT
ATOM      1  N   UNL     1       0.108  11.260  19.219  0.00  0.00    +0.000 N 
ATOM      2  C   UNL     1       0.414  12.610  19.361  0.00  0.00    +0.000 A 
ATOM      3  N   UNL     1       1.642  13.022  19.208  0.00  0.00    +0.000 NA
ATOM      4  C   UNL     1       1.957  14.357  19.318  0.00  0.00    +0.000 A 
ATOM      5  C   UNL     1       1.006  15.260  19.598  0.00  0.00    +0.000 A 
ATOM      6  C   UNL     1      -0.376  14.840  19.782  0.00  0.00    +0.000 A 
ATOM      7  O   UNL     1      -1.241  15.690  19.987  0.00  0.00    +0.000 OA
ATOM      8  N   UNL     1      -0.606  13.487  19.690  0.00  0.00    +0.000 N 
ATOM      9  C   UNL     1      -1.987  13.066  19.823  0.00  0.00    +0.000 C 
ATOM     10  C   UNL     1      -2.129  11.595  20.144  0.00  0.00    +0.000 C 
ATOM     11  C   UNL     1      -1.302  10.778  19.161  0.00  0.00    +0.000 C 
ENDROOT
BRANCH   4  12
ATOM     12  N   UNL     1       3.260  14.804  19.120  0.00  0.00    +0.000 N 
ATOM     13  C   UNL     1       3.969  14.955  17.832  0.00  0.00    +0.000 C 
ATOM     14  C   UNL     1       5.258  15.687  18.272  0.00  0.00    +0.000 C 
ATOM     15  C   UNL     1       5.519  15.071  19.634  0.00  0.00    +0.000 C 
ATOM     16  C   UNL     1       4.125  15.447  20.133  0.00  0.00    +0.000 C 
ATOM     17  C   UNL     1       4.151  16.959  19.838  0.00  0.00    +0.000 C 
ATOM     18  O   UNL     1       4.919  17.065  18.598  0.00  0.00    +0.000 OA
ENDBRANCH   4  12
BRANCH  11  19
ATOM     19  C   UNL     1      -1.920  10.743  17.737  0.00  0.00    +0.000 C 
ATOM     20  F   UNL     1      -3.271  10.703  17.761  0.00  0.00    +0.000 F 
ATOM     21  F   UNL     1      -1.574  11.861  17.050  0.00  0.00    +0.000 F 
ATOM     22  F   UNL     1      -1.498   9.691  17.003  0.00  0.00    +0.000 F 
ENDBRANCH  11  19
BRANCH   1  23
ATOM     23  C   UNL     1       1.122  10.304  18.736  0.00  0.00    +0.000 C 
BRANCH  23  25
ATOM     24  O   UNL     1       0.582   8.996  20.697  0.00  0.00    +0.000 OA
ATOM     25  C   UNL     1       1.241   9.097  19.657  0.00  0.00    +0.000 C 
BRANCH  25  26
ATOM     26  C   UNL     1       2.110   7.966  19.267  0.00  0.00    +0.000 A 
ATOM     27  C   UNL     1       2.723   7.970  18.015  0.00  0.00    +0.000 A 
ATOM     28  C   UNL     1       3.499   6.879  17.629  0.00  0.00    +0.000 A 
ATOM     29  C   UNL     1       3.614   5.784  18.479  0.00  0.00    +0.000 A 
ATOM     30  N   UNL     1       4.211   4.632  17.963  0.00  0.00    +0.000 N 
ATOM     31  N   UNL     1       3.044   5.779  19.703  0.00  0.00    +0.000 NA
ATOM     32  C   UNL     1       2.308   6.860  20.075  0.00  0.00    +0.000 A 
ATOM     33  H   UNL     1       5.153   4.797  17.624  0.00  0.00    +0.000 HD
BRANCH  30  34
ATOM     34  C   UNL     1       4.043   3.394  18.728  0.00  0.00    +0.000 C 
BRANCH  34  35
ATOM     35  C   UNL     1       3.362   2.343  17.839  0.00  0.00    +0.000 C 
BRANCH  35  36
ATOM     36  O   UNL     1       3.801   1.036  18.223  0.00  0.00    +0.000 OA
ATOM     37  H   UNL     1       4.016   0.601  17.374  0.00  0.00    +0.000 HD
ENDBRANCH  35  36
ENDBRANCH  34  35
ENDBRANCH  30  34
ENDBRANCH  25  26
ENDBRANCH  23  25
ENDBRANCH   1  23
TORSDOF 8
ENDMDL
