MODEL 1
REMARK VINA RESULT:      -9.1      0.000      0.000
REMARK  Name = 
REMARK  6 active torsions:
REMARK  status: ('A' for Active; 'I' for Inactive)
REMARK    1  A    between atoms: C_1  and  C_2
REMARK    2  A    between atoms: N_4  and  C_5
REMARK    3  A    between atoms: C_5  and  C_6
REMARK    4  A    between atoms: C_9  and  C_10
REMARK    5  A    between atoms: C_12  and  C_13
REMARK    6  A    between atoms: C_30  and  C_31
REMARK                            x       y       z     vdW  Elec       q    Type
REMARK                         _______ _______ _______ _____ _____    ______ ____
ROOT
ATOM      1  C   UNL     1       0.018   9.887  19.777  0.00  0.00    +0.000 A 
ATOM      2  C   UNL     1       0.830   8.884  19.204  0.00  0.00    +0.000 A 
ATOM      3  C   UNL     1       1.643   8.017  19.969  0.00  0.00    +0.000 A 
ATOM      4  C   UNL     1       1.624   8.172  21.367  0.00  0.00    +0.000 A 
ATOM      5  C   UNL     1       0.756   9.115  21.936  0.00  0.00    +0.000 A 
ATOM      6  N   UNL     1       0.485   9.418  23.244  0.00  0.00    +0.000 N 
ATOM      7  N   UNL     1      -0.410  10.407  23.404  0.00  0.00    +0.000 NA
ATOM      8  C   UNL     1      -0.719  10.749  22.150  0.00  0.00    +0.000 A 
ATOM      9  C   UNL     1      -0.036   9.972  21.181  0.00  0.00    +0.000 A 
ATOM     10  H   UNL     1       0.866   8.978  24.073  0.00  0.00    +0.000 HD
ENDROOT
BRANCH   3  11
ATOM     11  C   UNL     1       2.500   7.006  19.299  0.00  0.00    +0.000 A 
ATOM     12  C   UNL     1       3.266   7.342  18.153  0.00  0.00    +0.000 A 
ATOM     13  C   UNL     1       4.034   6.408  17.463  0.00  0.00    +0.000 A 
ATOM     14  C   UNL     1       4.101   5.088  17.894  0.00  0.00    +0.000 A 
ATOM     15  C   UNL     1       3.380   4.745  19.041  0.00  0.00    +0.000 A 
ATOM     16  N   UNL     1       3.299   3.524  19.673  0.00  0.00    +0.000 N 
ATOM     17  C   UNL     1       2.480   3.608  20.762  0.00  0.00    +0.000 A 
ATOM     18  C   UNL     1       1.995   4.894  20.815  0.00  0.00    +0.000 A 
ATOM     19  C   UNL     1       2.579   5.651  19.748  0.00  0.00    +0.000 A 
ATOM     20  H   UNL     1       3.783   2.691  19.370  0.00  0.00    +0.000 HD
ENDBRANCH   3  11
BRANCH   1  24
ATOM     21  C   UNL     1      -2.351  11.474  17.735  0.00  0.00    +0.000 A 
ATOM     22  N   UNL     1      -1.605  12.537  17.955  0.00  0.00    +0.000 NA
ATOM     23  N   UNL     1      -0.571  12.117  18.764  0.00  0.00    +0.000 NA
ATOM     24  C   UNL     1      -0.756  10.831  18.987  0.00  0.00    +0.000 A 
ATOM     25  O   UNL     1      -1.864  10.346  18.342  0.00  0.00    +0.000 OA
BRANCH  21  26
ATOM     26  C   UNL     1      -3.658  11.379  17.020  0.00  0.00    +0.000 C 
BRANCH  26  30
ATOM     27  C   UNL     1      -6.647  14.378  18.496  0.00  0.00    +0.000 C 
ATOM     28  C   UNL     1      -6.996  13.069  17.794  0.00  0.00    +0.000 C 
ATOM     29  C   UNL     1      -5.827  12.511  16.959  0.00  0.00    +0.000 C 
ATOM     30  N   UNL     1      -4.798  11.882  17.814  0.00  0.00    +0.000 NA
ATOM     31  C   UNL     1      -5.455  10.778  18.539  0.00  0.00    +0.000 C 
ATOM     32  C   UNL     1      -6.618  11.285  19.418  0.00  0.00    +0.000 C 
ATOM     33  C   UNL     1      -6.140  11.961  20.699  0.00  0.00    +0.000 C 
ATOM     34  O   UNL     1      -7.556  12.100  18.694  0.00  0.00    +0.000 OA
ENDBRANCH  26  30
ENDBRANCH  21  26
ENDBRANCH   1  24
TORSDOF 4
ENDMDL
MODEL 2
REMARK VINA RESULT:      -8.9      2.368      4.327
REMARK  Name = 
REMARK  6 active torsions:
REMARK  status: ('A' for Active; 'I' for Inactive)
REMARK    1  A    between atoms: C_1  and  C_2
REMARK    2  A    between atoms: N_4  and  C_5
REMARK    3  A    between atoms: C_5  and  C_6
REMARK    4  A    between atoms: C_9  and  C_10
REMARK    5  A    between atoms: C_12  and  C_13
REMARK    6  A    between atoms: C_30  and  C_31
REMARK                            x       y       z     vdW  Elec       q    Type
REMARK                         _______ _______ _______ _____ _____    ______ ____
ROOT
ATOM      1  C   UNL     1       1.201   8.705  20.752  0.00  0.00    +0.000 A 
ATOM      2  C   UNL     1       1.611   7.355  20.690  0.00  0.00    +0.000 A 
ATOM      3  C   UNL     1       2.110   6.752  19.514  0.00  0.00    +0.000 A 
ATOM      4  C   UNL     1       2.200   7.551  18.360  0.00  0.00    +0.000 A 
ATOM      5  C   UNL     1       1.867   8.911  18.446  0.00  0.00    +0.000 A 
ATOM      6  N   UNL     1       1.932   9.916  17.517  0.00  0.00    +0.000 N 
ATOM      7  N   UNL     1       1.508  11.107  17.969  0.00  0.00    +0.000 NA
ATOM      8  C   UNL     1       1.159  10.852  19.233  0.00  0.00    +0.000 A 
ATOM      9  C   UNL     1       1.370   9.500  19.602  0.00  0.00    +0.000 A 
ATOM     10  H   UNL     1       2.267   9.857  16.563  0.00  0.00    +0.000 HD
ENDROOT
BRANCH   3  11
ATOM     11  C   UNL     1       2.492   5.316  19.511  0.00  0.00    +0.000 A 
ATOM     12  C   UNL     1       1.542   4.307  19.814  0.00  0.00    +0.000 A 
ATOM     13  C   UNL     1       1.874   2.957  19.879  0.00  0.00    +0.000 A 
ATOM     14  C   UNL     1       3.173   2.534  19.619  0.00  0.00    +0.000 A 
ATOM     15  C   UNL     1       4.116   3.510  19.285  0.00  0.00    +0.000 A 
ATOM     16  N   UNL     1       5.447   3.348  18.969  0.00  0.00    +0.000 N 
ATOM     17  C   UNL     1       6.023   4.558  18.710  0.00  0.00    +0.000 A 
ATOM     18  C   UNL     1       5.060   5.521  18.897  0.00  0.00    +0.000 A 
ATOM     19  C   UNL     1       3.824   4.879  19.232  0.00  0.00    +0.000 A 
ATOM     20  H   UNL     1       5.921   2.456  18.932  0.00  0.00    +0.000 HD
ENDBRANCH   3  11
BRANCH   1  24
ATOM     21  C   UNL     1      -0.754  10.507  23.039  0.00  0.00    +0.000 A 
ATOM     22  N   UNL     1       0.046   9.954  23.927  0.00  0.00    +0.000 NA
ATOM     23  N   UNL     1       0.933   9.178  23.211  0.00  0.00    +0.000 NA
ATOM     24  C   UNL     1       0.614   9.304  21.938  0.00  0.00    +0.000 A 
ATOM     25  O   UNL     1      -0.444  10.157  21.751  0.00  0.00    +0.000 OA
BRANCH  21  26
ATOM     26  C   UNL     1      -1.966  11.348  23.266  0.00  0.00    +0.000 C 
BRANCH  26  30
ATOM     27  C   UNL     1      -4.275  12.633  19.642  0.00  0.00    +0.000 C 
ATOM     28  C   UNL     1      -4.103  13.465  20.909  0.00  0.00    +0.000 C 
ATOM     29  C   UNL     1      -3.734  12.611  22.138  0.00  0.00    +0.000 C 
ATOM     30  N   UNL     1      -2.314  12.198  22.109  0.00  0.00    +0.000 NA
ATOM     31  C   UNL     1      -1.507  13.433  22.108  0.00  0.00    +0.000 C 
ATOM     32  C   UNL     1      -1.814  14.315  20.880  0.00  0.00    +0.000 C 
ATOM     33  C   UNL     1      -1.174  13.790  19.599  0.00  0.00    +0.000 C 
ATOM     34  O   UNL     1      -3.217  14.579  20.714  0.00  0.00    +0.000 OA
ENDBRANCH  26  30
ENDBRANCH  21  26
ENDBRANCH   1  24
TORSDOF 4
ENDMDL
MODEL 3
REMARK VINA RESULT:      -8.9      3.567      4.963
REMARK  Name = 
REMARK  6 active torsions:
REMARK  status: ('A' for Active; 'I' for Inactive)
REMARK    1  A    between atoms: C_1  and  C_2
REMARK    2  A    between atoms: N_4  and  C_5
REMARK    3  A    between atoms: C_5  and  C_6
REMARK    4  A    between atoms: C_9  and  C_10
REMARK    5  A    between atoms: C_12  and  C_13
REMARK    6  A    between atoms: C_30  and  C_31
REMARK                            x       y       z     vdW  Elec       q    Type
REMARK                         _______ _______ _______ _____ _____    ______ ____
ROOT
ATOM      1  C   UNL     1       1.042   8.879  20.818  0.00  0.00    +0.000 A 
ATOM      2  C   UNL     1       1.407   7.516  20.875  0.00  0.00    +0.000 A 
ATOM      3  C   UNL     1       1.971   6.821  19.781  0.00  0.00    +0.000 A 
ATOM      4  C   UNL     1       2.178   7.540  18.590  0.00  0.00    +0.000 A 
ATOM      5  C   UNL     1       1.888   8.912  18.563  0.00  0.00    +0.000 A 
ATOM      6  N   UNL     1       2.059   9.851  17.581  0.00  0.00    +0.000 N 
ATOM      7  N   UNL     1       1.646  11.082  17.922  0.00  0.00    +0.000 NA
ATOM      8  C   UNL     1       1.193  10.922  19.169  0.00  0.00    +0.000 A 
ATOM      9  C   UNL     1       1.326   9.591  19.638  0.00  0.00    +0.000 A 
ATOM     10  H   UNL     1       2.464   9.719  16.662  0.00  0.00    +0.000 HD
ENDROOT
BRANCH   3  11
ATOM     11  C   UNL     1       2.300   5.377  19.899  0.00  0.00    +0.000 A 
ATOM     12  C   UNL     1       1.347   4.450  20.393  0.00  0.00    +0.000 A 
ATOM     13  C   UNL     1       1.636   3.100  20.573  0.00  0.00    +0.000 A 
ATOM     14  C   UNL     1       2.889   2.593  20.245  0.00  0.00    +0.000 A 
ATOM     15  C   UNL     1       3.830   3.485  19.724  0.00  0.00    +0.000 A 
ATOM     16  N   UNL     1       5.119   3.231  19.309  0.00  0.00    +0.000 N 
ATOM     17  C   UNL     1       5.710   4.381  18.870  0.00  0.00    +0.000 A 
ATOM     18  C   UNL     1       4.804   5.401  19.038  0.00  0.00    +0.000 A 
ATOM     19  C   UNL     1       3.583   4.854  19.550  0.00  0.00    +0.000 A 
ATOM     20  H   UNL     1       5.555   2.320  19.326  0.00  0.00    +0.000 HD
ENDBRANCH   3  11
BRANCH   1  24
ATOM     21  C   UNL     1      -1.031  10.868  22.830  0.00  0.00    +0.000 A 
ATOM     22  N   UNL     1      -0.295  10.379  23.807  0.00  0.00    +0.000 NA
ATOM     23  N   UNL     1       0.625   9.544  23.211  0.00  0.00    +0.000 NA
ATOM     24  C   UNL     1       0.388   9.573  21.915  0.00  0.00    +0.000 A 
ATOM     25  O   UNL     1      -0.644  10.418  21.595  0.00  0.00    +0.000 OA
BRANCH  21  26
ATOM     26  C   UNL     1      -2.244  11.734  22.913  0.00  0.00    +0.000 C 
BRANCH  26  30
ATOM     27  C   UNL     1       0.119  15.545  22.812  0.00  0.00    +0.000 C 
ATOM     28  C   UNL     1      -1.308  15.387  22.295  0.00  0.00    +0.000 C 
ATOM     29  C   UNL     1      -1.669  13.922  21.979  0.00  0.00    +0.000 C 
ATOM     30  N   UNL     1      -1.935  13.148  23.211  0.00  0.00    +0.000 NA
ATOM     31  C   UNL     1      -3.070  13.798  23.892  0.00  0.00    +0.000 C 
ATOM     32  C   UNL     1      -2.752  15.263  24.259  0.00  0.00    +0.000 C 
ATOM     33  C   UNL     1      -1.839  15.382  25.476  0.00  0.00    +0.000 C 
ATOM     34  O   UNL     1      -2.271  16.031  23.144  0.00  0.00    +0.000 OA
ENDBRANCH  26  30
ENDBRANCH  21  26
ENDBRANCH   1  24
TORSDOF 4
ENDMDL
MODEL 4
REMARK VINA RESULT:      -8.8      2.957      9.224
REMARK  Name = 
REMARK  6 active torsions:
REMARK  status: ('A' for Active; 'I' for Inactive)
REMARK    1  A    between atoms: C_1  and  C_2
REMARK    2  A    between atoms: N_4  and  C_5
REMARK    3  A    between atoms: C_5  and  C_6
REMARK    4  A    between atoms: C_9  and  C_10
REMARK    5  A    between atoms: C_12  and  C_13
REMARK    6  A    between atoms: C_30  and  C_31
REMARK                            x       y       z     vdW  Elec       q    Type
REMARK                         _______ _______ _______ _____ _____    ______ ____
ROOT
ATOM      1  C   UNL     1       0.553  10.897  18.800  0.00  0.00    +0.000 A 
ATOM      2  C   UNL     1      -0.812  11.021  19.138  0.00  0.00    +0.000 A 
ATOM      3  C   UNL     1      -1.448  12.268  19.339  0.00  0.00    +0.000 A 
ATOM      4  C   UNL     1      -0.669  13.428  19.183  0.00  0.00    +0.000 A 
ATOM      5  C   UNL     1       0.665  13.303  18.769  0.00  0.00    +0.000 A 
ATOM      6  N   UNL     1       1.611  14.249  18.473  0.00  0.00    +0.000 N 
ATOM      7  N   UNL     1       2.801  13.740  18.117  0.00  0.00    +0.000 NA
ATOM      8  C   UNL     1       2.608  12.420  18.191  0.00  0.00    +0.000 A 
ATOM      9  C   UNL     1       1.290  12.076  18.580  0.00  0.00    +0.000 A 
ATOM     10  H   UNL     1       1.503  15.255  18.481  0.00  0.00    +0.000 HD
ENDROOT
BRANCH   3  11
ATOM     11  C   UNL     1      -2.881  12.325  19.728  0.00  0.00    +0.000 A 
ATOM     12  C   UNL     1      -3.267  12.708  21.037  0.00  0.00    +0.000 A 
ATOM     13  C   UNL     1      -4.594  12.718  21.457  0.00  0.00    +0.000 A 
ATOM     14  C   UNL     1      -5.616  12.367  20.582  0.00  0.00    +0.000 A 
ATOM     15  C   UNL     1      -5.259  12.020  19.277  0.00  0.00    +0.000 A 
ATOM     16  N   UNL     1      -6.076  11.657  18.228  0.00  0.00    +0.000 N 
ATOM     17  C   UNL     1      -5.329  11.387  17.118  0.00  0.00    +0.000 A 
ATOM     18  C   UNL     1      -4.006  11.541  17.462  0.00  0.00    +0.000 A 
ATOM     19  C   UNL     1      -3.933  11.977  18.825  0.00  0.00    +0.000 A 
ATOM     20  H   UNL     1      -7.083  11.605  18.281  0.00  0.00    +0.000 HD
ENDBRANCH   3  11
BRANCH   1  24
ATOM     21  C   UNL     1       2.014   7.754  19.340  0.00  0.00    +0.000 A 
ATOM     22  N   UNL     1       2.251   7.811  18.045  0.00  0.00    +0.000 NA
ATOM     23  N   UNL     1       1.742   9.018  17.616  0.00  0.00    +0.000 NA
ATOM     24  C   UNL     1       1.227   9.615  18.672  0.00  0.00    +0.000 A 
ATOM     25  O   UNL     1       1.384   8.874  19.816  0.00  0.00    +0.000 OA
BRANCH  21  26
ATOM     26  C   UNL     1       2.249   6.624  20.287  0.00  0.00    +0.000 C 
BRANCH  26  30
ATOM     27  C   UNL     1       3.740   3.801  17.137  0.00  0.00    +0.000 C 
ATOM     28  C   UNL     1       4.073   3.708  18.623  0.00  0.00    +0.000 C 
ATOM     29  C   UNL     1       3.875   5.045  19.364  0.00  0.00    +0.000 C 
ATOM     30  N   UNL     1       2.444   5.325  19.611  0.00  0.00    +0.000 NA
ATOM     31  C   UNL     1       1.927   4.222  20.442  0.00  0.00    +0.000 C 
ATOM     32  C   UNL     1       2.072   2.858  19.734  0.00  0.00    +0.000 C 
ATOM     33  C   UNL     1       1.029   2.644  18.642  0.00  0.00    +0.000 C 
ATOM     34  O   UNL     1       3.407   2.608  19.264  0.00  0.00    +0.000 OA
ENDBRANCH  26  30
ENDBRANCH  21  26
ENDBRANCH   1  24
TORSDOF 4
ENDMDL
MODEL 5
REMARK VINA RESULT:      -8.8      3.051      9.499
REMARK  Name = 
REMARK  6 active torsions:
REMARK  status: ('A' for Active; 'I' for Inactive)
REMARK    1  A    between atoms: C_1  and  C_2
REMARK    2  A    between atoms: N_4  and  C_5
REMARK    3  A    between atoms: C_5  and  C_6
REMARK    4  A    between atoms: C_9  and  C_10
REMARK    5  A    between atoms: C_12  and  C_13
REMARK    6  A    between atoms: C_30  and  C_31
REMARK                            x       y       z     vdW  Elec       q    Type
REMARK                         _______ _______ _______ _____ _____    ______ ____
ROOT
ATOM      1  C   UNL     1       0.551   9.507  19.226  0.00  0.00    +0.000 A 
ATOM      2  C   UNL     1      -0.574  10.018  18.543  0.00  0.00    +0.000 A 
ATOM      3  C   UNL     1      -1.664  10.633  19.200  0.00  0.00    +0.000 A 
ATOM      4  C   UNL     1      -1.604  10.738  20.602  0.00  0.00    +0.000 A 
ATOM      5  C   UNL     1      -0.450  10.302  21.268  0.00  0.00    +0.000 A 
ATOM      6  N   UNL     1      -0.100  10.351  22.592  0.00  0.00    +0.000 N 
ATOM      7  N   UNL     1       1.101   9.814  22.861  0.00  0.00    +0.000 NA
ATOM      8  C   UNL     1       1.532   9.405  21.664  0.00  0.00    +0.000 A 
ATOM      9  C   UNL     1       0.617   9.690  20.621  0.00  0.00    +0.000 A 
ATOM     10  H   UNL     1      -0.629  10.750  23.358  0.00  0.00    +0.000 HD
ENDROOT
BRANCH   3  11
ATOM     11  C   UNL     1      -2.833  11.119  18.422  0.00  0.00    +0.000 A 
ATOM     12  C   UNL     1      -3.810  11.956  19.017  0.00  0.00    +0.000 A 
ATOM     13  C   UNL     1      -4.948  12.383  18.339  0.00  0.00    +0.000 A 
ATOM     14  C   UNL     1      -5.163  12.016  17.015  0.00  0.00    +0.000 A 
ATOM     15  C   UNL     1      -4.195  11.219  16.400  0.00  0.00    +0.000 A 
ATOM     16  N   UNL     1      -4.166  10.743  15.108  0.00  0.00    +0.000 N 
ATOM     17  C   UNL     1      -3.044   9.991  14.905  0.00  0.00    +0.000 A 
ATOM     18  C   UNL     1      -2.355   9.950  16.094  0.00  0.00    +0.000 A 
ATOM     19  C   UNL     1      -3.049  10.752  17.057  0.00  0.00    +0.000 A 
ATOM     20  H   UNL     1      -4.876  10.932  14.414  0.00  0.00    +0.000 HD
ENDBRANCH   3  11
BRANCH   1  24
ATOM     21  C   UNL     1       2.953   7.180  18.173  0.00  0.00    +0.000 A 
ATOM     22  N   UNL     1       3.268   8.123  17.309  0.00  0.00    +0.000 NA
ATOM     23  N   UNL     1       2.414   9.175  17.565  0.00  0.00    +0.000 NA
ATOM     24  C   UNL     1       1.634   8.803  18.560  0.00  0.00    +0.000 A 
ATOM     25  O   UNL     1       1.936   7.546  19.015  0.00  0.00    +0.000 OA
BRANCH  21  26
ATOM     26  C   UNL     1       3.480   5.786  18.271  0.00  0.00    +0.000 C 
BRANCH  26  30
ATOM     27  C   UNL     1       7.837   6.845  18.194  0.00  0.00    +0.000 C 
ATOM     28  C   UNL     1       7.272   5.500  18.641  0.00  0.00    +0.000 C 
ATOM     29  C   UNL     1       5.790   5.584  19.055  0.00  0.00    +0.000 C 
ATOM     30  N   UNL     1       4.899   5.668  17.877  0.00  0.00    +0.000 NA
ATOM     31  C   UNL     1       5.119   4.445  17.083  0.00  0.00    +0.000 C 
ATOM     32  C   UNL     1       6.585   4.324  16.615  0.00  0.00    +0.000 C 
ATOM     33  C   UNL     1       6.911   5.249  15.447  0.00  0.00    +0.000 C 
ATOM     34  O   UNL     1       7.531   4.456  17.689  0.00  0.00    +0.000 OA
ENDBRANCH  26  30
ENDBRANCH  21  26
ENDBRANCH   1  24
TORSDOF 4
ENDMDL
MODEL 6
REMARK VINA RESULT:      -8.8      3.037      9.353
REMARK  Name = 
REMARK  6 active torsions:
REMARK  status: ('A' for Active; 'I' for Inactive)
REMARK    1  A    between atoms: C_1  and  C_2
REMARK    2  A    between atoms: N_4  and  C_5
REMARK    3  A    between atoms: C_5  and  C_6
REMARK    4  A    between atoms: C_9  and  C_10
REMARK    5  A    between atoms: C_12  and  C_13
REMARK    6  A    between atoms: C_30  and  C_31
REMARK                            x       y       z     vdW  Elec       q    Type
REMARK                         _______ _______ _______ _____ _____    ______ ____
ROOT
ATOM      1  C   UNL     1       0.572  10.799  18.455  0.00  0.00    +0.000 A 
ATOM      2  C   UNL     1      -0.840  10.787  18.464  0.00  0.00    +0.000 A 
ATOM      3  C   UNL     1      -1.622  11.955  18.607  0.00  0.00    +0.000 A 
ATOM      4  C   UNL     1      -0.944  13.180  18.741  0.00  0.00    +0.000 A 
ATOM      5  C   UNL     1       0.455  13.197  18.652  0.00  0.00    +0.000 A 
ATOM      6  N   UNL     1       1.348  14.236  18.672  0.00  0.00    +0.000 N 
ATOM      7  N   UNL     1       2.632  13.856  18.573  0.00  0.00    +0.000 NA
ATOM      8  C   UNL     1       2.556  12.525  18.489  0.00  0.00    +0.000 A 
ATOM      9  C   UNL     1       1.223  12.046  18.518  0.00  0.00    +0.000 A 
ATOM     10  H   UNL     1       1.145  15.226  18.737  0.00  0.00    +0.000 HD
ENDROOT
BRANCH   3  11
ATOM     11  C   UNL     1      -3.105  11.866  18.643  0.00  0.00    +0.000 A 
ATOM     12  C   UNL     1      -3.835  11.404  17.518  0.00  0.00    +0.000 A 
ATOM     13  C   UNL     1      -5.227  11.361  17.492  0.00  0.00    +0.000 A 
ATOM     14  C   UNL     1      -5.969  11.756  18.600  0.00  0.00    +0.000 A 
ATOM     15  C   UNL     1      -5.266  12.182  19.730  0.00  0.00    +0.000 A 
ATOM     16  N   UNL     1      -5.762  12.601  20.945  0.00  0.00    +0.000 N 
ATOM     17  C   UNL     1      -4.739  12.940  21.782  0.00  0.00    +0.000 A 
ATOM     18  C   UNL     1      -3.564  12.774  21.087  0.00  0.00    +0.000 A 
ATOM     19  C   UNL     1      -3.868  12.260  19.785  0.00  0.00    +0.000 A 
ATOM     20  H   UNL     1      -6.745  12.642  21.176  0.00  0.00    +0.000 HD
ENDBRANCH   3  11
BRANCH   1  24
ATOM     21  C   UNL     1       2.201   7.758  19.089  0.00  0.00    +0.000 A 
ATOM     22  N   UNL     1       2.668   7.929  17.869  0.00  0.00    +0.000 NA
ATOM     23  N   UNL     1       2.136   9.119  17.419  0.00  0.00    +0.000 NA
ATOM     24  C   UNL     1       1.377   9.591  18.388  0.00  0.00    +0.000 A 
ATOM     25  O   UNL     1       1.388   8.784  19.497  0.00  0.00    +0.000 OA
BRANCH  21  26
ATOM     26  C   UNL     1       2.362   6.585  19.998  0.00  0.00    +0.000 C 
BRANCH  26  30
ATOM     27  C   UNL     1       5.005   4.291  17.194  0.00  0.00    +0.000 C 
ATOM     28  C   UNL     1       4.961   4.100  18.707  0.00  0.00    +0.000 C 
ATOM     29  C   UNL     1       4.385   5.324  19.446  0.00  0.00    +0.000 C 
ATOM     30  N   UNL     1       2.913   5.393  19.323  0.00  0.00    +0.000 NA
ATOM     31  C   UNL     1       2.372   4.158  19.921  0.00  0.00    +0.000 C 
ATOM     32  C   UNL     1       2.894   2.897  19.199  0.00  0.00    +0.000 C 
ATOM     33  C   UNL     1       2.205   2.656  17.860  0.00  0.00    +0.000 C 
ATOM     34  O   UNL     1       4.326   2.867  19.084  0.00  0.00    +0.000 OA
ENDBRANCH  26  30
ENDBRANCH  21  26
ENDBRANCH   1  24
TORSDOF 4
ENDMDL
MODEL 7
REMARK VINA RESULT:      -8.8      2.737      9.218
REMARK  Name = 
REMARK  6 active torsions:
REMARK  status: ('A' for Active; 'I' for Inactive)
REMARK    1  A    between atoms: C_1  and  C_2
REMARK    2  A    between atoms: N_4  and  C_5
REMARK    3  A    between atoms: C_5  and  C_6
REMARK    4  A    between atoms: C_9  and  C_10
REMARK    5  A    between atoms: C_12  and  C_13
REMARK    6  A    between atoms: C_30  and  C_31
REMARK                            x       y       z     vdW  Elec       q    Type
REMARK                         _______ _______ _______ _____ _____    ______ ____
ROOT
ATOM      1  C   UNL     1       0.389  10.526  18.934  0.00  0.00    +0.000 A 
ATOM      2  C   UNL     1      -1.019  10.597  18.863  0.00  0.00    +0.000 A 
ATOM      3  C   UNL     1      -1.723  11.802  18.637  0.00  0.00    +0.000 A 
ATOM      4  C   UNL     1      -0.965  12.976  18.471  0.00  0.00    +0.000 A 
ATOM      5  C   UNL     1       0.434  12.888  18.463  0.00  0.00    +0.000 A 
ATOM      6  N   UNL     1       1.397  13.839  18.252  0.00  0.00    +0.000 N 
ATOM      7  N   UNL     1       2.654  13.375  18.336  0.00  0.00    +0.000 NA
ATOM      8  C   UNL     1       2.487  12.078  18.613  0.00  0.00    +0.000 A 
ATOM      9  C   UNL     1       1.123  11.702  18.693  0.00  0.00    +0.000 A 
ATOM     10  H   UNL     1       1.262  14.819  18.033  0.00  0.00    +0.000 HD
ENDROOT
BRANCH   3  11
ATOM     11  C   UNL     1      -3.208  11.811  18.609  0.00  0.00    +0.000 A 
ATOM     12  C   UNL     1      -3.918  11.393  17.454  0.00  0.00    +0.000 A 
ATOM     13  C   UNL     1      -5.307  11.442  17.368  0.00  0.00    +0.000 A 
ATOM     14  C   UNL     1      -6.068  11.889  18.442  0.00  0.00    +0.000 A 
ATOM     15  C   UNL     1      -5.388  12.273  19.601  0.00  0.00    +0.000 A 
ATOM     16  N   UNL     1      -5.907  12.727  20.793  0.00  0.00    +0.000 N 
ATOM     17  C   UNL     1      -4.901  13.002  21.674  0.00  0.00    +0.000 A 
ATOM     18  C   UNL     1      -3.711  12.757  21.030  0.00  0.00    +0.000 A 
ATOM     19  C   UNL     1      -3.992  12.258  19.717  0.00  0.00    +0.000 A 
ATOM     20  H   UNL     1      -6.894  12.835  20.982  0.00  0.00    +0.000 HD
ENDBRANCH   3  11
BRANCH   1  24
ATOM     21  C   UNL     1       2.269   7.567  18.834  0.00  0.00    +0.000 A 
ATOM     22  N   UNL     1       2.074   7.578  20.136  0.00  0.00    +0.000 NA
ATOM     23  N   UNL     1       1.319   8.701  20.399  0.00  0.00    +0.000 NA
ATOM     24  C   UNL     1       1.108   9.302  19.246  0.00  0.00    +0.000 A 
ATOM     25  O   UNL     1       1.669   8.621  18.196  0.00  0.00    +0.000 OA
BRANCH  21  26
ATOM     26  C   UNL     1       3.114   6.643  18.021  0.00  0.00    +0.000 C 
BRANCH  26  30
ATOM     27  C   UNL     1       1.019   3.044  19.686  0.00  0.00    +0.000 C 
ATOM     28  C   UNL     1       1.472   3.199  18.238  0.00  0.00    +0.000 C 
ATOM     29  C   UNL     1       1.675   4.672  17.831  0.00  0.00    +0.000 C 
ATOM     30  N   UNL     1       2.935   5.220  18.377  0.00  0.00    +0.000 NA
ATOM     31  C   UNL     1       4.034   4.403  17.829  0.00  0.00    +0.000 C 
ATOM     32  C   UNL     1       3.897   2.919  18.232  0.00  0.00    +0.000 C 
ATOM     33  C   UNL     1       4.306   2.659  19.678  0.00  0.00    +0.000 C 
ATOM     34  O   UNL     1       2.604   2.371  17.929  0.00  0.00    +0.000 OA
ENDBRANCH  26  30
ENDBRANCH  21  26
ENDBRANCH   1  24
TORSDOF 4
ENDMDL
MODEL 8
REMARK VINA RESULT:      -8.8      2.583      5.530
REMARK  Name = 
REMARK  6 active torsions:
REMARK  status: ('A' for Active; 'I' for Inactive)
REMARK    1  A    between atoms: C_1  and  C_2
REMARK    2  A    between atoms: N_4  and  C_5
REMARK    3  A    between atoms: C_5  and  C_6
REMARK    4  A    between atoms: C_9  and  C_10
REMARK    5  A    between atoms: C_12  and  C_13
REMARK    6  A    between atoms: C_30  and  C_31
REMARK                            x       y       z     vdW  Elec       q    Type
REMARK                         _______ _______ _______ _____ _____    ______ ____
ROOT
ATOM      1  C   UNL     1       2.380   5.747  19.479  0.00  0.00    +0.000 A 
ATOM      2  C   UNL     1       3.352   5.802  18.457  0.00  0.00    +0.000 A 
ATOM      3  C   UNL     1       4.002   4.656  17.945  0.00  0.00    +0.000 A 
ATOM      4  C   UNL     1       3.646   3.409  18.490  0.00  0.00    +0.000 A 
ATOM      5  C   UNL     1       2.624   3.351  19.448  0.00  0.00    +0.000 A 
ATOM      6  N   UNL     1       2.037   2.285  20.077  0.00  0.00    +0.000 N 
ATOM      7  N   UNL     1       1.083   2.627  20.958  0.00  0.00    +0.000 NA
ATOM      8  C   UNL     1       1.062   3.961  20.889  0.00  0.00    +0.000 A 
ATOM      9  C   UNL     1       1.991   4.480  19.954  0.00  0.00    +0.000 A 
ATOM     10  H   UNL     1       2.233   1.301  19.940  0.00  0.00    +0.000 HD
ENDROOT
BRANCH   3  11
ATOM     11  C   UNL     1       5.042   4.790  16.892  0.00  0.00    +0.000 A 
ATOM     12  C   UNL     1       5.036   3.950  15.750  0.00  0.00    +0.000 A 
ATOM     13  C   UNL     1       6.025   4.006  14.772  0.00  0.00    +0.000 A 
ATOM     14  C   UNL     1       7.066   4.923  14.867  0.00  0.00    +0.000 A 
ATOM     15  C   UNL     1       7.070   5.783  15.969  0.00  0.00    +0.000 A 
ATOM     16  N   UNL     1       7.969   6.779  16.279  0.00  0.00    +0.000 N 
ATOM     17  C   UNL     1       7.619   7.385  17.451  0.00  0.00    +0.000 A 
ATOM     18  C   UNL     1       6.497   6.747  17.926  0.00  0.00    +0.000 A 
ATOM     19  C   UNL     1       6.105   5.741  16.984  0.00  0.00    +0.000 A 
ATOM     20  H   UNL     1       8.768   7.024  15.711  0.00  0.00    +0.000 HD
ENDBRANCH   3  11
BRANCH   1  24
ATOM     21  C   UNL     1       1.247   8.990  20.187  0.00  0.00    +0.000 A 
ATOM     22  N   UNL     1       0.705   8.408  21.237  0.00  0.00    +0.000 NA
ATOM     23  N   UNL     1       1.048   7.075  21.154  0.00  0.00    +0.000 NA
ATOM     24  C   UNL     1       1.769   6.931  20.060  0.00  0.00    +0.000 A 
ATOM     25  O   UNL     1       1.956   8.120  19.401  0.00  0.00    +0.000 OA
BRANCH  21  26
ATOM     26  C   UNL     1       1.101  10.400  19.718  0.00  0.00    +0.000 C 
BRANCH  26  30
ATOM     27  C   UNL     1      -2.981  12.256  19.794  0.00  0.00    +0.000 C 
ATOM     28  C   UNL     1      -1.931  12.498  18.714  0.00  0.00    +0.000 C 
ATOM     29  C   UNL     1      -0.501  12.174  19.190  0.00  0.00    +0.000 C 
ATOM     30  N   UNL     1      -0.256  10.716  19.227  0.00  0.00    +0.000 NA
ATOM     31  C   UNL     1      -0.443  10.213  17.852  0.00  0.00    +0.000 C 
ATOM     32  C   UNL     1      -1.871  10.486  17.334  0.00  0.00    +0.000 C 
ATOM     33  C   UNL     1      -2.905   9.529  17.920  0.00  0.00    +0.000 C 
ATOM     34  O   UNL     1      -2.267  11.860  17.472  0.00  0.00    +0.000 OA
ENDBRANCH  26  30
ENDBRANCH  21  26
ENDBRANCH   1  24
TORSDOF 4
ENDMDL
MODEL 9
REMARK VINA RESULT:      -8.8      2.550      4.331
REMARK  Name = 
REMARK  6 active torsions:
REMARK  status: ('A' for Active; 'I' for Inactive)
REMARK    1  A    between atoms: C_1  and  C_2
REMARK    2  A    between atoms: N_4  and  C_5
REMARK    3  A    between atoms: C_5  and  C_6
REMARK    4  A    between atoms: C_9  and  C_10
REMARK    5  A    between atoms: C_12  and  C_13
REMARK    6  A    between atoms: C_30  and  C_31
REMARK                            x       y       z     vdW  Elec       q    Type
REMARK                         _______ _______ _______ _____ _____    ______ ____
ROOT
ATOM      1  C   UNL     1       0.911   8.986  20.734  0.00  0.00    +0.000 A 
ATOM      2  C   UNL     1       1.286   7.631  20.860  0.00  0.00    +0.000 A 
ATOM      3  C   UNL     1       1.949   6.914  19.838  0.00  0.00    +0.000 A 
ATOM      4  C   UNL     1       2.245   7.602  18.647  0.00  0.00    +0.000 A 
ATOM      5  C   UNL     1       1.942   8.968  18.557  0.00  0.00    +0.000 A 
ATOM      6  N   UNL     1       2.183   9.882  17.565  0.00  0.00    +0.000 N 
ATOM      7  N   UNL     1       1.727  11.116  17.835  0.00  0.00    +0.000 NA
ATOM      8  C   UNL     1       1.173  10.984  19.044  0.00  0.00    +0.000 A 
ATOM      9  C   UNL     1       1.284   9.669  19.561  0.00  0.00    +0.000 A 
ATOM     10  H   UNL     1       2.664   9.731  16.688  0.00  0.00    +0.000 HD
ENDROOT
BRANCH   3  11
ATOM     11  C   UNL     1       2.284   5.478  20.024  0.00  0.00    +0.000 A 
ATOM     12  C   UNL     1       1.367   4.589  20.639  0.00  0.00    +0.000 A 
ATOM     13  C   UNL     1       1.668   3.251  20.884  0.00  0.00    +0.000 A 
ATOM     14  C   UNL     1       2.895   2.720  20.506  0.00  0.00    +0.000 A 
ATOM     15  C   UNL     1       3.800   3.573  19.867  0.00  0.00    +0.000 A 
ATOM     16  N   UNL     1       5.058   3.288  19.384  0.00  0.00    +0.000 N 
ATOM     17  C   UNL     1       5.618   4.405  18.834  0.00  0.00    +0.000 A 
ATOM     18  C   UNL     1       4.725   5.438  18.998  0.00  0.00    +0.000 A 
ATOM     19  C   UNL     1       3.541   4.929  19.624  0.00  0.00    +0.000 A 
ATOM     20  H   UNL     1       5.494   2.377  19.429  0.00  0.00    +0.000 HD
ENDBRANCH   3  11
BRANCH   1  24
ATOM     21  C   UNL     1      -0.703  11.397  22.704  0.00  0.00    +0.000 A 
ATOM     22  N   UNL     1      -1.031  10.356  23.441  0.00  0.00    +0.000 NA
ATOM     23  N   UNL     1      -0.468   9.259  22.823  0.00  0.00    +0.000 NA
ATOM     24  C   UNL     1       0.159   9.701  21.752  0.00  0.00    +0.000 A 
ATOM     25  O   UNL     1       0.070  11.063  21.623  0.00  0.00    +0.000 OA
BRANCH  21  26
ATOM     26  C   UNL     1      -1.140  12.818  22.843  0.00  0.00    +0.000 C 
BRANCH  26  30
ATOM     27  C   UNL     1      -5.388  12.681  24.273  0.00  0.00    +0.000 C 
ATOM     28  C   UNL     1      -4.657  13.943  23.826  0.00  0.00    +0.000 C 
ATOM     29  C   UNL     1      -3.123  13.798  23.890  0.00  0.00    +0.000 C 
ATOM     30  N   UNL     1      -2.605  12.991  22.764  0.00  0.00    +0.000 NA
ATOM     31  C   UNL     1      -2.981  13.693  21.523  0.00  0.00    +0.000 C 
ATOM     32  C   UNL     1      -4.511  13.840  21.391  0.00  0.00    +0.000 C 
ATOM     33  C   UNL     1      -5.196  12.544  20.971  0.00  0.00    +0.000 C 
ATOM     34  O   UNL     1      -5.122  14.423  22.555  0.00  0.00    +0.000 OA
ENDBRANCH  26  30
ENDBRANCH  21  26
ENDBRANCH   1  24
TORSDOF 4
ENDMDL
