MODEL 1
REMARK VINA RESULT:      -7.4      0.000      0.000
REMARK  Name = 
REMARK  12 active torsions:
REMARK  status: ('A' for Active; 'I' for Inactive)
REMARK    1  A    between atoms: C_1  and  O_2
REMARK    2  A    between atoms: O_2  and  C_3
REMARK    3  A    between atoms: C_3  and  C_4
REMARK    4  A    between atoms: C_4  and  O_5
REMARK    5  A    between atoms: O_5  and  C_6
REMARK    6  A    between atoms: N_13  and  C_14
REMARK    7  A    between atoms: C_20  and  O_21
REMARK    8  A    between atoms: O_21  and  C_22
REMARK    9  A    between atoms: C_22  and  C_23
REMARK   10  A    between atoms: C_22  and  C_24
REMARK   11  A    between atoms: C_29  and  O_30
REMARK   12  A    between atoms: O_30  and  C_31
REMARK                            x       y       z     vdW  Elec       q    Type
REMARK                         _______ _______ _______ _____ _____    ______ ____
ROOT
ATOM      1  C   UNL     1       4.899   4.750  17.195  0.00  0.00    +0.000 A 
ATOM      2  C   UNL     1       3.990   4.100  18.060  0.00  0.00    +0.000 A 
ATOM      3  C   UNL     1       3.109   4.768  18.907  0.00  0.00    +0.000 A 
ATOM      4  N   UNL     1       2.312   4.073  19.726  0.00  0.00    +0.000 NA
ATOM      5  C   UNL     1       1.500   4.777  20.522  0.00  0.00    +0.000 A 
ATOM      6  N   UNL     1       1.394   6.109  20.563  0.00  0.00    +0.000 NA
ATOM      7  C   UNL     1       2.194   6.808  19.735  0.00  0.00    +0.000 A 
ATOM      8  N   UNL     1       2.156   8.224  19.757  0.00  0.00    +0.000 N 
ATOM      9  C   UNL     1       3.110   6.164  18.877  0.00  0.00    +0.000 A 
ATOM     10  C   UNL     1       4.015   6.830  18.023  0.00  0.00    +0.000 A 
ATOM     11  C   UNL     1       4.898   6.150  17.166  0.00  0.00    +0.000 A 
ATOM     12  H   UNL     1       2.204   8.627  18.820  0.00  0.00    +0.000 HD
ENDROOT
BRANCH   8  13
ATOM     13  C   UNL     1       1.400   9.026  20.599  0.00  0.00    +0.000 C 
ATOM     14  C   UNL     1       1.143   8.825  21.903  0.00  0.00    +0.000 C 
ATOM     15  C   UNL     1       0.292   9.716  22.690  0.00  0.00    +0.000 C 
ATOM     16  O   UNL     1       0.242   9.592  23.906  0.00  0.00    +0.000 OA
ATOM     17  C   UNL     1      -0.509  10.710  21.937  0.00  0.00    +0.000 C 
ATOM     18 CL   UNL     1      -1.811  11.455  22.804  0.00  0.00    +0.000 Cl
ATOM     19  C   UNL     1      -0.267  10.989  20.647  0.00  0.00    +0.000 C 
ATOM     20  C   UNL     1       0.873  10.293  19.976  0.00  0.00    +0.000 C 
ATOM     21  O   UNL     1       1.355  10.675  18.912  0.00  0.00    +0.000 OA
BRANCH  19  22
ATOM     22  O   UNL     1      -1.065  11.920  19.994  0.00  0.00    +0.000 OA
BRANCH  22  23
ATOM     23  C   UNL     1      -2.177  11.491  19.199  0.00  0.00    +0.000 C 
ATOM     24  C   UNL     1      -3.473  12.228  19.538  0.00  0.00    +0.000 C 
ATOM     25  C   UNL     1      -1.795  11.803  17.750  0.00  0.00    +0.000 C 
ENDBRANCH  22  23
ENDBRANCH  19  22
ENDBRANCH   8  13
BRANCH  11  26
ATOM     26  O   UNL     1       5.719   7.043  16.542  0.00  0.00    +0.000 OA
ATOM     27  C   UNL     1       6.932   7.467  17.138  0.00  0.00    +0.000 C 
ENDBRANCH  11  26
BRANCH   1  28
ATOM     28  O   UNL     1       5.692   3.838  16.545  0.00  0.00    +0.000 OA
BRANCH  28  29
ATOM     29  C   UNL     1       5.477   3.665  15.159  0.00  0.00    +0.000 C 
BRANCH  29  30
ATOM     30  C   UNL     1       6.438   4.457  14.284  0.00  0.00    +0.000 C 
BRANCH  30  32
ATOM     31  C   UNL     1       5.449   3.436  12.376  0.00  0.00    +0.000 C 
ATOM     32  O   UNL     1       6.629   3.654  13.111  0.00  0.00    +0.000 OA
ENDBRANCH  30  32
ENDBRANCH  29  30
ENDBRANCH  28  29
ENDBRANCH   1  28
TORSDOF 8
ENDMDL
MODEL 2
REMARK VINA RESULT:      -7.0      1.341      2.046
REMARK  Name = 
REMARK  12 active torsions:
REMARK  status: ('A' for Active; 'I' for Inactive)
REMARK    1  A    between atoms: C_1  and  O_2
REMARK    2  A    between atoms: O_2  and  C_3
REMARK    3  A    between atoms: C_3  and  C_4
REMARK    4  A    between atoms: C_4  and  O_5
REMARK    5  A    between atoms: O_5  and  C_6
REMARK    6  A    between atoms: N_13  and  C_14
REMARK    7  A    between atoms: C_20  and  O_21
REMARK    8  A    between atoms: O_21  and  C_22
REMARK    9  A    between atoms: C_22  and  C_23
REMARK   10  A    between atoms: C_22  and  C_24
REMARK   11  A    between atoms: C_29  and  O_30
REMARK   12  A    between atoms: O_30  and  C_31
REMARK                            x       y       z     vdW  Elec       q    Type
REMARK                         _______ _______ _______ _____ _____    ______ ____
ROOT
ATOM      1  C   UNL     1       4.602   4.666  17.038  0.00  0.00    +0.000 A 
ATOM      2  C   UNL     1       3.908   4.026  18.090  0.00  0.00    +0.000 A 
ATOM      3  C   UNL     1       3.109   4.693  19.015  0.00  0.00    +0.000 A 
ATOM      4  N   UNL     1       2.522   4.014  20.006  0.00  0.00    +0.000 NA
ATOM      5  C   UNL     1       1.781   4.719  20.867  0.00  0.00    +0.000 A 
ATOM      6  N   UNL     1       1.551   6.035  20.819  0.00  0.00    +0.000 NA
ATOM      7  C   UNL     1       2.139   6.718  19.818  0.00  0.00    +0.000 A 
ATOM      8  N   UNL     1       1.965   8.122  19.734  0.00  0.00    +0.000 N 
ATOM      9  C   UNL     1       2.967   6.075  18.874  0.00  0.00    +0.000 A 
ATOM     10  C   UNL     1       3.658   6.733  17.833  0.00  0.00    +0.000 A 
ATOM     11  C   UNL     1       4.458   6.052  16.899  0.00  0.00    +0.000 A 
ATOM     12  H   UNL     1       1.826   8.438  18.773  0.00  0.00    +0.000 HD
ENDROOT
BRANCH   8  13
ATOM     13  C   UNL     1       1.275   8.932  20.623  0.00  0.00    +0.000 C 
ATOM     14  C   UNL     1       1.161   8.772  21.952  0.00  0.00    +0.000 C 
ATOM     15  C   UNL     1       0.368   9.668  22.794  0.00  0.00    +0.000 C 
ATOM     16  O   UNL     1       0.446   9.586  24.012  0.00  0.00    +0.000 OA
ATOM     17  C   UNL     1      -0.537  10.611  22.095  0.00  0.00    +0.000 C 
ATOM     18 CL   UNL     1      -1.765  11.352  23.067  0.00  0.00    +0.000 Cl
ATOM     19  C   UNL     1      -0.437  10.851  20.779  0.00  0.00    +0.000 C 
ATOM     20  C   UNL     1       0.649  10.162  20.016  0.00  0.00    +0.000 C 
ATOM     21  O   UNL     1       1.007  10.518  18.896  0.00  0.00    +0.000 OA
BRANCH  19  22
ATOM     22  O   UNL     1      -1.326  11.735  20.181  0.00  0.00    +0.000 OA
BRANCH  22  23
ATOM     23  C   UNL     1      -1.015  13.132  20.101  0.00  0.00    +0.000 C 
ATOM     24  C   UNL     1      -0.586  13.569  18.699  0.00  0.00    +0.000 C 
ATOM     25  C   UNL     1      -2.306  13.865  20.474  0.00  0.00    +0.000 C 
ENDBRANCH  22  23
ENDBRANCH  19  22
ENDBRANCH   8  13
BRANCH  11  26
ATOM     26  O   UNL     1       5.079   6.948  16.080  0.00  0.00    +0.000 OA
ATOM     27  C   UNL     1       5.330   6.648  14.718  0.00  0.00    +0.000 C 
ENDBRANCH  11  26
BRANCH   1  28
ATOM     28  O   UNL     1       5.368   3.766  16.341  0.00  0.00    +0.000 OA
BRANCH  28  29
ATOM     29  C   UNL     1       6.756   4.018  16.267  0.00  0.00    +0.000 C 
BRANCH  29  30
ATOM     30  C   UNL     1       7.353   4.563  17.556  0.00  0.00    +0.000 C 
BRANCH  30  32
ATOM     31  C   UNL     1       7.880   6.743  18.351  0.00  0.00    +0.000 C 
ATOM     32  O   UNL     1       7.798   5.888  17.236  0.00  0.00    +0.000 OA
ENDBRANCH  30  32
ENDBRANCH  29  30
ENDBRANCH  28  29
ENDBRANCH   1  28
TORSDOF 8
ENDMDL
MODEL 3
REMARK VINA RESULT:      -6.9      3.502      9.401
REMARK  Name = 
REMARK  12 active torsions:
REMARK  status: ('A' for Active; 'I' for Inactive)
REMARK    1  A    between atoms: C_1  and  O_2
REMARK    2  A    between atoms: O_2  and  C_3
REMARK    3  A    between atoms: C_3  and  C_4
REMARK    4  A    between atoms: C_4  and  O_5
REMARK    5  A    between atoms: O_5  and  C_6
REMARK    6  A    between atoms: N_13  and  C_14
REMARK    7  A    between atoms: C_20  and  O_21
REMARK    8  A    between atoms: O_21  and  C_22
REMARK    9  A    between atoms: C_22  and  C_23
REMARK   10  A    between atoms: C_22  and  C_24
REMARK   11  A    between atoms: C_29  and  O_30
REMARK   12  A    between atoms: O_30  and  C_31
REMARK                            x       y       z     vdW  Elec       q    Type
REMARK                         _______ _______ _______ _____ _____    ______ ____
ROOT
ATOM      1  C   UNL     1      -2.952  11.384  17.951  0.00  0.00    +0.000 A 
ATOM      2  C   UNL     1      -2.088  11.795  18.991  0.00  0.00    +0.000 A 
ATOM      3  C   UNL     1      -0.855  11.204  19.257  0.00  0.00    +0.000 A 
ATOM      4  N   UNL     1      -0.118  11.628  20.290  0.00  0.00    +0.000 NA
ATOM      5  C   UNL     1       1.048  11.007  20.496  0.00  0.00    +0.000 A 
ATOM      6  N   UNL     1       1.559  10.018  19.756  0.00  0.00    +0.000 NA
ATOM      7  C   UNL     1       0.819   9.594  18.714  0.00  0.00    +0.000 A 
ATOM      8  N   UNL     1       1.288   8.524  17.913  0.00  0.00    +0.000 N 
ATOM      9  C   UNL     1      -0.442  10.160  18.427  0.00  0.00    +0.000 A 
ATOM     10  C   UNL     1      -1.295   9.732  17.386  0.00  0.00    +0.000 A 
ATOM     11  C   UNL     1      -2.536  10.338  17.120  0.00  0.00    +0.000 A 
ATOM     12  H   UNL     1       1.118   8.681  16.919  0.00  0.00    +0.000 HD
ENDROOT
BRANCH   8  13
ATOM     13  C   UNL     1       2.445   7.784  18.103  0.00  0.00    +0.000 C 
ATOM     14  C   UNL     1       3.582   7.849  17.389  0.00  0.00    +0.000 C 
ATOM     15  C   UNL     1       4.733   6.987  17.651  0.00  0.00    +0.000 C 
ATOM     16  O   UNL     1       5.800   7.213  17.097  0.00  0.00    +0.000 OA
ATOM     17  C   UNL     1       4.513   5.839  18.562  0.00  0.00    +0.000 C 
ATOM     18 CL   UNL     1       5.722   4.599  18.533  0.00  0.00    +0.000 Cl
ATOM     19  C   UNL     1       3.422   5.744  19.337  0.00  0.00    +0.000 C 
ATOM     20  C   UNL     1       2.425   6.858  19.293  0.00  0.00    +0.000 C 
ATOM     21  O   UNL     1       1.558   7.012  20.149  0.00  0.00    +0.000 OA
BRANCH  19  22
ATOM     22  O   UNL     1       3.267   4.634  20.157  0.00  0.00    +0.000 OA
BRANCH  22  23
ATOM     23  C   UNL     1       2.416   3.552  19.761  0.00  0.00    +0.000 C 
ATOM     24  C   UNL     1       3.146   2.209  19.700  0.00  0.00    +0.000 C 
ATOM     25  C   UNL     1       1.323   3.472  20.829  0.00  0.00    +0.000 C 
ENDBRANCH  22  23
ENDBRANCH  19  22
ENDBRANCH   8  13
BRANCH  11  26
ATOM     26  O   UNL     1      -3.182   9.654  16.133  0.00  0.00    +0.000 OA
ATOM     27  C   UNL     1      -3.564  10.290  14.925  0.00  0.00    +0.000 C 
ENDBRANCH  11  26
BRANCH   1  28
ATOM     28  O   UNL     1      -4.126  12.096  17.983  0.00  0.00    +0.000 OA
BRANCH  28  29
ATOM     29  C   UNL     1      -5.183  11.566  18.755  0.00  0.00    +0.000 C 
BRANCH  29  30
ATOM     30  C   UNL     1      -5.728  12.531  19.798  0.00  0.00    +0.000 C 
BRANCH  30  32
ATOM     31  C   UNL     1      -7.476  11.124  20.588  0.00  0.00    +0.000 C 
ATOM     32  O   UNL     1      -6.222  11.702  20.859  0.00  0.00    +0.000 OA
ENDBRANCH  30  32
ENDBRANCH  29  30
ENDBRANCH  28  29
ENDBRANCH   1  28
TORSDOF 8
ENDMDL
MODEL 4
REMARK VINA RESULT:      -6.7      3.009      9.454
REMARK  Name = 
REMARK  12 active torsions:
REMARK  status: ('A' for Active; 'I' for Inactive)
REMARK    1  A    between atoms: C_1  and  O_2
REMARK    2  A    between atoms: O_2  and  C_3
REMARK    3  A    between atoms: C_3  and  C_4
REMARK    4  A    between atoms: C_4  and  O_5
REMARK    5  A    between atoms: O_5  and  C_6
REMARK    6  A    between atoms: N_13  and  C_14
REMARK    7  A    between atoms: C_20  and  O_21
REMARK    8  A    between atoms: O_21  and  C_22
REMARK    9  A    between atoms: C_22  and  C_23
REMARK   10  A    between atoms: C_22  and  C_24
REMARK   11  A    between atoms: C_29  and  O_30
REMARK   12  A    between atoms: O_30  and  C_31
REMARK                            x       y       z     vdW  Elec       q    Type
REMARK                         _______ _______ _______ _____ _____    ______ ____
ROOT
ATOM      1  C   UNL     1      -1.436  12.433  20.289  0.00  0.00    +0.000 A 
ATOM      2  C   UNL     1      -0.979  11.915  21.522  0.00  0.00    +0.000 A 
ATOM      3  C   UNL     1      -0.187  10.777  21.642  0.00  0.00    +0.000 A 
ATOM      4  N   UNL     1       0.166  10.331  22.854  0.00  0.00    +0.000 NA
ATOM      5  C   UNL     1       0.916   9.225  22.897  0.00  0.00    +0.000 A 
ATOM      6  N   UNL     1       1.366   8.534  21.845  0.00  0.00    +0.000 NA
ATOM      7  C   UNL     1       1.014   8.985  20.625  0.00  0.00    +0.000 A 
ATOM      8  N   UNL     1       1.428   8.275  19.471  0.00  0.00    +0.000 N 
ATOM      9  C   UNL     1       0.199  10.126  20.469  0.00  0.00    +0.000 A 
ATOM     10  C   UNL     1      -0.254  10.625  19.228  0.00  0.00    +0.000 A 
ATOM     11  C   UNL     1      -1.049  11.779  19.113  0.00  0.00    +0.000 A 
ATOM     12  H   UNL     1       1.723   8.898  18.718  0.00  0.00    +0.000 HD
ENDROOT
BRANCH   8  13
ATOM     13  C   UNL     1       2.141   7.087  19.434  0.00  0.00    +0.000 C 
ATOM     14  C   UNL     1       1.965   6.004  20.211  0.00  0.00    +0.000 C 
ATOM     15  C   UNL     1       2.808   4.813  20.115  0.00  0.00    +0.000 C 
ATOM     16  O   UNL     1       2.491   3.794  20.713  0.00  0.00    +0.000 OA
ATOM     17  C   UNL     1       4.048   4.937  19.313  0.00  0.00    +0.000 C 
ATOM     18 CL   UNL     1       5.236   3.698  19.547  0.00  0.00    +0.000 Cl
ATOM     19  C   UNL     1       4.258   5.969  18.481  0.00  0.00    +0.000 C 
ATOM     20  C   UNL     1       3.180   6.997  18.345  0.00  0.00    +0.000 C 
ATOM     21  O   UNL     1       3.143   7.806  17.422  0.00  0.00    +0.000 OA
BRANCH  19  22
ATOM     22  O   UNL     1       5.448   6.034  17.768  0.00  0.00    +0.000 OA
BRANCH  22  23
ATOM     23  C   UNL     1       5.638   5.230  16.598  0.00  0.00    +0.000 C 
ATOM     24  C   UNL     1       5.366   5.991  15.299  0.00  0.00    +0.000 C 
ATOM     25  C   UNL     1       7.108   4.803  16.622  0.00  0.00    +0.000 C 
ENDBRANCH  22  23
ENDBRANCH  19  22
ENDBRANCH   8  13
BRANCH  11  26
ATOM     26  O   UNL     1      -1.417  11.960  17.813  0.00  0.00    +0.000 OA
ATOM     27  C   UNL     1      -2.525  11.272  17.259  0.00  0.00    +0.000 C 
ENDBRANCH  11  26
BRANCH   1  28
ATOM     28  O   UNL     1      -2.261  13.512  20.488  0.00  0.00    +0.000 OA
BRANCH  28  29
ATOM     29  C   UNL     1      -3.653  13.278  20.454  0.00  0.00    +0.000 C 
BRANCH  29  30
ATOM     30  C   UNL     1      -4.350  13.505  21.788  0.00  0.00    +0.000 C 
BRANCH  30  32
ATOM     31  C   UNL     1      -3.987  15.581  22.892  0.00  0.00    +0.000 C 
ATOM     32  O   UNL     1      -3.452  14.325  22.548  0.00  0.00    +0.000 OA
ENDBRANCH  30  32
ENDBRANCH  29  30
ENDBRANCH  28  29
ENDBRANCH   1  28
TORSDOF 8
ENDMDL
MODEL 5
REMARK VINA RESULT:      -6.6      3.232      9.228
REMARK  Name = 
REMARK  12 active torsions:
REMARK  status: ('A' for Active; 'I' for Inactive)
REMARK    1  A    between atoms: C_1  and  O_2
REMARK    2  A    between atoms: O_2  and  C_3
REMARK    3  A    between atoms: C_3  and  C_4
REMARK    4  A    between atoms: C_4  and  O_5
REMARK    5  A    between atoms: O_5  and  C_6
REMARK    6  A    between atoms: N_13  and  C_14
REMARK    7  A    between atoms: C_20  and  O_21
REMARK    8  A    between atoms: O_21  and  C_22
REMARK    9  A    between atoms: C_22  and  C_23
REMARK   10  A    between atoms: C_22  and  C_24
REMARK   11  A    between atoms: C_29  and  O_30
REMARK   12  A    between atoms: O_30  and  C_31
REMARK                            x       y       z     vdW  Elec       q    Type
REMARK                         _______ _______ _______ _____ _____    ______ ____
ROOT
ATOM      1  C   UNL     1      -1.177  12.493  20.280  0.00  0.00    +0.000 A 
ATOM      2  C   UNL     1      -0.749  11.950  21.512  0.00  0.00    +0.000 A 
ATOM      3  C   UNL     1      -0.008  10.777  21.630  0.00  0.00    +0.000 A 
ATOM      4  N   UNL     1       0.319  10.311  22.840  0.00  0.00    +0.000 NA
ATOM      5  C   UNL     1       1.019   9.172  22.881  0.00  0.00    +0.000 A 
ATOM      6  N   UNL     1       1.442   8.466  21.828  0.00  0.00    +0.000 NA
ATOM      7  C   UNL     1       1.115   8.937  20.609  0.00  0.00    +0.000 A 
ATOM      8  N   UNL     1       1.501   8.215  19.453  0.00  0.00    +0.000 N 
ATOM      9  C   UNL     1       0.352  10.114  20.455  0.00  0.00    +0.000 A 
ATOM     10  C   UNL     1      -0.072  10.639  19.214  0.00  0.00    +0.000 A 
ATOM     11  C   UNL     1      -0.815  11.828  19.102  0.00  0.00    +0.000 A 
ATOM     12  H   UNL     1       1.827   8.828  18.704  0.00  0.00    +0.000 HD
ENDROOT
BRANCH   8  13
ATOM     13  C   UNL     1       2.161   6.996  19.413  0.00  0.00    +0.000 C 
ATOM     14  C   UNL     1       1.932   5.918  20.183  0.00  0.00    +0.000 C 
ATOM     15  C   UNL     1       2.721   4.692  20.085  0.00  0.00    +0.000 C 
ATOM     16  O   UNL     1       2.356   3.684  20.675  0.00  0.00    +0.000 OA
ATOM     17  C   UNL     1       3.970   4.764  19.290  0.00  0.00    +0.000 C 
ATOM     18 CL   UNL     1       5.100   3.472  19.524  0.00  0.00    +0.000 Cl
ATOM     19  C   UNL     1       4.231   5.790  18.465  0.00  0.00    +0.000 C 
ATOM     20  C   UNL     1       3.201   6.866  18.330  0.00  0.00    +0.000 C 
ATOM     21  O   UNL     1       3.205   7.681  17.411  0.00  0.00    +0.000 OA
BRANCH  19  22
ATOM     22  O   UNL     1       5.427   5.806  17.759  0.00  0.00    +0.000 OA
BRANCH  22  23
ATOM     23  C   UNL     1       6.585   6.446  18.309  0.00  0.00    +0.000 C 
ATOM     24  C   UNL     1       7.674   5.456  18.726  0.00  0.00    +0.000 C 
ATOM     25  C   UNL     1       7.132   7.341  17.194  0.00  0.00    +0.000 C 
ENDBRANCH  22  23
ENDBRANCH  19  22
ENDBRANCH   8  13
BRANCH  11  26
ATOM     26  O   UNL     1      -1.170  12.032  17.802  0.00  0.00    +0.000 OA
ATOM     27  C   UNL     1      -2.142  11.218  17.168  0.00  0.00    +0.000 C 
ENDBRANCH  11  26
BRANCH   1  28
ATOM     28  O   UNL     1      -1.953  13.607  20.481  0.00  0.00    +0.000 OA
BRANCH  28  29
ATOM     29  C   UNL     1      -3.190  13.424  21.138  0.00  0.00    +0.000 C 
BRANCH  29  30
ATOM     30  C   UNL     1      -4.210  12.639  20.325  0.00  0.00    +0.000 C 
BRANCH  30  32
ATOM     31  C   UNL     1      -6.449  11.872  20.563  0.00  0.00    +0.000 C 
ATOM     32  O   UNL     1      -5.365  12.535  21.168  0.00  0.00    +0.000 OA
ENDBRANCH  30  32
ENDBRANCH  29  30
ENDBRANCH  28  29
ENDBRANCH   1  28
TORSDOF 8
ENDMDL
MODEL 6
REMARK VINA RESULT:      -6.6      3.479      9.198
REMARK  Name = 
REMARK  12 active torsions:
REMARK  status: ('A' for Active; 'I' for Inactive)
REMARK    1  A    between atoms: C_1  and  O_2
REMARK    2  A    between atoms: O_2  and  C_3
REMARK    3  A    between atoms: C_3  and  C_4
REMARK    4  A    between atoms: C_4  and  O_5
REMARK    5  A    between atoms: O_5  and  C_6
REMARK    6  A    between atoms: N_13  and  C_14
REMARK    7  A    between atoms: C_20  and  O_21
REMARK    8  A    between atoms: O_21  and  C_22
REMARK    9  A    between atoms: C_22  and  C_23
REMARK   10  A    between atoms: C_22  and  C_24
REMARK   11  A    between atoms: C_29  and  O_30
REMARK   12  A    between atoms: O_30  and  C_31
REMARK                            x       y       z     vdW  Elec       q    Type
REMARK                         _______ _______ _______ _____ _____    ______ ____
ROOT
ATOM      1  C   UNL     1      -2.939  11.357  17.997  0.00  0.00    +0.000 A 
ATOM      2  C   UNL     1      -2.092  11.727  19.066  0.00  0.00    +0.000 A 
ATOM      3  C   UNL     1      -0.869  11.120  19.336  0.00  0.00    +0.000 A 
ATOM      4  N   UNL     1      -0.150  11.506  20.396  0.00  0.00    +0.000 NA
ATOM      5  C   UNL     1       1.009  10.872  20.605  0.00  0.00    +0.000 A 
ATOM      6  N   UNL     1       1.529   9.904  19.843  0.00  0.00    +0.000 NA
ATOM      7  C   UNL     1       0.806   9.519  18.774  0.00  0.00    +0.000 A 
ATOM      8  N   UNL     1       1.285   8.471  17.947  0.00  0.00    +0.000 N 
ATOM      9  C   UNL     1      -0.445  10.102  18.480  0.00  0.00    +0.000 A 
ATOM     10  C   UNL     1      -1.280   9.713  17.410  0.00  0.00    +0.000 A 
ATOM     11  C   UNL     1      -2.512  10.335  17.139  0.00  0.00    +0.000 A 
ATOM     12  H   UNL     1       1.135   8.662  16.956  0.00  0.00    +0.000 HD
ENDROOT
BRANCH   8  13
ATOM     13  C   UNL     1       2.434   7.719  18.136  0.00  0.00    +0.000 C 
ATOM     14  C   UNL     1       3.574   7.779  17.428  0.00  0.00    +0.000 C 
ATOM     15  C   UNL     1       4.716   6.903  17.686  0.00  0.00    +0.000 C 
ATOM     16  O   UNL     1       5.788   7.123  17.139  0.00  0.00    +0.000 OA
ATOM     17  C   UNL     1       4.480   5.749  18.586  0.00  0.00    +0.000 C 
ATOM     18 CL   UNL     1       5.677   4.497  18.551  0.00  0.00    +0.000 Cl
ATOM     19  C   UNL     1       3.385   5.658  19.355  0.00  0.00    +0.000 C 
ATOM     20  C   UNL     1       2.400   6.783  19.317  0.00  0.00    +0.000 C 
ATOM     21  O   UNL     1       1.531   6.938  20.171  0.00  0.00    +0.000 OA
BRANCH  19  22
ATOM     22  O   UNL     1       3.216   4.543  20.165  0.00  0.00    +0.000 OA
BRANCH  22  23
ATOM     23  C   UNL     1       2.306   3.502  19.786  0.00  0.00    +0.000 C 
ATOM     24  C   UNL     1       1.005   3.524  20.590  0.00  0.00    +0.000 C 
ATOM     25  C   UNL     1       1.981   3.755  18.312  0.00  0.00    +0.000 C 
ENDBRANCH  22  23
ENDBRANCH  19  22
ENDBRANCH   8  13
BRANCH  11  26
ATOM     26  O   UNL     1      -3.143   9.688  16.119  0.00  0.00    +0.000 OA
ATOM     27  C   UNL     1      -3.081  10.175  14.789  0.00  0.00    +0.000 C 
ENDBRANCH  11  26
BRANCH   1  28
ATOM     28  O   UNL     1      -4.108  12.074  18.029  0.00  0.00    +0.000 OA
BRANCH  28  29
ATOM     29  C   UNL     1      -5.256  11.465  17.476  0.00  0.00    +0.000 C 
BRANCH  29  30
ATOM     30  C   UNL     1      -6.268  11.001  18.513  0.00  0.00    +0.000 C 
BRANCH  30  32
ATOM     31  C   UNL     1      -7.269  12.854  17.407  0.00  0.00    +0.000 C 
ATOM     32  O   UNL     1      -7.275  12.021  18.541  0.00  0.00    +0.000 OA
ENDBRANCH  30  32
ENDBRANCH  29  30
ENDBRANCH  28  29
ENDBRANCH   1  28
TORSDOF 8
ENDMDL
MODEL 7
REMARK VINA RESULT:      -6.6      2.576      3.932
REMARK  Name = 
REMARK  12 active torsions:
REMARK  status: ('A' for Active; 'I' for Inactive)
REMARK    1  A    between atoms: C_1  and  O_2
REMARK    2  A    between atoms: O_2  and  C_3
REMARK    3  A    between atoms: C_3  and  C_4
REMARK    4  A    between atoms: C_4  and  O_5
REMARK    5  A    between atoms: O_5  and  C_6
REMARK    6  A    between atoms: N_13  and  C_14
REMARK    7  A    between atoms: C_20  and  O_21
REMARK    8  A    between atoms: O_21  and  C_22
REMARK    9  A    between atoms: C_22  and  C_23
REMARK   10  A    between atoms: C_22  and  C_24
REMARK   11  A    between atoms: C_29  and  O_30
REMARK   12  A    between atoms: O_30  and  C_31
REMARK                            x       y       z     vdW  Elec       q    Type
REMARK                         _______ _______ _______ _____ _____    ______ ____
ROOT
ATOM      1  C   UNL     1       3.560   5.377  18.628  0.00  0.00    +0.000 A 
ATOM      2  C   UNL     1       2.767   5.651  19.765  0.00  0.00    +0.000 A 
ATOM      3  C   UNL     1       2.132   6.869  19.995  0.00  0.00    +0.000 A 
ATOM      4  N   UNL     1       1.435   7.058  21.120  0.00  0.00    +0.000 NA
ATOM      5  C   UNL     1       0.862   8.255  21.284  0.00  0.00    +0.000 A 
ATOM      6  N   UNL     1       0.900   9.274  20.419  0.00  0.00    +0.000 NA
ATOM      7  C   UNL     1       1.599   9.082  19.284  0.00  0.00    +0.000 A 
ATOM      8  N   UNL     1       1.710  10.137  18.344  0.00  0.00    +0.000 N 
ATOM      9  C   UNL     1       2.268   7.866  19.027  0.00  0.00    +0.000 A 
ATOM     10  C   UNL     1       3.062   7.612  17.887  0.00  0.00    +0.000 A 
ATOM     11  C   UNL     1       3.696   6.378  17.659  0.00  0.00    +0.000 A 
ATOM     12  H   UNL     1       1.623   9.807  17.381  0.00  0.00    +0.000 HD
ENDROOT
BRANCH   8  13
ATOM     13  C   UNL     1       1.209  11.423  18.471  0.00  0.00    +0.000 C 
ATOM     14  C   UNL     1       1.910  12.567  18.557  0.00  0.00    +0.000 C 
ATOM     15  C   UNL     1       1.278  13.873  18.734  0.00  0.00    +0.000 C 
ATOM     16  O   UNL     1       1.946  14.892  18.622  0.00  0.00    +0.000 OA
ATOM     17  C   UNL     1      -0.161  13.875  19.090  0.00  0.00    +0.000 C 
ATOM     18 CL   UNL     1      -0.791  15.365  19.710  0.00  0.00    +0.000 Cl
ATOM     19  C   UNL     1      -0.924  12.778  18.976  0.00  0.00    +0.000 C 
ATOM     20  C   UNL     1      -0.294  11.532  18.437  0.00  0.00    +0.000 C 
ATOM     21  O   UNL     1      -0.948  10.577  18.028  0.00  0.00    +0.000 OA
BRANCH  19  22
ATOM     22  O   UNL     1      -2.262  12.841  19.341  0.00  0.00    +0.000 OA
BRANCH  22  23
ATOM     23  C   UNL     1      -2.694  12.325  20.605  0.00  0.00    +0.000 C 
ATOM     24  C   UNL     1      -1.572  12.271  21.643  0.00  0.00    +0.000 C 
ATOM     25  C   UNL     1      -3.776  13.290  21.098  0.00  0.00    +0.000 C 
ENDBRANCH  22  23
ENDBRANCH  19  22
ENDBRANCH   8  13
BRANCH  11  26
ATOM     26  O   UNL     1       4.472   6.456  16.540  0.00  0.00    +0.000 OA
ATOM     27  C   UNL     1       5.882   6.335  16.613  0.00  0.00    +0.000 C 
ENDBRANCH  11  26
BRANCH   1  28
ATOM     28  O   UNL     1       4.121   4.127  18.714  0.00  0.00    +0.000 OA
BRANCH  28  29
ATOM     29  C   UNL     1       3.250   3.043  18.963  0.00  0.00    +0.000 C 
BRANCH  29  30
ATOM     30  C   UNL     1       2.640   2.441  17.705  0.00  0.00    +0.000 C 
BRANCH  30  32
ATOM     31  C   UNL     1       0.883   2.689  19.290  0.00  0.00    +0.000 C 
ATOM     32  O   UNL     1       1.273   2.168  18.042  0.00  0.00    +0.000 OA
ENDBRANCH  30  32
ENDBRANCH  29  30
ENDBRANCH  28  29
ENDBRANCH   1  28
TORSDOF 8
ENDMDL
MODEL 8
REMARK VINA RESULT:      -6.5      2.921      4.386
REMARK  Name = 
REMARK  12 active torsions:
REMARK  status: ('A' for Active; 'I' for Inactive)
REMARK    1  A    between atoms: C_1  and  O_2
REMARK    2  A    between atoms: O_2  and  C_3
REMARK    3  A    between atoms: C_3  and  C_4
REMARK    4  A    between atoms: C_4  and  O_5
REMARK    5  A    between atoms: O_5  and  C_6
REMARK    6  A    between atoms: N_13  and  C_14
REMARK    7  A    between atoms: C_20  and  O_21
REMARK    8  A    between atoms: O_21  and  C_22
REMARK    9  A    between atoms: C_22  and  C_23
REMARK   10  A    between atoms: C_22  and  C_24
REMARK   11  A    between atoms: C_29  and  O_30
REMARK   12  A    between atoms: O_30  and  C_31
REMARK                            x       y       z     vdW  Elec       q    Type
REMARK                         _______ _______ _______ _____ _____    ______ ____
ROOT
ATOM      1  C   UNL     1       3.631   4.324  19.776  0.00  0.00    +0.000 A 
ATOM      2  C   UNL     1       3.908   5.218  18.717  0.00  0.00    +0.000 A 
ATOM      3  C   UNL     1       3.304   6.465  18.573  0.00  0.00    +0.000 A 
ATOM      4  N   UNL     1       3.594   7.231  17.515  0.00  0.00    +0.000 NA
ATOM      5  C   UNL     1       2.968   8.409  17.431  0.00  0.00    +0.000 A 
ATOM      6  N   UNL     1       2.097   8.906  18.315  0.00  0.00    +0.000 NA
ATOM      7  C   UNL     1       1.808   8.136  19.382  0.00  0.00    +0.000 A 
ATOM      8  N   UNL     1       0.863   8.589  20.336  0.00  0.00    +0.000 N 
ATOM      9  C   UNL     1       2.390   6.861  19.551  0.00  0.00    +0.000 A 
ATOM     10  C   UNL     1       2.095   5.979  20.613  0.00  0.00    +0.000 A 
ATOM     11  C   UNL     1       2.713   4.724  20.756  0.00  0.00    +0.000 A 
ATOM     12  H   UNL     1       1.153   8.385  21.294  0.00  0.00    +0.000 HD
ENDROOT
BRANCH   8  13
ATOM     13  C   UNL     1       0.121   9.759  20.285  0.00  0.00    +0.000 C 
ATOM     14  C   UNL     1      -0.872  10.058  19.430  0.00  0.00    +0.000 C 
ATOM     15  C   UNL     1      -1.563  11.347  19.437  0.00  0.00    +0.000 C 
ATOM     16  O   UNL     1      -2.575  11.499  18.766  0.00  0.00    +0.000 OA
ATOM     17  C   UNL     1      -0.948  12.429  20.243  0.00  0.00    +0.000 C 
ATOM     18 CL   UNL     1      -1.506  14.036  19.915  0.00  0.00    +0.000 Cl
ATOM     19  C   UNL     1       0.012  12.185  21.148  0.00  0.00    +0.000 C 
ATOM     20  C   UNL     1       0.437  10.766  21.361  0.00  0.00    +0.000 C 
ATOM     21  O   UNL     1       1.082  10.403  22.341  0.00  0.00    +0.000 OA
BRANCH  19  22
ATOM     22  O   UNL     1       0.558  13.244  21.860  0.00  0.00    +0.000 OA
BRANCH  22  23
ATOM     23  C   UNL     1       1.350  14.234  21.194  0.00  0.00    +0.000 C 
ATOM     24  C   UNL     1       1.742  15.399  22.105  0.00  0.00    +0.000 C 
ATOM     25  C   UNL     1       2.621  13.511  20.742  0.00  0.00    +0.000 C 
ENDBRANCH  22  23
ENDBRANCH  19  22
ENDBRANCH   8  13
BRANCH  11  26
ATOM     26  O   UNL     1       2.161   4.053  21.806  0.00  0.00    +0.000 OA
ATOM     27  C   UNL     1       1.364   2.898  21.604  0.00  0.00    +0.000 C 
ENDBRANCH  11  26
BRANCH   1  28
ATOM     28  O   UNL     1       4.314   3.146  19.611  0.00  0.00    +0.000 OA
BRANCH  28  29
ATOM     29  C   UNL     1       3.563   2.008  19.243  0.00  0.00    +0.000 C 
BRANCH  29  30
ATOM     30  C   UNL     1       3.493   1.775  17.741  0.00  0.00    +0.000 C 
BRANCH  30  32
ATOM     31  C   UNL     1       1.236   2.164  18.385  0.00  0.00    +0.000 C 
ATOM     32  O   UNL     1       2.187   2.221  17.350  0.00  0.00    +0.000 OA
ENDBRANCH  30  32
ENDBRANCH  29  30
ENDBRANCH  28  29
ENDBRANCH   1  28
TORSDOF 8
ENDMDL
MODEL 9
REMARK VINA RESULT:      -6.5      2.238      3.101
REMARK  Name = 
REMARK  12 active torsions:
REMARK  status: ('A' for Active; 'I' for Inactive)
REMARK    1  A    between atoms: C_1  and  O_2
REMARK    2  A    between atoms: O_2  and  C_3
REMARK    3  A    between atoms: C_3  and  C_4
REMARK    4  A    between atoms: C_4  and  O_5
REMARK    5  A    between atoms: O_5  and  C_6
REMARK    6  A    between atoms: N_13  and  C_14
REMARK    7  A    between atoms: C_20  and  O_21
REMARK    8  A    between atoms: O_21  and  C_22
REMARK    9  A    between atoms: C_22  and  C_23
REMARK   10  A    between atoms: C_22  and  C_24
REMARK   11  A    between atoms: C_29  and  O_30
REMARK   12  A    between atoms: O_30  and  C_31
REMARK                            x       y       z     vdW  Elec       q    Type
REMARK                         _______ _______ _______ _____ _____    ______ ____
ROOT
ATOM      1  C   UNL     1       4.763   5.313  17.784  0.00  0.00    +0.000 A 
ATOM      2  C   UNL     1       4.043   5.193  18.994  0.00  0.00    +0.000 A 
ATOM      3  C   UNL     1       3.104   6.122  19.436  0.00  0.00    +0.000 A 
ATOM      4  N   UNL     1       2.499   5.952  20.616  0.00  0.00    +0.000 NA
ATOM      5  C   UNL     1       1.619   6.889  20.985  0.00  0.00    +0.000 A 
ATOM      6  N   UNL     1       1.269   7.968  20.277  0.00  0.00    +0.000 NA
ATOM      7  C   UNL     1       1.876   8.136  19.087  0.00  0.00    +0.000 A 
ATOM      8  N   UNL     1       1.576   9.279  18.305  0.00  0.00    +0.000 N 
ATOM      9  C   UNL     1       2.843   7.223  18.617  0.00  0.00    +0.000 A 
ATOM     10  C   UNL     1       3.558   7.362  17.407  0.00  0.00    +0.000 A 
ATOM     11  C   UNL     1       4.500   6.417  16.964  0.00  0.00    +0.000 A 
ATOM     12  H   UNL     1       1.494   9.058  17.312  0.00  0.00    +0.000 HD
ENDROOT
BRANCH   8  13
ATOM     13  C   UNL     1       0.735  10.327  18.647  0.00  0.00    +0.000 C 
ATOM     14  C   UNL     1       1.031  11.397  19.405  0.00  0.00    +0.000 C 
ATOM     15  C   UNL     1       0.049  12.427  19.741  0.00  0.00    +0.000 C 
ATOM     16  O   UNL     1       0.415  13.465  20.274  0.00  0.00    +0.000 OA
ATOM     17  C   UNL     1      -1.370  12.117  19.444  0.00  0.00    +0.000 C 
ATOM     18 CL   UNL     1      -2.548  13.124  20.218  0.00  0.00    +0.000 Cl
ATOM     19  C   UNL     1      -1.725  11.093  18.654  0.00  0.00    +0.000 C 
ATOM     20  C   UNL     1      -0.640  10.271  18.033  0.00  0.00    +0.000 C 
ATOM     21  O   UNL     1      -0.837   9.512  17.088  0.00  0.00    +0.000 OA
BRANCH  19  22
ATOM     22  O   UNL     1      -3.073  10.846  18.428  0.00  0.00    +0.000 OA
BRANCH  22  23
ATOM     23  C   UNL     1      -3.771  11.536  17.384  0.00  0.00    +0.000 C 
ATOM     24  C   UNL     1      -3.880  10.718  16.096  0.00  0.00    +0.000 C 
ATOM     25  C   UNL     1      -5.179  11.792  17.927  0.00  0.00    +0.000 C 
ENDBRANCH  22  23
ENDBRANCH  19  22
ENDBRANCH   8  13
BRANCH  11  26
ATOM     26  O   UNL     1       5.103   6.863  15.825  0.00  0.00    +0.000 OA
ATOM     27  C   UNL     1       5.570   5.959  14.838  0.00  0.00    +0.000 C 
ENDBRANCH  11  26
BRANCH   1  28
ATOM     28  O   UNL     1       5.672   4.293  17.654  0.00  0.00    +0.000 OA
BRANCH  28  29
ATOM     29  C   UNL     1       7.017   4.580  17.974  0.00  0.00    +0.000 C 
BRANCH  29  30
ATOM     30  C   UNL     1       7.233   5.978  18.533  0.00  0.00    +0.000 C 
BRANCH  30  32
ATOM     31  C   UNL     1       7.840   8.105  17.656  0.00  0.00    +0.000 C 
ATOM     32  O   UNL     1       7.883   6.709  17.485  0.00  0.00    +0.000 OA
ENDBRANCH  30  32
ENDBRANCH  29  30
ENDBRANCH  28  29
ENDBRANCH   1  28
TORSDOF 8
ENDMDL
