MODEL 1
REMARK VINA RESULT:      -6.7      0.000      0.000
REMARK  Name = 
REMARK  15 active torsions:
REMARK  status: ('A' for Active; 'I' for Inactive)
REMARK    1  A    between atoms: C_1  and  C_2
REMARK    2  A    between atoms: C_2  and  C_3
REMARK    3  A    between atoms: C_3  and  C_4
REMARK    4  A    between atoms: C_4  and  C_5
REMARK    5  A    between atoms: C_5  and  C_6
REMARK    6  A    between atoms: C_6  and  O_7
REMARK    7  A    between atoms: O_7  and  C_8
REMARK    8  A    between atoms: C_8  and  C_10
REMARK    9  A    between atoms: C_11  and  C_12
REMARK   10  A    between atoms: C_14  and  O_15
REMARK   11  A    between atoms: O_15  and  C_16
REMARK   12  A    between atoms: C_17  and  O_18
REMARK   13  A    between atoms: C_25  and  O_26
REMARK   14  A    between atoms: O_26  and  C_27
REMARK   15  A    between atoms: N_34  and  C_35
REMARK                            x       y       z     vdW  Elec       q    Type
REMARK                         _______ _______ _______ _____ _____    ______ ____
ROOT
ATOM      1  C   UNL     1      -1.041  11.392  19.975  0.00  0.00    +0.000 A 
ATOM      2  C   UNL     1      -1.759  10.861  18.910  0.00  0.00    +0.000 A 
ATOM      3  C   UNL     1      -2.950  11.468  18.527  0.00  0.00    +0.000 A 
ATOM      4  C   UNL     1      -3.531  12.447  19.365  0.00  0.00    +0.000 A 
ATOM      5  C   UNL     1      -2.854  12.960  20.480  0.00  0.00    +0.000 A 
ATOM      6  C   UNL     1      -1.504  12.555  20.607  0.00  0.00    +0.000 A 
ATOM      7  C   UNL     1      -0.467  13.468  21.249  0.00  0.00    +0.000 C 
ATOM      8  C   UNL     1      -1.093  14.829  21.588  0.00  0.00    +0.000 C 
ATOM      9  C   UNL     1      -2.329  14.523  22.454  0.00  0.00    +0.000 C 
ATOM     10  C   UNL     1      -2.132  13.510  23.585  0.00  0.00    +0.000 C 
ATOM     11  C   UNL     1      -3.134  13.510  24.486  0.00  0.00    +0.000 C 
ATOM     12  C   UNL     1      -4.318  12.895  23.760  0.00  0.00    +0.000 C 
ATOM     13  O   UNL     1      -5.054  12.122  24.377  0.00  0.00    +0.000 OA
ATOM     14  C   UNL     1      -4.625  13.378  22.330  0.00  0.00    +0.000 C 
ATOM     15  C   UNL     1      -3.445  14.005  21.493  0.00  0.00    +0.000 C 
ATOM     16  C   UNL     1      -3.913  15.296  20.760  0.00  0.00    +0.000 C 
ATOM     17  C   UNL     1      -2.742  16.191  20.295  0.00  0.00    +0.000 C 
ATOM     18  N   UNL     1      -1.455  15.509  20.317  0.00  0.00    +0.000 NA
ATOM     19  C   UNL     1      -0.379  16.273  19.715  0.00  0.00    +0.000 C 
ENDROOT
BRANCH   1  21
ATOM     20  C   UNL     1      -0.035   9.510  21.105  0.00  0.00    +0.000 C 
ATOM     21  C   UNL     1       0.133  10.712  20.524  0.00  0.00    +0.000 C 
BRANCH  20  22
ATOM     22  C   UNL     1       1.106   8.815  21.719  0.00  0.00    +0.000 C 
ATOM     23  O   UNL     1       1.910   9.311  22.484  0.00  0.00    +0.000 OA
BRANCH  22  24
ATOM     24  O   UNL     1       1.177   7.579  21.162  0.00  0.00    +0.000 OA
BRANCH  24  25
ATOM     25  C   UNL     1       2.030   7.509  20.018  0.00  0.00    +0.000 C 
BRANCH  25  26
ATOM     26  C   UNL     1       2.540   6.104  19.715  0.00  0.00    +0.000 C 
BRANCH  26  27
ATOM     27  C   UNL     1       2.467   5.871  18.202  0.00  0.00    +0.000 C 
BRANCH  27  28
ATOM     28  C   UNL     1       1.723   4.597  17.812  0.00  0.00    +0.000 C 
BRANCH  28  30
ATOM     29  C   UNL     1       1.554   2.316  18.888  0.00  0.00    +0.000 C 
ATOM     30  C   UNL     1       1.322   3.808  19.062  0.00  0.00    +0.000 C 
ENDBRANCH  28  30
ENDBRANCH  27  28
ENDBRANCH  26  27
ENDBRANCH  25  26
ENDBRANCH  24  25
ENDBRANCH  22  24
ENDBRANCH  20  22
ENDBRANCH   1  21
BRANCH   3  31
ATOM     31  O   UNL     1      -3.643  11.174  17.374  0.00  0.00    +0.000 OA
ATOM     32  C   UNL     1      -2.844  10.960  16.210  0.00  0.00    +0.000 C 
ENDBRANCH   3  31
BRANCH   4  33
ATOM     33  O   UNL     1      -4.759  12.947  19.013  0.00  0.00    +0.000 OA
ATOM     34  H   UNL     1      -5.135  13.300  19.845  0.00  0.00    +0.000 HD
ENDBRANCH   4  33
BRANCH  11  35
ATOM     35  O   UNL     1      -3.417  14.664  25.189  0.00  0.00    +0.000 OA
ATOM     36  C   UNL     1      -2.219  15.174  25.773  0.00  0.00    +0.000 C 
ENDBRANCH  11  35
TORSDOF 11
ENDMDL
MODEL 2
REMARK VINA RESULT:      -6.4      2.955      7.517
REMARK  Name = 
REMARK  15 active torsions:
REMARK  status: ('A' for Active; 'I' for Inactive)
REMARK    1  A    between atoms: C_1  and  C_2
REMARK    2  A    between atoms: C_2  and  C_3
REMARK    3  A    between atoms: C_3  and  C_4
REMARK    4  A    between atoms: C_4  and  C_5
REMARK    5  A    between atoms: C_5  and  C_6
REMARK    6  A    between atoms: C_6  and  O_7
REMARK    7  A    between atoms: O_7  and  C_8
REMARK    8  A    between atoms: C_8  and  C_10
REMARK    9  A    between atoms: C_11  and  C_12
REMARK   10  A    between atoms: C_14  and  O_15
REMARK   11  A    between atoms: O_15  and  C_16
REMARK   12  A    between atoms: C_17  and  O_18
REMARK   13  A    between atoms: C_25  and  O_26
REMARK   14  A    between atoms: O_26  and  C_27
REMARK   15  A    between atoms: N_34  and  C_35
REMARK                            x       y       z     vdW  Elec       q    Type
REMARK                         _______ _______ _______ _____ _____    ______ ____
ROOT
ATOM      1  C   UNL     1      -3.096  12.431  20.799  0.00  0.00    +0.000 A 
ATOM      2  C   UNL     1      -3.952  12.299  19.711  0.00  0.00    +0.000 A 
ATOM      3  C   UNL     1      -3.439  11.858  18.496  0.00  0.00    +0.000 A 
ATOM      4  C   UNL     1      -2.039  11.789  18.318  0.00  0.00    +0.000 A 
ATOM      5  C   UNL     1      -1.149  11.975  19.384  0.00  0.00    +0.000 A 
ATOM      6  C   UNL     1      -1.748  12.070  20.663  0.00  0.00    +0.000 A 
ATOM      7  C   UNL     1      -1.021  11.582  21.909  0.00  0.00    +0.000 C 
ATOM      8  C   UNL     1       0.312  10.922  21.524  0.00  0.00    +0.000 C 
ATOM      9  C   UNL     1       1.072  11.962  20.682  0.00  0.00    +0.000 C 
ATOM     10  C   UNL     1       1.100  13.391  21.230  0.00  0.00    +0.000 C 
ATOM     11  C   UNL     1       2.016  14.178  20.633  0.00  0.00    +0.000 C 
ATOM     12  C   UNL     1       1.477  14.422  19.235  0.00  0.00    +0.000 C 
ATOM     13  O   UNL     1       1.603  15.544  18.740  0.00  0.00    +0.000 OA
ATOM     14  C   UNL     1       0.926  13.219  18.447  0.00  0.00    +0.000 C 
ATOM     15  C   UNL     1       0.418  11.970  19.265  0.00  0.00    +0.000 C 
ATOM     16  C   UNL     1       0.929  10.647  18.626  0.00  0.00    +0.000 C 
ATOM     17  C   UNL     1       0.854   9.439  19.587  0.00  0.00    +0.000 C 
ATOM     18  N   UNL     1       0.018   9.685  20.755  0.00  0.00    +0.000 NA
ATOM     19  C   UNL     1      -0.209   8.506  21.570  0.00  0.00    +0.000 C 
ENDROOT
BRANCH   1  21
ATOM     20  C   UNL     1      -4.741  13.643  22.086  0.00  0.00    +0.000 C 
ATOM     21  C   UNL     1      -3.540  13.035  22.055  0.00  0.00    +0.000 C 
BRANCH  20  22
ATOM     22  C   UNL     1      -5.204  14.311  23.310  0.00  0.00    +0.000 C 
ATOM     23  O   UNL     1      -6.335  14.708  23.517  0.00  0.00    +0.000 OA
BRANCH  22  24
ATOM     24  O   UNL     1      -4.116  14.531  24.092  0.00  0.00    +0.000 OA
BRANCH  24  25
ATOM     25  C   UNL     1      -3.951  15.897  24.481  0.00  0.00    +0.000 C 
BRANCH  25  26
ATOM     26  C   UNL     1      -2.962  16.668  23.614  0.00  0.00    +0.000 C 
BRANCH  26  27
ATOM     27  C   UNL     1      -1.687  15.830  23.461  0.00  0.00    +0.000 C 
BRANCH  27  28
ATOM     28  C   UNL     1      -1.054  15.923  22.075  0.00  0.00    +0.000 C 
BRANCH  28  30
ATOM     29  C   UNL     1      -1.545  16.637  19.700  0.00  0.00    +0.000 C 
ATOM     30  C   UNL     1      -2.133  16.131  21.007  0.00  0.00    +0.000 C 
ENDBRANCH  28  30
ENDBRANCH  27  28
ENDBRANCH  26  27
ENDBRANCH  25  26
ENDBRANCH  24  25
ENDBRANCH  22  24
ENDBRANCH  20  22
ENDBRANCH   1  21
BRANCH   3  31
ATOM     31  O   UNL     1      -4.204  11.488  17.412  0.00  0.00    +0.000 OA
ATOM     32  C   UNL     1      -5.572  11.898  17.451  0.00  0.00    +0.000 C 
ENDBRANCH   3  31
BRANCH   4  33
ATOM     33  O   UNL     1      -1.566  11.455  17.074  0.00  0.00    +0.000 OA
ATOM     34  H   UNL     1      -1.216  10.546  17.174  0.00  0.00    +0.000 HD
ENDBRANCH   4  33
BRANCH  11  35
ATOM     35  O   UNL     1       3.351  13.830  20.690  0.00  0.00    +0.000 OA
ATOM     36  C   UNL     1       4.028  14.682  21.613  0.00  0.00    +0.000 C 
ENDBRANCH  11  35
TORSDOF 11
ENDMDL
MODEL 3
REMARK VINA RESULT:      -6.4      3.053      7.597
REMARK  Name = 
REMARK  15 active torsions:
REMARK  status: ('A' for Active; 'I' for Inactive)
REMARK    1  A    between atoms: C_1  and  C_2
REMARK    2  A    between atoms: C_2  and  C_3
REMARK    3  A    between atoms: C_3  and  C_4
REMARK    4  A    between atoms: C_4  and  C_5
REMARK    5  A    between atoms: C_5  and  C_6
REMARK    6  A    between atoms: C_6  and  O_7
REMARK    7  A    between atoms: O_7  and  C_8
REMARK    8  A    between atoms: C_8  and  C_10
REMARK    9  A    between atoms: C_11  and  C_12
REMARK   10  A    between atoms: C_14  and  O_15
REMARK   11  A    between atoms: O_15  and  C_16
REMARK   12  A    between atoms: C_17  and  O_18
REMARK   13  A    between atoms: C_25  and  O_26
REMARK   14  A    between atoms: O_26  and  C_27
REMARK   15  A    between atoms: N_34  and  C_35
REMARK                            x       y       z     vdW  Elec       q    Type
REMARK                         _______ _______ _______ _____ _____    ______ ____
ROOT
ATOM      1  C   UNL     1      -3.251  12.393  20.664  0.00  0.00    +0.000 A 
ATOM      2  C   UNL     1      -4.040  12.222  19.532  0.00  0.00    +0.000 A 
ATOM      3  C   UNL     1      -3.445  11.795  18.350  0.00  0.00    +0.000 A 
ATOM      4  C   UNL     1      -2.035  11.780  18.248  0.00  0.00    +0.000 A 
ATOM      5  C   UNL     1      -1.213  12.006  19.361  0.00  0.00    +0.000 A 
ATOM      6  C   UNL     1      -1.885  12.083  20.604  0.00  0.00    +0.000 A 
ATOM      7  C   UNL     1      -1.208  11.630  21.892  0.00  0.00    +0.000 C 
ATOM      8  C   UNL     1       0.168  11.020  21.585  0.00  0.00    +0.000 C 
ATOM      9  C   UNL     1       0.932  12.085  20.778  0.00  0.00    +0.000 C 
ATOM     10  C   UNL     1       0.875  13.517  21.316  0.00  0.00    +0.000 C 
ATOM     11  C   UNL     1       1.792  14.335  20.764  0.00  0.00    +0.000 C 
ATOM     12  C   UNL     1       1.321  14.552  19.337  0.00  0.00    +0.000 C 
ATOM     13  O   UNL     1       1.431  15.675  18.842  0.00  0.00    +0.000 OA
ATOM     14  C   UNL     1       0.861  13.324  18.529  0.00  0.00    +0.000 C 
ATOM     15  C   UNL     1       0.357  12.061  19.327  0.00  0.00    +0.000 C 
ATOM     16  C   UNL     1       0.953  10.755  18.727  0.00  0.00    +0.000 C 
ATOM     17  C   UNL     1       0.871   9.550  19.691  0.00  0.00    +0.000 C 
ATOM     18  N   UNL     1      -0.036   9.769  20.809  0.00  0.00    +0.000 NA
ATOM     19  C   UNL     1      -0.262   8.587  21.619  0.00  0.00    +0.000 C 
ENDROOT
BRANCH   1  21
ATOM     20  C   UNL     1      -5.103  12.867  22.137  0.00  0.00    +0.000 C 
ATOM     21  C   UNL     1      -3.786  12.986  21.889  0.00  0.00    +0.000 C 
BRANCH  20  22
ATOM     22  C   UNL     1      -5.695  13.493  23.329  0.00  0.00    +0.000 C 
ATOM     23  O   UNL     1      -5.895  12.942  24.395  0.00  0.00    +0.000 OA
BRANCH  22  24
ATOM     24  O   UNL     1      -6.106  14.737  22.974  0.00  0.00    +0.000 OA
BRANCH  24  25
ATOM     25  C   UNL     1      -5.701  15.762  23.884  0.00  0.00    +0.000 C 
BRANCH  25  26
ATOM     26  C   UNL     1      -4.237  16.164  23.745  0.00  0.00    +0.000 C 
BRANCH  26  27
ATOM     27  C   UNL     1      -3.531  15.913  25.083  0.00  0.00    +0.000 C 
BRANCH  27  28
ATOM     28  C   UNL     1      -2.366  14.932  24.987  0.00  0.00    +0.000 C 
BRANCH  28  30
ATOM     29  C   UNL     1      -0.500  16.051  23.700  0.00  0.00    +0.000 C 
ATOM     30  C   UNL     1      -1.659  15.071  23.635  0.00  0.00    +0.000 C 
ENDBRANCH  28  30
ENDBRANCH  27  28
ENDBRANCH  26  27
ENDBRANCH  25  26
ENDBRANCH  24  25
ENDBRANCH  22  24
ENDBRANCH  20  22
ENDBRANCH   1  21
BRANCH   3  31
ATOM     31  O   UNL     1      -4.134  11.391  17.228  0.00  0.00    +0.000 OA
ATOM     32  C   UNL     1      -5.428  11.971  17.055  0.00  0.00    +0.000 C 
ENDBRANCH   3  31
BRANCH   4  33
ATOM     33  O   UNL     1      -1.483  11.458  17.035  0.00  0.00    +0.000 OA
ATOM     34  H   UNL     1      -2.154  11.723  16.374  0.00  0.00    +0.000 HD
ENDBRANCH   4  33
BRANCH  11  35
ATOM     35  O   UNL     1       3.134  14.040  20.897  0.00  0.00    +0.000 OA
ATOM     36  C   UNL     1       3.742  14.968  21.795  0.00  0.00    +0.000 C 
ENDBRANCH  11  35
TORSDOF 11
ENDMDL
MODEL 4
REMARK VINA RESULT:      -6.4      2.896      5.333
REMARK  Name = 
REMARK  15 active torsions:
REMARK  status: ('A' for Active; 'I' for Inactive)
REMARK    1  A    between atoms: C_1  and  C_2
REMARK    2  A    between atoms: C_2  and  C_3
REMARK    3  A    between atoms: C_3  and  C_4
REMARK    4  A    between atoms: C_4  and  C_5
REMARK    5  A    between atoms: C_5  and  C_6
REMARK    6  A    between atoms: C_6  and  O_7
REMARK    7  A    between atoms: O_7  and  C_8
REMARK    8  A    between atoms: C_8  and  C_10
REMARK    9  A    between atoms: C_11  and  C_12
REMARK   10  A    between atoms: C_14  and  O_15
REMARK   11  A    between atoms: O_15  and  C_16
REMARK   12  A    between atoms: C_17  and  O_18
REMARK   13  A    between atoms: C_25  and  O_26
REMARK   14  A    between atoms: O_26  and  C_27
REMARK   15  A    between atoms: N_34  and  C_35
REMARK                            x       y       z     vdW  Elec       q    Type
REMARK                         _______ _______ _______ _____ _____    ______ ____
ROOT
ATOM      1  C   UNL     1       0.958   9.267  19.908  0.00  0.00    +0.000 A 
ATOM      2  C   UNL     1       0.803   8.708  21.171  0.00  0.00    +0.000 A 
ATOM      3  C   UNL     1       0.180   9.451  22.168  0.00  0.00    +0.000 A 
ATOM      4  C   UNL     1      -0.060  10.828  21.961  0.00  0.00    +0.000 A 
ATOM      5  C   UNL     1       0.143  11.432  20.713  0.00  0.00    +0.000 A 
ATOM      6  C   UNL     1       0.439  10.545  19.651  0.00  0.00    +0.000 A 
ATOM      7  C   UNL     1       0.012  10.858  18.223  0.00  0.00    +0.000 C 
ATOM      8  C   UNL     1      -0.826  12.144  18.187  0.00  0.00    +0.000 C 
ATOM      9  C   UNL     1       0.028  13.226  18.873  0.00  0.00    +0.000 C 
ATOM     10  C   UNL     1       1.496  13.303  18.447  0.00  0.00    +0.000 C 
ATOM     11  C   UNL     1       2.109  14.438  18.835  0.00  0.00    +0.000 C 
ATOM     12  C   UNL     1       2.258  14.312  20.341  0.00  0.00    +0.000 C 
ATOM     13  O   UNL     1       3.300  14.708  20.868  0.00  0.00    +0.000 OA
ATOM     14  C   UNL     1       1.044  13.825  21.154  0.00  0.00    +0.000 C 
ATOM     15  C   UNL     1      -0.046  12.963  20.409  0.00  0.00    +0.000 C 
ATOM     16  C   UNL     1      -1.478  13.439  20.786  0.00  0.00    +0.000 C 
ATOM     17  C   UNL     1      -2.560  12.960  19.792  0.00  0.00    +0.000 C 
ATOM     18  N   UNL     1      -2.100  11.894  18.912  0.00  0.00    +0.000 NA
ATOM     19  C   UNL     1      -3.151  11.311  18.100  0.00  0.00    +0.000 C 
ENDROOT
BRANCH   1  21
ATOM     20  C   UNL     1       2.403   7.475  19.182  0.00  0.00    +0.000 C 
ATOM     21  C   UNL     1       1.739   8.602  18.865  0.00  0.00    +0.000 C 
BRANCH  20  22
ATOM     22  C   UNL     1       3.245   6.802  18.181  0.00  0.00    +0.000 C 
ATOM     23  O   UNL     1       3.529   7.241  17.083  0.00  0.00    +0.000 OA
BRANCH  22  24
ATOM     24  O   UNL     1       3.515   5.556  18.647  0.00  0.00    +0.000 OA
BRANCH  24  25
ATOM     25  C   UNL     1       3.307   4.521  17.685  0.00  0.00    +0.000 C 
BRANCH  25  26
ATOM     26  C   UNL     1       1.860   4.045  17.596  0.00  0.00    +0.000 C 
BRANCH  26  27
ATOM     27  C   UNL     1       1.686   2.836  18.523  0.00  0.00    +0.000 C 
BRANCH  27  28
ATOM     28  C   UNL     1       0.641   3.046  19.615  0.00  0.00    +0.000 C 
BRANCH  28  30
ATOM     29  C   UNL     1       2.331   3.240  21.486  0.00  0.00    +0.000 C 
ATOM     30  C   UNL     1       1.206   3.930  20.732  0.00  0.00    +0.000 C 
ENDBRANCH  28  30
ENDBRANCH  27  28
ENDBRANCH  26  27
ENDBRANCH  25  26
ENDBRANCH  24  25
ENDBRANCH  22  24
ENDBRANCH  20  22
ENDBRANCH   1  21
BRANCH   3  31
ATOM     31  O   UNL     1      -0.219   8.946  23.386  0.00  0.00    +0.000 OA
ATOM     32  C   UNL     1       0.709   9.114  24.459  0.00  0.00    +0.000 C 
ENDBRANCH   3  31
BRANCH   4  33
ATOM     33  O   UNL     1      -0.576  11.554  23.004  0.00  0.00    +0.000 OA
ATOM     34  H   UNL     1      -1.539  11.589  22.834  0.00  0.00    +0.000 HD
ENDBRANCH   4  33
BRANCH  11  35
ATOM     35  O   UNL     1       1.626  15.656  18.398  0.00  0.00    +0.000 OA
ATOM     36  C   UNL     1       2.689  16.413  17.821  0.00  0.00    +0.000 C 
ENDBRANCH  11  35
TORSDOF 11
ENDMDL
MODEL 5
REMARK VINA RESULT:      -6.3      1.039      1.419
REMARK  Name = 
REMARK  15 active torsions:
REMARK  status: ('A' for Active; 'I' for Inactive)
REMARK    1  A    between atoms: C_1  and  C_2
REMARK    2  A    between atoms: C_2  and  C_3
REMARK    3  A    between atoms: C_3  and  C_4
REMARK    4  A    between atoms: C_4  and  C_5
REMARK    5  A    between atoms: C_5  and  C_6
REMARK    6  A    between atoms: C_6  and  O_7
REMARK    7  A    between atoms: O_7  and  C_8
REMARK    8  A    between atoms: C_8  and  C_10
REMARK    9  A    between atoms: C_11  and  C_12
REMARK   10  A    between atoms: C_14  and  O_15
REMARK   11  A    between atoms: O_15  and  C_16
REMARK   12  A    between atoms: C_17  and  O_18
REMARK   13  A    between atoms: C_25  and  O_26
REMARK   14  A    between atoms: O_26  and  C_27
REMARK   15  A    between atoms: N_34  and  C_35
REMARK                            x       y       z     vdW  Elec       q    Type
REMARK                         _______ _______ _______ _____ _____    ______ ____
ROOT
ATOM      1  C   UNL     1      -0.914  11.467  20.147  0.00  0.00    +0.000 A 
ATOM      2  C   UNL     1      -1.584  10.905  19.066  0.00  0.00    +0.000 A 
ATOM      3  C   UNL     1      -2.771  11.482  18.630  0.00  0.00    +0.000 A 
ATOM      4  C   UNL     1      -3.401  12.463  19.430  0.00  0.00    +0.000 A 
ATOM      5  C   UNL     1      -2.774  13.008  20.559  0.00  0.00    +0.000 A 
ATOM      6  C   UNL     1      -1.421  12.631  20.741  0.00  0.00    +0.000 A 
ATOM      7  C   UNL     1      -0.426  13.575  21.404  0.00  0.00    +0.000 C 
ATOM      8  C   UNL     1      -1.089  14.930  21.696  0.00  0.00    +0.000 C 
ATOM      9  C   UNL     1      -2.349  14.614  22.522  0.00  0.00    +0.000 C 
ATOM     10  C   UNL     1      -2.175  13.625  23.678  0.00  0.00    +0.000 C 
ATOM     11  C   UNL     1      -3.209  13.621  24.542  0.00  0.00    +0.000 C 
ATOM     12  C   UNL     1      -4.353  12.971  23.785  0.00  0.00    +0.000 C 
ATOM     13  O   UNL     1      -5.097  12.194  24.389  0.00  0.00    +0.000 OA
ATOM     14  C   UNL     1      -4.617  13.423  22.337  0.00  0.00    +0.000 C 
ATOM     15  C   UNL     1      -3.420  14.059  21.531  0.00  0.00    +0.000 C 
ATOM     16  C   UNL     1      -3.886  15.328  20.760  0.00  0.00    +0.000 C 
ATOM     17  C   UNL     1      -2.716  16.237  20.321  0.00  0.00    +0.000 C 
ATOM     18  N   UNL     1      -1.417  15.581  20.401  0.00  0.00    +0.000 NA
ATOM     19  C   UNL     1      -0.334  16.355  19.824  0.00  0.00    +0.000 C 
ENDROOT
BRANCH   1  21
ATOM     20  C   UNL     1       0.108   9.579  21.250  0.00  0.00    +0.000 C 
ATOM     21  C   UNL     1       0.251  10.819  20.749  0.00  0.00    +0.000 C 
BRANCH  20  22
ATOM     22  C   UNL     1       1.237   8.910  21.913  0.00  0.00    +0.000 C 
ATOM     23  O   UNL     1       1.952   9.403  22.765  0.00  0.00    +0.000 OA
BRANCH  22  24
ATOM     24  O   UNL     1       1.421   7.714  21.299  0.00  0.00    +0.000 OA
BRANCH  24  25
ATOM     25  C   UNL     1       1.885   7.821  19.951  0.00  0.00    +0.000 C 
BRANCH  25  26
ATOM     26  C   UNL     1       2.600   6.573  19.445  0.00  0.00    +0.000 C 
BRANCH  26  27
ATOM     27  C   UNL     1       2.811   6.708  17.933  0.00  0.00    +0.000 C 
BRANCH  27  28
ATOM     28  C   UNL     1       4.279   6.744  17.518  0.00  0.00    +0.000 C 
BRANCH  28  30
ATOM     29  C   UNL     1       5.410   5.661  15.534  0.00  0.00    +0.000 C 
ATOM     30  C   UNL     1       4.677   5.427  16.845  0.00  0.00    +0.000 C 
ENDBRANCH  28  30
ENDBRANCH  27  28
ENDBRANCH  26  27
ENDBRANCH  25  26
ENDBRANCH  24  25
ENDBRANCH  22  24
ENDBRANCH  20  22
ENDBRANCH   1  21
BRANCH   3  31
ATOM     31  O   UNL     1      -3.417  11.155  17.458  0.00  0.00    +0.000 OA
ATOM     32  C   UNL     1      -2.812  10.114  16.689  0.00  0.00    +0.000 C 
ENDBRANCH   3  31
BRANCH   4  33
ATOM     33  O   UNL     1      -4.624  12.933  19.025  0.00  0.00    +0.000 OA
ATOM     34  H   UNL     1      -4.764  12.539  18.140  0.00  0.00    +0.000 HD
ENDBRANCH   4  33
BRANCH  11  35
ATOM     35  O   UNL     1      -3.538  14.781  25.214  0.00  0.00    +0.000 OA
ATOM     36  C   UNL     1      -2.387  15.286  25.889  0.00  0.00    +0.000 C 
ENDBRANCH  11  35
TORSDOF 11
ENDMDL
MODEL 6
REMARK VINA RESULT:      -6.3      2.351      7.003
REMARK  Name = 
REMARK  15 active torsions:
REMARK  status: ('A' for Active; 'I' for Inactive)
REMARK    1  A    between atoms: C_1  and  C_2
REMARK    2  A    between atoms: C_2  and  C_3
REMARK    3  A    between atoms: C_3  and  C_4
REMARK    4  A    between atoms: C_4  and  C_5
REMARK    5  A    between atoms: C_5  and  C_6
REMARK    6  A    between atoms: C_6  and  O_7
REMARK    7  A    between atoms: O_7  and  C_8
REMARK    8  A    between atoms: C_8  and  C_10
REMARK    9  A    between atoms: C_11  and  C_12
REMARK   10  A    between atoms: C_14  and  O_15
REMARK   11  A    between atoms: O_15  and  C_16
REMARK   12  A    between atoms: C_17  and  O_18
REMARK   13  A    between atoms: C_25  and  O_26
REMARK   14  A    between atoms: O_26  and  C_27
REMARK   15  A    between atoms: N_34  and  C_35
REMARK                            x       y       z     vdW  Elec       q    Type
REMARK                         _______ _______ _______ _____ _____    ______ ____
ROOT
ATOM      1  C   UNL     1      -3.499  12.765  21.112  0.00  0.00    +0.000 A 
ATOM      2  C   UNL     1      -3.700  13.142  22.434  0.00  0.00    +0.000 A 
ATOM      3  C   UNL     1      -2.600  13.473  23.218  0.00  0.00    +0.000 A 
ATOM      4  C   UNL     1      -1.299  13.189  22.745  0.00  0.00    +0.000 A 
ATOM      5  C   UNL     1      -1.071  12.752  21.433  0.00  0.00    +0.000 A 
ATOM      6  C   UNL     1      -2.201  12.775  20.582  0.00  0.00    +0.000 A 
ATOM      7  C   UNL     1      -2.052  13.026  19.086  0.00  0.00    +0.000 C 
ATOM      8  C   UNL     1      -0.588  13.336  18.741  0.00  0.00    +0.000 C 
ATOM      9  C   UNL     1       0.236  12.162  19.298  0.00  0.00    +0.000 C 
ATOM     10  C   UNL     1      -0.298  10.757  19.006  0.00  0.00    +0.000 C 
ATOM     11  C   UNL     1       0.601   9.781  19.240  0.00  0.00    +0.000 C 
ATOM     12  C   UNL     1       0.737   9.723  20.751  0.00  0.00    +0.000 C 
ATOM     13  O   UNL     1       0.837   8.620  21.294  0.00  0.00    +0.000 OA
ATOM     14  C   UNL     1       0.885  11.049  21.520  0.00  0.00    +0.000 C 
ATOM     15  C   UNL     1       0.332  12.361  20.843  0.00  0.00    +0.000 C 
ATOM     16  C   UNL     1       1.350  13.530  20.991  0.00  0.00    +0.000 C 
ATOM     17  C   UNL     1       1.094  14.688  20.001  0.00  0.00    +0.000 C 
ATOM     18  N   UNL     1      -0.220  14.629  19.375  0.00  0.00    +0.000 NA
ATOM     19  C   UNL     1      -0.545  15.802  18.585  0.00  0.00    +0.000 C 
ENDROOT
BRANCH   1  21
ATOM     20  C   UNL     1      -5.855  12.592  20.613  0.00  0.00    +0.000 C 
ATOM     21  C   UNL     1      -4.594  12.257  20.284  0.00  0.00    +0.000 C 
BRANCH  20  22
ATOM     22  C   UNL     1      -6.989  12.061  19.843  0.00  0.00    +0.000 C 
ATOM     23  O   UNL     1      -7.468  10.949  19.962  0.00  0.00    +0.000 OA
BRANCH  22  24
ATOM     24  O   UNL     1      -7.298  12.976  18.889  0.00  0.00    +0.000 OA
BRANCH  24  25
ATOM     25  C   UNL     1      -7.165  12.485  17.553  0.00  0.00    +0.000 C 
BRANCH  25  26
ATOM     26  C   UNL     1      -5.773  12.682  16.961  0.00  0.00    +0.000 C 
BRANCH  26  27
ATOM     27  C   UNL     1      -5.058  11.326  16.927  0.00  0.00    +0.000 C 
BRANCH  27  28
ATOM     28  C   UNL     1      -3.806  11.315  16.056  0.00  0.00    +0.000 C 
BRANCH  28  30
ATOM     29  C   UNL     1      -3.315   9.499  17.745  0.00  0.00    +0.000 C 
ATOM     30  C   UNL     1      -2.911  10.126  16.421  0.00  0.00    +0.000 C 
ENDBRANCH  28  30
ENDBRANCH  27  28
ENDBRANCH  26  27
ENDBRANCH  25  26
ENDBRANCH  24  25
ENDBRANCH  22  24
ENDBRANCH  20  22
ENDBRANCH   1  21
BRANCH   3  31
ATOM     31  O   UNL     1      -2.674  14.057  24.464  0.00  0.00    +0.000 OA
ATOM     32  C   UNL     1      -3.261  15.358  24.503  0.00  0.00    +0.000 C 
ENDBRANCH   3  31
BRANCH   4  33
ATOM     33  O   UNL     1      -0.243  13.428  23.587  0.00  0.00    +0.000 OA
ATOM     34  H   UNL     1       0.549  13.153  23.082  0.00  0.00    +0.000 HD
ENDBRANCH   4  33
BRANCH  11  35
ATOM     35  O   UNL     1       1.796   9.777  18.547  0.00  0.00    +0.000 OA
ATOM     36  C   UNL     1       1.958   8.524  17.883  0.00  0.00    +0.000 C 
ENDBRANCH  11  35
TORSDOF 11
ENDMDL
MODEL 7
REMARK VINA RESULT:      -6.2      3.444      7.253
REMARK  Name = 
REMARK  15 active torsions:
REMARK  status: ('A' for Active; 'I' for Inactive)
REMARK    1  A    between atoms: C_1  and  C_2
REMARK    2  A    between atoms: C_2  and  C_3
REMARK    3  A    between atoms: C_3  and  C_4
REMARK    4  A    between atoms: C_4  and  C_5
REMARK    5  A    between atoms: C_5  and  C_6
REMARK    6  A    between atoms: C_6  and  O_7
REMARK    7  A    between atoms: O_7  and  C_8
REMARK    8  A    between atoms: C_8  and  C_10
REMARK    9  A    between atoms: C_11  and  C_12
REMARK   10  A    between atoms: C_14  and  O_15
REMARK   11  A    between atoms: O_15  and  C_16
REMARK   12  A    between atoms: C_17  and  O_18
REMARK   13  A    between atoms: C_25  and  O_26
REMARK   14  A    between atoms: O_26  and  C_27
REMARK   15  A    between atoms: N_34  and  C_35
REMARK                            x       y       z     vdW  Elec       q    Type
REMARK                         _______ _______ _______ _____ _____    ______ ____
ROOT
ATOM      1  C   UNL     1      -3.636  12.390  19.746  0.00  0.00    +0.000 A 
ATOM      2  C   UNL     1      -3.909  11.664  18.593  0.00  0.00    +0.000 A 
ATOM      3  C   UNL     1      -2.867  11.025  17.931  0.00  0.00    +0.000 A 
ATOM      4  C   UNL     1      -1.532  11.319  18.291  0.00  0.00    +0.000 A 
ATOM      5  C   UNL     1      -1.226  12.096  19.417  0.00  0.00    +0.000 A 
ATOM      6  C   UNL     1      -2.326  12.420  20.247  0.00  0.00    +0.000 A 
ATOM      7  C   UNL     1      -2.150  12.602  21.749  0.00  0.00    +0.000 C 
ATOM      8  C   UNL     1      -0.706  12.278  22.159  0.00  0.00    +0.000 C 
ATOM      9  C   UNL     1       0.193  13.164  21.277  0.00  0.00    +0.000 C 
ATOM     10  C   UNL     1      -0.215  14.634  21.151  0.00  0.00    +0.000 C 
ATOM     11  C   UNL     1       0.753  15.417  20.635  0.00  0.00    +0.000 C 
ATOM     12  C   UNL     1       0.843  15.023  19.172  0.00  0.00    +0.000 C 
ATOM     13  O   UNL     1       1.016  15.907  18.330  0.00  0.00    +0.000 OA
ATOM     14  C   UNL     1       0.858  13.523  18.823  0.00  0.00    +0.000 C 
ATOM     15  C   UNL     1       0.222  12.517  19.857  0.00  0.00    +0.000 C 
ATOM     16  C   UNL     1       1.136  11.272  20.049  0.00  0.00    +0.000 C 
ATOM     17  C   UNL     1       0.818  10.477  21.336  0.00  0.00    +0.000 C 
ATOM     18  N   UNL     1      -0.465  10.830  21.927  0.00  0.00    +0.000 NA
ATOM     19  C   UNL     1      -0.859   9.970  23.027  0.00  0.00    +0.000 C 
ENDROOT
BRANCH   1  21
ATOM     20  C   UNL     1      -5.714  12.592  20.957  0.00  0.00    +0.000 C 
ATOM     21  C   UNL     1      -4.658  13.210  20.398  0.00  0.00    +0.000 C 
BRANCH  20  22
ATOM     22  C   UNL     1      -6.793  13.378  21.575  0.00  0.00    +0.000 C 
ATOM     23  O   UNL     1      -7.299  14.378  21.105  0.00  0.00    +0.000 OA
BRANCH  22  24
ATOM     24  O   UNL     1      -7.008  12.870  22.816  0.00  0.00    +0.000 OA
BRANCH  24  25
ATOM     25  C   UNL     1      -6.165  13.432  23.824  0.00  0.00    +0.000 C 
BRANCH  25  26
ATOM     26  C   UNL     1      -5.345  12.398  24.588  0.00  0.00    +0.000 C 
BRANCH  26  27
ATOM     27  C   UNL     1      -3.875  12.831  24.574  0.00  0.00    +0.000 C 
BRANCH  27  28
ATOM     28  C   UNL     1      -3.645  14.239  25.116  0.00  0.00    +0.000 C 
BRANCH  28  30
ATOM     29  C   UNL     1      -1.312  15.088  24.641  0.00  0.00    +0.000 C 
ATOM     30  C   UNL     1      -2.753  15.041  24.163  0.00  0.00    +0.000 C 
ENDBRANCH  28  30
ENDBRANCH  27  28
ENDBRANCH  26  27
ENDBRANCH  25  26
ENDBRANCH  24  25
ENDBRANCH  22  24
ENDBRANCH  20  22
ENDBRANCH   1  21
BRANCH   3  31
ATOM     31  O   UNL     1      -3.029  10.114  16.911  0.00  0.00    +0.000 OA
ATOM     32  C   UNL     1      -3.468  10.654  15.664  0.00  0.00    +0.000 C 
ENDBRANCH   3  31
BRANCH   4  33
ATOM     33  O   UNL     1      -0.527  10.755  17.548  0.00  0.00    +0.000 OA
ATOM     34  H   UNL     1       0.226  10.671  18.167  0.00  0.00    +0.000 HD
ENDBRANCH   4  33
BRANCH  11  35
ATOM     35  O   UNL     1       1.966  15.518  21.288  0.00  0.00    +0.000 OA
ATOM     36  C   UNL     1       1.821  16.347  22.441  0.00  0.00    +0.000 C 
ENDBRANCH  11  35
TORSDOF 11
ENDMDL
MODEL 8
REMARK VINA RESULT:      -6.2      1.883      2.580
REMARK  Name = 
REMARK  15 active torsions:
REMARK  status: ('A' for Active; 'I' for Inactive)
REMARK    1  A    between atoms: C_1  and  C_2
REMARK    2  A    between atoms: C_2  and  C_3
REMARK    3  A    between atoms: C_3  and  C_4
REMARK    4  A    between atoms: C_4  and  C_5
REMARK    5  A    between atoms: C_5  and  C_6
REMARK    6  A    between atoms: C_6  and  O_7
REMARK    7  A    between atoms: O_7  and  C_8
REMARK    8  A    between atoms: C_8  and  C_10
REMARK    9  A    between atoms: C_11  and  C_12
REMARK   10  A    between atoms: C_14  and  O_15
REMARK   11  A    between atoms: O_15  and  C_16
REMARK   12  A    between atoms: C_17  and  O_18
REMARK   13  A    between atoms: C_25  and  O_26
REMARK   14  A    between atoms: O_26  and  C_27
REMARK   15  A    between atoms: N_34  and  C_35
REMARK                            x       y       z     vdW  Elec       q    Type
REMARK                         _______ _______ _______ _____ _____    ______ ____
ROOT
ATOM      1  C   UNL     1      -0.073  10.252  18.479  0.00  0.00    +0.000 A 
ATOM      2  C   UNL     1      -1.031   9.931  17.524  0.00  0.00    +0.000 A 
ATOM      3  C   UNL     1      -2.108  10.788  17.329  0.00  0.00    +0.000 A 
ATOM      4  C   UNL     1      -2.344  11.828  18.257  0.00  0.00    +0.000 A 
ATOM      5  C   UNL     1      -1.423  12.138  19.267  0.00  0.00    +0.000 A 
ATOM      6  C   UNL     1      -0.185  11.457  19.188  0.00  0.00    +0.000 A 
ATOM      7  C   UNL     1       1.101  12.106  19.683  0.00  0.00    +0.000 C 
ATOM      8  C   UNL     1       0.832  13.550  20.129  0.00  0.00    +0.000 C 
ATOM      9  C   UNL     1      -0.306  13.469  21.163  0.00  0.00    +0.000 C 
ATOM     10  C   UNL     1      -0.170  12.389  22.239  0.00  0.00    +0.000 C 
ATOM     11  C   UNL     1      -1.012  12.556  23.277  0.00  0.00    +0.000 C 
ATOM     12  C   UNL     1      -2.389  12.233  22.726  0.00  0.00    +0.000 C 
ATOM     13  O   UNL     1      -3.178  11.603  23.434  0.00  0.00    +0.000 OA
ATOM     14  C   UNL     1      -2.785  12.832  21.363  0.00  0.00    +0.000 C 
ATOM     15  C   UNL     1      -1.630  13.238  20.370  0.00  0.00    +0.000 C 
ATOM     16  C   UNL     1      -1.913  14.629  19.732  0.00  0.00    +0.000 C 
ATOM     17  C   UNL     1      -0.657  15.281  19.112  0.00  0.00    +0.000 C 
ATOM     18  N   UNL     1       0.447  14.347  18.935  0.00  0.00    +0.000 NA
ATOM     19  C   UNL     1       1.564  14.897  18.191  0.00  0.00    +0.000 C 
ENDROOT
BRANCH   1  21
ATOM     20  C   UNL     1       1.744   8.792  17.853  0.00  0.00    +0.000 C 
ATOM     21  C   UNL     1       0.995   9.320  18.839  0.00  0.00    +0.000 C 
BRANCH  20  22
ATOM     22  C   UNL     1       2.793   7.809  18.162  0.00  0.00    +0.000 C 
ATOM     23  O   UNL     1       3.857   7.701  17.583  0.00  0.00    +0.000 OA
BRANCH  22  24
ATOM     24  O   UNL     1       2.295   6.963  19.101  0.00  0.00    +0.000 OA
BRANCH  24  25
ATOM     25  C   UNL     1       2.705   5.605  18.930  0.00  0.00    +0.000 C 
BRANCH  25  26
ATOM     26  C   UNL     1       1.895   4.844  17.885  0.00  0.00    +0.000 C 
BRANCH  26  27
ATOM     27  C   UNL     1       1.388   3.540  18.512  0.00  0.00    +0.000 C 
BRANCH  27  28
ATOM     28  C   UNL     1       0.851   3.709  19.930  0.00  0.00    +0.000 C 
BRANCH  28  30
ATOM     29  C   UNL     1       2.338   2.983  21.840  0.00  0.00    +0.000 C 
ATOM     30  C   UNL     1       1.304   2.545  20.816  0.00  0.00    +0.000 C 
ENDBRANCH  28  30
ENDBRANCH  27  28
ENDBRANCH  26  27
ENDBRANCH  25  26
ENDBRANCH  24  25
ENDBRANCH  22  24
ENDBRANCH  20  22
ENDBRANCH   1  21
BRANCH   3  31
ATOM     31  O   UNL     1      -3.003  10.696  16.287  0.00  0.00    +0.000 OA
ATOM     32  C   UNL     1      -2.699   9.713  15.295  0.00  0.00    +0.000 C 
ENDBRANCH   3  31
BRANCH   4  33
ATOM     33  O   UNL     1      -3.475  12.586  18.097  0.00  0.00    +0.000 OA
ATOM     34  H   UNL     1      -3.159  13.512  18.096  0.00  0.00    +0.000 HD
ENDBRANCH   4  33
BRANCH  11  35
ATOM     35  O   UNL     1      -0.942  13.711  24.030  0.00  0.00    +0.000 OA
ATOM     36  C   UNL     1      -2.253  14.244  24.212  0.00  0.00    +0.000 C 
ENDBRANCH  11  35
TORSDOF 11
ENDMDL
MODEL 9
REMARK VINA RESULT:      -6.2      3.049      7.583
REMARK  Name = 
REMARK  15 active torsions:
REMARK  status: ('A' for Active; 'I' for Inactive)
REMARK    1  A    between atoms: C_1  and  C_2
REMARK    2  A    between atoms: C_2  and  C_3
REMARK    3  A    between atoms: C_3  and  C_4
REMARK    4  A    between atoms: C_4  and  C_5
REMARK    5  A    between atoms: C_5  and  C_6
REMARK    6  A    between atoms: C_6  and  O_7
REMARK    7  A    between atoms: O_7  and  C_8
REMARK    8  A    between atoms: C_8  and  C_10
REMARK    9  A    between atoms: C_11  and  C_12
REMARK   10  A    between atoms: C_14  and  O_15
REMARK   11  A    between atoms: O_15  and  C_16
REMARK   12  A    between atoms: C_17  and  O_18
REMARK   13  A    between atoms: C_25  and  O_26
REMARK   14  A    between atoms: O_26  and  C_27
REMARK   15  A    between atoms: N_34  and  C_35
REMARK                            x       y       z     vdW  Elec       q    Type
REMARK                         _______ _______ _______ _____ _____    ______ ____
ROOT
ATOM      1  C   UNL     1      -3.153  12.382  20.721  0.00  0.00    +0.000 A 
ATOM      2  C   UNL     1      -3.968  12.262  19.601  0.00  0.00    +0.000 A 
ATOM      3  C   UNL     1      -3.395  11.933  18.378  0.00  0.00    +0.000 A 
ATOM      4  C   UNL     1      -1.989  11.970  18.238  0.00  0.00    +0.000 A 
ATOM      5  C   UNL     1      -1.143  12.147  19.341  0.00  0.00    +0.000 A 
ATOM      6  C   UNL     1      -1.780  12.121  20.604  0.00  0.00    +0.000 A 
ATOM      7  C   UNL     1      -1.054  11.605  21.840  0.00  0.00    +0.000 C 
ATOM      8  C   UNL     1       0.330  11.061  21.456  0.00  0.00    +0.000 C 
ATOM      9  C   UNL     1       1.039  12.201  20.702  0.00  0.00    +0.000 C 
ATOM     10  C   UNL     1       0.954  13.591  21.337  0.00  0.00    +0.000 C 
ATOM     11  C   UNL     1       1.830  14.473  20.818  0.00  0.00    +0.000 C 
ATOM     12  C   UNL     1       1.312  14.769  19.421  0.00  0.00    +0.000 C 
ATOM     13  O   UNL     1       1.374  15.926  19.000  0.00  0.00    +0.000 OA
ATOM     14  C   UNL     1       0.866  13.583  18.545  0.00  0.00    +0.000 C 
ATOM     15  C   UNL     1       0.423  12.255  19.269  0.00  0.00    +0.000 C 
ATOM     16  C   UNL     1       1.041  11.011  18.566  0.00  0.00    +0.000 C 
ATOM     17  C   UNL     1       1.023   9.743  19.449  0.00  0.00    +0.000 C 
ATOM     18  N   UNL     1       0.142   9.858  20.603  0.00  0.00    +0.000 NA
ATOM     19  C   UNL     1      -0.025   8.618  21.338  0.00  0.00    +0.000 C 
ENDROOT
BRANCH   1  21
ATOM     20  C   UNL     1      -5.004  12.951  22.163  0.00  0.00    +0.000 C 
ATOM     21  C   UNL     1      -3.670  12.875  21.998  0.00  0.00    +0.000 C 
BRANCH  20  22
ATOM     22  C   UNL     1      -5.568  13.491  23.408  0.00  0.00    +0.000 C 
ATOM     23  O   UNL     1      -5.359  13.062  24.527  0.00  0.00    +0.000 OA
BRANCH  22  24
ATOM     24  O   UNL     1      -6.469  14.447  23.066  0.00  0.00    +0.000 OA
BRANCH  24  25
ATOM     25  C   UNL     1      -5.888  15.588  22.431  0.00  0.00    +0.000 C 
BRANCH  25  26
ATOM     26  C   UNL     1      -4.988  16.411  23.347  0.00  0.00    +0.000 C 
BRANCH  26  27
ATOM     27  C   UNL     1      -3.628  16.593  22.663  0.00  0.00    +0.000 C 
BRANCH  27  28
ATOM     28  C   UNL     1      -3.663  16.356  21.156  0.00  0.00    +0.000 C 
BRANCH  28  30
ATOM     29  C   UNL     1      -1.174  16.612  21.518  0.00  0.00    +0.000 C 
ATOM     30  C   UNL     1      -2.261  16.026  20.633  0.00  0.00    +0.000 C 
ENDBRANCH  28  30
ENDBRANCH  27  28
ENDBRANCH  26  27
ENDBRANCH  25  26
ENDBRANCH  24  25
ENDBRANCH  22  24
ENDBRANCH  20  22
ENDBRANCH   1  21
BRANCH   3  31
ATOM     31  O   UNL     1      -4.104  11.583  17.250  0.00  0.00    +0.000 OA
ATOM     32  C   UNL     1      -5.487  11.942  17.252  0.00  0.00    +0.000 C 
ENDBRANCH   3  31
BRANCH   4  33
ATOM     33  O   UNL     1      -1.462  11.747  16.992  0.00  0.00    +0.000 OA
ATOM     34  H   UNL     1      -0.570  11.380  17.158  0.00  0.00    +0.000 HD
ENDBRANCH   4  33
BRANCH  11  35
ATOM     35  O   UNL     1       3.184  14.212  20.894  0.00  0.00    +0.000 OA
ATOM     36  C   UNL     1       3.720  14.807  22.076  0.00  0.00    +0.000 C 
ENDBRANCH  11  35
TORSDOF 11
ENDMDL
