MODEL 1
REMARK VINA RESULT:     -10.0      0.000      0.000
REMARK  Name = 
REMARK  6 active torsions:
REMARK  status: ('A' for Active; 'I' for Inactive)
REMARK    1  A    between atoms: O_1  and  C_2
REMARK    2  A    between atoms: C_2  and  C_3
REMARK    3  A    between atoms: N_10  and  C_11
REMARK    4  A    between atoms: N_17  and  C_18
REMARK    5  A    between atoms: C_18  and  C_19
REMARK    6  A    between atoms: C_19  and  C_20
REMARK                            x       y       z     vdW  Elec       q    Type
REMARK                         _______ _______ _______ _____ _____    ______ ____
ROOT
ATOM      1  C   UNL     1       3.199   3.021  19.826  0.00  0.00    +0.000 C 
ATOM      2  C   UNL     1       2.346   3.448  21.018  0.00  0.00    +0.000 C 
ATOM      3  S   UNL     1       1.729   5.081  20.596  0.00  0.00    +0.000 S 
ATOM      4  C   UNL     1       3.028   5.392  19.397  0.00  0.00    +0.000 C 
ATOM      5  N   UNL     1       3.117   6.500  18.729  0.00  0.00    +0.000 NA
ATOM      6  N   UNL     1       3.843   4.264  19.335  0.00  0.00    +0.000 N 
ENDROOT
BRANCH   5   7
ATOM      7  C   UNL     1       2.255   7.604  18.958  0.00  0.00    +0.000 A 
ATOM      8  C   UNL     1       1.853   8.402  17.882  0.00  0.00    +0.000 A 
ATOM      9  C   UNL     1       1.079   9.558  18.070  0.00  0.00    +0.000 A 
ATOM     10  C   UNL     1       0.689   9.946  19.354  0.00  0.00    +0.000 A 
ATOM     11  C   UNL     1       1.040   9.131  20.435  0.00  0.00    +0.000 A 
ATOM     12  C   UNL     1       1.774   7.952  20.228  0.00  0.00    +0.000 A 
ENDBRANCH   5   7
BRANCH   1  13
ATOM     13  C   UNL     1       2.329   2.258  18.755  0.00  0.00    +0.000 C 
ATOM     14  F   UNL     1       3.124   1.366  18.086  0.00  0.00    +0.000 F 
ATOM     15  F   UNL     1       1.316   1.534  19.287  0.00  0.00    +0.000 F 
ATOM     16  F   UNL     1       1.801   3.070  17.813  0.00  0.00    +0.000 F 
ENDBRANCH   1  13
BRANCH   1  17
ATOM     17  O   UNL     1       4.221   2.156  20.372  0.00  0.00    +0.000 OA
ATOM     18  H   UNL     1       5.074   2.468  20.017  0.00  0.00    +0.000 HD
ENDBRANCH   1  17
BRANCH   6  19
ATOM     19  C   UNL     1       5.001   4.038  18.482  0.00  0.00    +0.000 C 
BRANCH  19  20
ATOM     20  C   UNL     1       4.841   4.016  16.978  0.00  0.00    +0.000 C 
BRANCH  20  21
ATOM     21  C   UNL     1       5.924   4.349  16.003  0.00  0.00    +0.000 A 
ATOM     22  C   UNL     1       7.040   5.023  16.458  0.00  0.00    +0.000 A 
ATOM     23  N   UNL     1       7.584   5.662  15.393  0.00  0.00    +0.000 N 
ATOM     24  C   UNL     1       7.226   4.998  14.252  0.00  0.00    +0.000 A 
ATOM     25  C   UNL     1       7.803   5.080  12.982  0.00  0.00    +0.000 A 
ATOM     26  C   UNL     1       7.247   4.297  11.978  0.00  0.00    +0.000 A 
ATOM     27  C   UNL     1       6.100   3.549  12.227  0.00  0.00    +0.000 A 
ATOM     28  C   UNL     1       5.497   3.518  13.503  0.00  0.00    +0.000 A 
ATOM     29  C   UNL     1       6.115   4.204  14.575  0.00  0.00    +0.000 A 
ATOM     30  H   UNL     1       8.222   6.443  15.442  0.00  0.00    +0.000 HD
ENDBRANCH  20  21
ENDBRANCH  19  20
ENDBRANCH   6  19
TORSDOF 6
ENDMDL
MODEL 2
REMARK VINA RESULT:      -9.9      0.168      1.162
REMARK  Name = 
REMARK  6 active torsions:
REMARK  status: ('A' for Active; 'I' for Inactive)
REMARK    1  A    between atoms: O_1  and  C_2
REMARK    2  A    between atoms: C_2  and  C_3
REMARK    3  A    between atoms: N_10  and  C_11
REMARK    4  A    between atoms: N_17  and  C_18
REMARK    5  A    between atoms: C_18  and  C_19
REMARK    6  A    between atoms: C_19  and  C_20
REMARK                            x       y       z     vdW  Elec       q    Type
REMARK                         _______ _______ _______ _____ _____    ______ ____
ROOT
ATOM      1  C   UNL     1       3.121   3.125  19.687  0.00  0.00    +0.000 C 
ATOM      2  C   UNL     1       2.257   3.547  20.874  0.00  0.00    +0.000 C 
ATOM      3  S   UNL     1       1.681   5.200  20.476  0.00  0.00    +0.000 S 
ATOM      4  C   UNL     1       3.004   5.508  19.303  0.00  0.00    +0.000 C 
ATOM      5  N   UNL     1       3.127   6.626  18.658  0.00  0.00    +0.000 NA
ATOM      6  N   UNL     1       3.797   4.365  19.232  0.00  0.00    +0.000 N 
ENDROOT
BRANCH   5   7
ATOM      7  C   UNL     1       2.285   7.743  18.896  0.00  0.00    +0.000 A 
ATOM      8  C   UNL     1       1.870   8.032  20.200  0.00  0.00    +0.000 A 
ATOM      9  C   UNL     1       0.964   9.069  20.474  0.00  0.00    +0.000 A 
ATOM     10  C   UNL     1       0.444   9.845  19.434  0.00  0.00    +0.000 A 
ATOM     11  C   UNL     1       0.887   9.601  18.131  0.00  0.00    +0.000 A 
ATOM     12  C   UNL     1       1.831   8.593  17.877  0.00  0.00    +0.000 A 
ENDBRANCH   5   7
BRANCH   1  13
ATOM     13  C   UNL     1       2.252   2.402  18.589  0.00  0.00    +0.000 C 
ATOM     14  F   UNL     1       1.234   1.719  19.201  0.00  0.00    +0.000 F 
ATOM     15  F   UNL     1       1.663   3.247  17.711  0.00  0.00    +0.000 F 
ATOM     16  F   UNL     1       2.942   1.485  17.875  0.00  0.00    +0.000 F 
ENDBRANCH   1  13
BRANCH   1  17
ATOM     17  O   UNL     1       4.116   2.229  20.232  0.00  0.00    +0.000 OA
ATOM     18  H   UNL     1       4.550   1.796  19.475  0.00  0.00    +0.000 HD
ENDBRANCH   1  17
BRANCH   6  19
ATOM     19  C   UNL     1       4.964   4.131  18.392  0.00  0.00    +0.000 C 
BRANCH  19  20
ATOM     20  C   UNL     1       4.815   4.072  16.888  0.00  0.00    +0.000 C 
BRANCH  20  21
ATOM     21  C   UNL     1       5.901   4.390  15.913  0.00  0.00    +0.000 A 
ATOM     22  C   UNL     1       7.011   5.081  16.360  0.00  0.00    +0.000 A 
ATOM     23  N   UNL     1       7.558   5.701  15.286  0.00  0.00    +0.000 N 
ATOM     24  C   UNL     1       7.211   5.010  14.157  0.00  0.00    +0.000 A 
ATOM     25  C   UNL     1       7.796   5.070  12.888  0.00  0.00    +0.000 A 
ATOM     26  C   UNL     1       7.250   4.262  11.898  0.00  0.00    +0.000 A 
ATOM     27  C   UNL     1       6.106   3.512  12.155  0.00  0.00    +0.000 A 
ATOM     28  C   UNL     1       5.496   3.505  13.429  0.00  0.00    +0.000 A 
ATOM     29  C   UNL     1       6.102   4.217  14.489  0.00  0.00    +0.000 A 
ATOM     30  H   UNL     1       8.191   6.486  15.322  0.00  0.00    +0.000 HD
ENDBRANCH  20  21
ENDBRANCH  19  20
ENDBRANCH   6  19
TORSDOF 6
ENDMDL
MODEL 3
REMARK VINA RESULT:      -9.3      3.072      5.780
REMARK  Name = 
REMARK  6 active torsions:
REMARK  status: ('A' for Active; 'I' for Inactive)
REMARK    1  A    between atoms: O_1  and  C_2
REMARK    2  A    between atoms: C_2  and  C_3
REMARK    3  A    between atoms: N_10  and  C_11
REMARK    4  A    between atoms: N_17  and  C_18
REMARK    5  A    between atoms: C_18  and  C_19
REMARK    6  A    between atoms: C_19  and  C_20
REMARK                            x       y       z     vdW  Elec       q    Type
REMARK                         _______ _______ _______ _____ _____    ______ ____
ROOT
ATOM      1  C   UNL     1       6.915   5.836  16.823  0.00  0.00    +0.000 C 
ATOM      2  C   UNL     1       7.104   7.346  16.938  0.00  0.00    +0.000 C 
ATOM      3  S   UNL     1       5.630   7.947  17.768  0.00  0.00    +0.000 S 
ATOM      4  C   UNL     1       4.649   6.513  17.318  0.00  0.00    +0.000 C 
ATOM      5  N   UNL     1       3.403   6.380  17.653  0.00  0.00    +0.000 NA
ATOM      6  N   UNL     1       5.461   5.637  16.601  0.00  0.00    +0.000 N 
ENDROOT
BRANCH   5   7
ATOM      7  C   UNL     1       2.676   7.400  18.319  0.00  0.00    +0.000 A 
ATOM      8  C   UNL     1       2.352   7.248  19.671  0.00  0.00    +0.000 A 
ATOM      9  C   UNL     1       1.555   8.185  20.348  0.00  0.00    +0.000 A 
ATOM     10  C   UNL     1       1.057   9.305  19.677  0.00  0.00    +0.000 A 
ATOM     11  C   UNL     1       1.414   9.497  18.339  0.00  0.00    +0.000 A 
ATOM     12  C   UNL     1       2.251   8.577  17.687  0.00  0.00    +0.000 A 
ENDBRANCH   5   7
BRANCH   1  13
ATOM     13  C   UNL     1       7.500   5.097  18.086  0.00  0.00    +0.000 C 
ATOM     14  F   UNL     1       8.287   5.970  18.790  0.00  0.00    +0.000 F 
ATOM     15  F   UNL     1       6.556   4.660  18.952  0.00  0.00    +0.000 F 
ATOM     16  F   UNL     1       8.290   4.046  17.777  0.00  0.00    +0.000 F 
ENDBRANCH   1  13
BRANCH   1  17
ATOM     17  O   UNL     1       7.623   5.447  15.623  0.00  0.00    +0.000 OA
ATOM     18  H   UNL     1       8.552   5.715  15.745  0.00  0.00    +0.000 HD
ENDBRANCH   1  17
BRANCH   6  19
ATOM     19  C   UNL     1       5.116   4.330  16.059  0.00  0.00    +0.000 C 
BRANCH  19  20
ATOM     20  C   UNL     1       4.672   3.219  16.985  0.00  0.00    +0.000 C 
BRANCH  20  21
ATOM     21  C   UNL     1       3.381   3.205  17.739  0.00  0.00    +0.000 A 
ATOM     22  C   UNL     1       2.208   3.435  17.046  0.00  0.00    +0.000 A 
ATOM     23  N   UNL     1       1.299   3.896  17.940  0.00  0.00    +0.000 N 
ATOM     24  C   UNL     1       1.641   3.447  19.186  0.00  0.00    +0.000 A 
ATOM     25  C   UNL     1       0.846   3.384  20.334  0.00  0.00    +0.000 A 
ATOM     26  C   UNL     1       1.436   2.885  21.489  0.00  0.00    +0.000 A 
ATOM     27  C   UNL     1       2.790   2.564  21.503  0.00  0.00    +0.000 A 
ATOM     28  C   UNL     1       3.592   2.684  20.347  0.00  0.00    +0.000 A 
ATOM     29  C   UNL     1       2.991   3.068  19.126  0.00  0.00    +0.000 A 
ATOM     30  H   UNL     1       0.460   4.409  17.710  0.00  0.00    +0.000 HD
ENDBRANCH  20  21
ENDBRANCH  19  20
ENDBRANCH   6  19
TORSDOF 6
ENDMDL
MODEL 4
REMARK VINA RESULT:      -9.2      2.333      7.616
REMARK  Name = 
REMARK  6 active torsions:
REMARK  status: ('A' for Active; 'I' for Inactive)
REMARK    1  A    between atoms: O_1  and  C_2
REMARK    2  A    between atoms: C_2  and  C_3
REMARK    3  A    between atoms: N_10  and  C_11
REMARK    4  A    between atoms: N_17  and  C_18
REMARK    5  A    between atoms: C_18  and  C_19
REMARK    6  A    between atoms: C_19  and  C_20
REMARK                            x       y       z     vdW  Elec       q    Type
REMARK                         _______ _______ _______ _____ _____    ______ ____
ROOT
ATOM      1  C   UNL     1       1.609   3.703  20.014  0.00  0.00    +0.000 C 
ATOM      2  C   UNL     1       1.680   2.752  18.821  0.00  0.00    +0.000 C 
ATOM      3  S   UNL     1       3.206   3.171  17.973  0.00  0.00    +0.000 S 
ATOM      4  C   UNL     1       3.286   4.819  18.680  0.00  0.00    +0.000 C 
ATOM      5  N   UNL     1       4.235   5.657  18.402  0.00  0.00    +0.000 NA
ATOM      6  N   UNL     1       2.200   4.978  19.537  0.00  0.00    +0.000 N 
ENDROOT
BRANCH   5   7
ATOM      7  C   UNL     1       5.240   5.386  17.438  0.00  0.00    +0.000 A 
ATOM      8  C   UNL     1       4.995   5.656  16.088  0.00  0.00    +0.000 A 
ATOM      9  C   UNL     1       5.921   5.319  15.088  0.00  0.00    +0.000 A 
ATOM     10  C   UNL     1       7.125   4.692  15.422  0.00  0.00    +0.000 A 
ATOM     11  C   UNL     1       7.406   4.461  16.772  0.00  0.00    +0.000 A 
ATOM     12  C   UNL     1       6.493   4.848  17.765  0.00  0.00    +0.000 A 
ENDBRANCH   5   7
BRANCH   1  13
ATOM     13  C   UNL     1       2.314   3.076  21.276  0.00  0.00    +0.000 C 
ATOM     14  F   UNL     1       1.519   2.085  21.787  0.00  0.00    +0.000 F 
ATOM     15  F   UNL     1       3.508   2.498  21.007  0.00  0.00    +0.000 F 
ATOM     16  F   UNL     1       2.504   3.959  22.280  0.00  0.00    +0.000 F 
ENDBRANCH   1  13
BRANCH   1  17
ATOM     17  O   UNL     1       0.199   3.910  20.259  0.00  0.00    +0.000 OA
ATOM     18  H   UNL     1      -0.198   3.029  20.384  0.00  0.00    +0.000 HD
ENDBRANCH   1  17
BRANCH   6  19
ATOM     19  C   UNL     1       1.865   6.132  20.359  0.00  0.00    +0.000 C 
BRANCH  19  20
ATOM     20  C   UNL     1       2.163   7.529  19.861  0.00  0.00    +0.000 C 
BRANCH  20  21
ATOM     21  C   UNL     1       1.270   8.711  20.061  0.00  0.00    +0.000 A 
ATOM     22  C   UNL     1       1.023   9.543  18.985  0.00  0.00    +0.000 A 
ATOM     23  N   UNL     1       0.678  10.754  19.486  0.00  0.00    +0.000 N 
ATOM     24  C   UNL     1       0.163  10.580  20.742  0.00  0.00    +0.000 A 
ATOM     25  C   UNL     1      -0.613  11.468  21.493  0.00  0.00    +0.000 A 
ATOM     26  C   UNL     1      -1.014  11.050  22.756  0.00  0.00    +0.000 A 
ATOM     27  C   UNL     1      -0.563   9.838  23.270  0.00  0.00    +0.000 A 
ATOM     28  C   UNL     1       0.265   8.976  22.518  0.00  0.00    +0.000 A 
ATOM     29  C   UNL     1       0.584   9.316  21.183  0.00  0.00    +0.000 A 
ATOM     30  H   UNL     1       0.711  11.627  18.982  0.00  0.00    +0.000 HD
ENDBRANCH  20  21
ENDBRANCH  19  20
ENDBRANCH   6  19
TORSDOF 6
ENDMDL
MODEL 5
REMARK VINA RESULT:      -9.2      2.305      7.599
REMARK  Name = 
REMARK  6 active torsions:
REMARK  status: ('A' for Active; 'I' for Inactive)
REMARK    1  A    between atoms: O_1  and  C_2
REMARK    2  A    between atoms: C_2  and  C_3
REMARK    3  A    between atoms: N_10  and  C_11
REMARK    4  A    between atoms: N_17  and  C_18
REMARK    5  A    between atoms: C_18  and  C_19
REMARK    6  A    between atoms: C_19  and  C_20
REMARK                            x       y       z     vdW  Elec       q    Type
REMARK                         _______ _______ _______ _____ _____    ______ ____
ROOT
ATOM      1  C   UNL     1       1.572   3.571  20.061  0.00  0.00    +0.000 C 
ATOM      2  C   UNL     1       1.641   2.584  18.898  0.00  0.00    +0.000 C 
ATOM      3  S   UNL     1       3.156   2.988  18.024  0.00  0.00    +0.000 S 
ATOM      4  C   UNL     1       3.229   4.658  18.679  0.00  0.00    +0.000 C 
ATOM      5  N   UNL     1       4.169   5.495  18.367  0.00  0.00    +0.000 NA
ATOM      6  N   UNL     1       2.149   4.835  19.540  0.00  0.00    +0.000 N 
ENDROOT
BRANCH   5   7
ATOM      7  C   UNL     1       5.168   5.201  17.404  0.00  0.00    +0.000 A 
ATOM      8  C   UNL     1       6.415   4.724  17.823  0.00  0.00    +0.000 A 
ATOM      9  C   UNL     1       7.465   4.508  16.917  0.00  0.00    +0.000 A 
ATOM     10  C   UNL     1       7.289   4.771  15.556  0.00  0.00    +0.000 A 
ATOM     11  C   UNL     1       6.033   5.199  15.114  0.00  0.00    +0.000 A 
ATOM     12  C   UNL     1       4.977   5.365  16.025  0.00  0.00    +0.000 A 
ENDBRANCH   5   7
BRANCH   1  13
ATOM     13  C   UNL     1       2.293   2.990  21.337  0.00  0.00    +0.000 C 
ATOM     14  F   UNL     1       2.483   3.999  22.243  0.00  0.00    +0.000 F 
ATOM     15  F   UNL     1       1.582   2.035  21.981  0.00  0.00    +0.000 F 
ATOM     16  F   UNL     1       3.518   2.483  21.078  0.00  0.00    +0.000 F 
ENDBRANCH   1  13
BRANCH   1  17
ATOM     17  O   UNL     1       0.162   3.775  20.312  0.00  0.00    +0.000 OA
ATOM     18  H   UNL     1      -0.257   3.938  19.447  0.00  0.00    +0.000 HD
ENDBRANCH   1  17
BRANCH   6  19
ATOM     19  C   UNL     1       1.812   6.012  20.329  0.00  0.00    +0.000 C 
BRANCH  19  20
ATOM     20  C   UNL     1       2.189   7.390  19.833  0.00  0.00    +0.000 C 
BRANCH  20  21
ATOM     21  C   UNL     1       1.363   8.620  20.030  0.00  0.00    +0.000 A 
ATOM     22  C   UNL     1       1.194   9.482  18.962  0.00  0.00    +0.000 A 
ATOM     23  N   UNL     1       0.909  10.704  19.475  0.00  0.00    +0.000 N 
ATOM     24  C   UNL     1       0.353  10.541  20.714  0.00  0.00    +0.000 A 
ATOM     25  C   UNL     1      -0.388  11.463  21.461  0.00  0.00    +0.000 A 
ATOM     26  C   UNL     1      -0.845  11.051  22.707  0.00  0.00    +0.000 A 
ATOM     27  C   UNL     1      -0.481   9.806  23.211  0.00  0.00    +0.000 A 
ATOM     28  C   UNL     1       0.313   8.908  22.465  0.00  0.00    +0.000 A 
ATOM     29  C   UNL     1       0.686   9.248  21.144  0.00  0.00    +0.000 A 
ATOM     30  H   UNL     1       1.007  11.581  18.986  0.00  0.00    +0.000 HD
ENDBRANCH  20  21
ENDBRANCH  19  20
ENDBRANCH   6  19
TORSDOF 6
ENDMDL
MODEL 6
REMARK VINA RESULT:      -9.0      0.814      1.121
REMARK  Name = 
REMARK  6 active torsions:
REMARK  status: ('A' for Active; 'I' for Inactive)
REMARK    1  A    between atoms: O_1  and  C_2
REMARK    2  A    between atoms: C_2  and  C_3
REMARK    3  A    between atoms: N_10  and  C_11
REMARK    4  A    between atoms: N_17  and  C_18
REMARK    5  A    between atoms: C_18  and  C_19
REMARK    6  A    between atoms: C_19  and  C_20
REMARK                            x       y       z     vdW  Elec       q    Type
REMARK                         _______ _______ _______ _____ _____    ______ ____
ROOT
ATOM      1  C   UNL     1       3.394   3.696  19.397  0.00  0.00    +0.000 C 
ATOM      2  C   UNL     1       2.540   3.831  20.656  0.00  0.00    +0.000 C 
ATOM      3  S   UNL     1       1.708   5.414  20.495  0.00  0.00    +0.000 S 
ATOM      4  C   UNL     1       2.910   6.063  19.331  0.00  0.00    +0.000 C 
ATOM      5  N   UNL     1       2.834   7.258  18.835  0.00  0.00    +0.000 NA
ATOM      6  N   UNL     1       3.858   5.071  19.086  0.00  0.00    +0.000 N 
ENDROOT
BRANCH   5   7
ATOM      7  C   UNL     1       1.851   8.195  19.243  0.00  0.00    +0.000 A 
ATOM      8  C   UNL     1       1.149   8.926  18.278  0.00  0.00    +0.000 A 
ATOM      9  C   UNL     1       0.235   9.930  18.634  0.00  0.00    +0.000 A 
ATOM     10  C   UNL     1       0.003  10.231  19.979  0.00  0.00    +0.000 A 
ATOM     11  C   UNL     1       0.659   9.475  20.955  0.00  0.00    +0.000 A 
ATOM     12  C   UNL     1       1.534   8.441  20.586  0.00  0.00    +0.000 A 
ENDBRANCH   5   7
BRANCH   1  13
ATOM     13  C   UNL     1       2.586   2.991  18.241  0.00  0.00    +0.000 C 
ATOM     14  F   UNL     1       1.955   3.947  17.490  0.00  0.00    +0.000 F 
ATOM     15  F   UNL     1       3.359   2.287  17.382  0.00  0.00    +0.000 F 
ATOM     16  F   UNL     1       1.616   2.166  18.690  0.00  0.00    +0.000 F 
ENDBRANCH   1  13
BRANCH   1  17
ATOM     17  O   UNL     1       4.537   2.901  19.788  0.00  0.00    +0.000 OA
ATOM     18  H   UNL     1       4.800   3.204  20.677  0.00  0.00    +0.000 HD
ENDBRANCH   1  17
BRANCH   6  19
ATOM     19  C   UNL     1       5.001   5.123  18.187  0.00  0.00    +0.000 C 
BRANCH  19  20
ATOM     20  C   UNL     1       4.787   5.261  16.695  0.00  0.00    +0.000 C 
BRANCH  20  21
ATOM     21  C   UNL     1       5.829   4.994  15.658  0.00  0.00    +0.000 A 
ATOM     22  C   UNL     1       7.130   5.383  15.912  0.00  0.00    +0.000 A 
ATOM     23  N   UNL     1       7.742   5.541  14.713  0.00  0.00    +0.000 N 
ATOM     24  C   UNL     1       7.105   4.760  13.788  0.00  0.00    +0.000 A 
ATOM     25  C   UNL     1       7.567   4.346  12.535  0.00  0.00    +0.000 A 
ATOM     26  C   UNL     1       6.719   3.550  11.775  0.00  0.00    +0.000 A 
ATOM     27  C   UNL     1       5.429   3.276  12.220  0.00  0.00    +0.000 A 
ATOM     28  C   UNL     1       4.959   3.747  13.466  0.00  0.00    +0.000 A 
ATOM     29  C   UNL     1       5.842   4.451  14.316  0.00  0.00    +0.000 A 
ATOM     30  H   UNL     1       8.584   6.075  14.550  0.00  0.00    +0.000 HD
ENDBRANCH  20  21
ENDBRANCH  19  20
ENDBRANCH   6  19
TORSDOF 6
ENDMDL
MODEL 7
REMARK VINA RESULT:      -9.0      2.232      7.020
REMARK  Name = 
REMARK  6 active torsions:
REMARK  status: ('A' for Active; 'I' for Inactive)
REMARK    1  A    between atoms: O_1  and  C_2
REMARK    2  A    between atoms: C_2  and  C_3
REMARK    3  A    between atoms: N_10  and  C_11
REMARK    4  A    between atoms: N_17  and  C_18
REMARK    5  A    between atoms: C_18  and  C_19
REMARK    6  A    between atoms: C_19  and  C_20
REMARK                            x       y       z     vdW  Elec       q    Type
REMARK                         _______ _______ _______ _____ _____    ______ ____
ROOT
ATOM      1  C   UNL     1       1.606   3.300  20.003  0.00  0.00    +0.000 C 
ATOM      2  C   UNL     1       1.779   2.235  18.922  0.00  0.00    +0.000 C 
ATOM      3  S   UNL     1       3.265   2.702  18.030  0.00  0.00    +0.000 S 
ATOM      4  C   UNL     1       3.181   4.418  18.551  0.00  0.00    +0.000 C 
ATOM      5  N   UNL     1       4.048   5.308  18.180  0.00  0.00    +0.000 NA
ATOM      6  N   UNL     1       2.077   4.565  19.387  0.00  0.00    +0.000 N 
ENDROOT
BRANCH   5   7
ATOM      7  C   UNL     1       5.083   5.029  17.250  0.00  0.00    +0.000 A 
ATOM      8  C   UNL     1       6.363   4.711  17.715  0.00  0.00    +0.000 A 
ATOM      9  C   UNL     1       7.441   4.519  16.836  0.00  0.00    +0.000 A 
ATOM     10  C   UNL     1       7.258   4.647  15.456  0.00  0.00    +0.000 A 
ATOM     11  C   UNL     1       5.974   4.915  14.974  0.00  0.00    +0.000 A 
ATOM     12  C   UNL     1       4.895   5.056  15.861  0.00  0.00    +0.000 A 
ENDBRANCH   5   7
BRANCH   1  13
ATOM     13  C   UNL     1       2.357   2.886  21.326  0.00  0.00    +0.000 C 
ATOM     14  F   UNL     1       2.508   3.993  22.119  0.00  0.00    +0.000 F 
ATOM     15  F   UNL     1       1.691   1.976  22.073  0.00  0.00    +0.000 F 
ATOM     16  F   UNL     1       3.602   2.407  21.110  0.00  0.00    +0.000 F 
ENDBRANCH   1  13
BRANCH   1  17
ATOM     17  O   UNL     1       0.181   3.397  20.226  0.00  0.00    +0.000 OA
ATOM     18  H   UNL     1       0.060   3.706  21.143  0.00  0.00    +0.000 HD
ENDBRANCH   1  17
BRANCH   6  19
ATOM     19  C   UNL     1       1.626   5.766  20.078  0.00  0.00    +0.000 C 
BRANCH  19  20
ATOM     20  C   UNL     1       2.351   7.077  19.868  0.00  0.00    +0.000 C 
BRANCH  20  21
ATOM     21  C   UNL     1       1.734   8.304  19.279  0.00  0.00    +0.000 A 
ATOM     22  C   UNL     1       1.986   8.601  17.953  0.00  0.00    +0.000 A 
ATOM     23  N   UNL     1       1.806   9.936  17.800  0.00  0.00    +0.000 N 
ATOM     24  C   UNL     1       0.943  10.376  18.766  0.00  0.00    +0.000 A 
ATOM     25  C   UNL     1       0.218  11.571  18.803  0.00  0.00    +0.000 A 
ATOM     26  C   UNL     1      -0.596  11.787  19.909  0.00  0.00    +0.000 A 
ATOM     27  C   UNL     1      -0.593  10.885  20.969  0.00  0.00    +0.000 A 
ATOM     28  C   UNL     1       0.187   9.709  20.939  0.00  0.00    +0.000 A 
ATOM     29  C   UNL     1       0.926   9.400  19.773  0.00  0.00    +0.000 A 
ATOM     30  H   UNL     1       2.174  10.494  17.044  0.00  0.00    +0.000 HD
ENDBRANCH  20  21
ENDBRANCH  19  20
ENDBRANCH   6  19
TORSDOF 6
ENDMDL
MODEL 8
REMARK VINA RESULT:      -8.9      2.362      7.512
REMARK  Name = 
REMARK  6 active torsions:
REMARK  status: ('A' for Active; 'I' for Inactive)
REMARK    1  A    between atoms: O_1  and  C_2
REMARK    2  A    between atoms: C_2  and  C_3
REMARK    3  A    between atoms: N_10  and  C_11
REMARK    4  A    between atoms: N_17  and  C_18
REMARK    5  A    between atoms: C_18  and  C_19
REMARK    6  A    between atoms: C_19  and  C_20
REMARK                            x       y       z     vdW  Elec       q    Type
REMARK                         _______ _______ _______ _____ _____    ______ ____
ROOT
ATOM      1  C   UNL     1       1.585   3.659  20.114  0.00  0.00    +0.000 C 
ATOM      2  C   UNL     1       1.641   2.766  18.876  0.00  0.00    +0.000 C 
ATOM      3  S   UNL     1       3.172   3.203  18.047  0.00  0.00    +0.000 S 
ATOM      4  C   UNL     1       3.278   4.813  18.833  0.00  0.00    +0.000 C 
ATOM      5  N   UNL     1       4.238   5.650  18.594  0.00  0.00    +0.000 NA
ATOM      6  N   UNL     1       2.194   4.947  19.699  0.00  0.00    +0.000 N 
ENDROOT
BRANCH   5   7
ATOM      7  C   UNL     1       5.239   5.410  17.617  0.00  0.00    +0.000 A 
ATOM      8  C   UNL     1       4.981   5.711  16.275  0.00  0.00    +0.000 A 
ATOM      9  C   UNL     1       5.902   5.406  15.261  0.00  0.00    +0.000 A 
ATOM     10  C   UNL     1       7.114   4.782  15.570  0.00  0.00    +0.000 A 
ATOM     11  C   UNL     1       7.407   4.521  16.912  0.00  0.00    +0.000 A 
ATOM     12  C   UNL     1       6.498   4.876  17.922  0.00  0.00    +0.000 A 
ENDBRANCH   5   7
BRANCH   1  13
ATOM     13  C   UNL     1       2.282   2.961  21.343  0.00  0.00    +0.000 C 
ATOM     14  F   UNL     1       2.525   3.899  22.311  0.00  0.00    +0.000 F 
ATOM     15  F   UNL     1       1.528   2.003  21.930  0.00  0.00    +0.000 F 
ATOM     16  F   UNL     1       3.479   2.413  21.043  0.00  0.00    +0.000 F 
ENDBRANCH   1  13
BRANCH   1  17
ATOM     17  O   UNL     1       0.178   3.875  20.371  0.00  0.00    +0.000 OA
ATOM     18  H   UNL     1      -0.271   3.025  20.211  0.00  0.00    +0.000 HD
ENDBRANCH   1  17
BRANCH   6  19
ATOM     19  C   UNL     1       1.878   6.064  20.576  0.00  0.00    +0.000 C 
BRANCH  19  20
ATOM     20  C   UNL     1       1.854   7.474  20.029  0.00  0.00    +0.000 C 
BRANCH  20  21
ATOM     21  C   UNL     1       1.195   8.636  20.699  0.00  0.00    +0.000 A 
ATOM     22  C   UNL     1       1.414   8.834  22.049  0.00  0.00    +0.000 A 
ATOM     23  N   UNL     1       0.364   9.546  22.525  0.00  0.00    +0.000 N 
ATOM     24  C   UNL     1      -0.185  10.261  21.496  0.00  0.00    +0.000 A 
ATOM     25  C   UNL     1      -1.045  11.362  21.566  0.00  0.00    +0.000 A 
ATOM     26  C   UNL     1      -1.468  11.915  20.364  0.00  0.00    +0.000 A 
ATOM     27  C   UNL     1      -1.121  11.317  19.155  0.00  0.00    +0.000 A 
ATOM     28  C   UNL     1      -0.294  10.173  19.105  0.00  0.00    +0.000 A 
ATOM     29  C   UNL     1       0.255   9.665  20.305  0.00  0.00    +0.000 A 
ATOM     30  H   UNL     1       0.090   9.608  23.495  0.00  0.00    +0.000 HD
ENDBRANCH  20  21
ENDBRANCH  19  20
ENDBRANCH   6  19
TORSDOF 6
ENDMDL
MODEL 9
REMARK VINA RESULT:      -8.9      0.900      1.305
REMARK  Name = 
REMARK  6 active torsions:
REMARK  status: ('A' for Active; 'I' for Inactive)
REMARK    1  A    between atoms: O_1  and  C_2
REMARK    2  A    between atoms: C_2  and  C_3
REMARK    3  A    between atoms: N_10  and  C_11
REMARK    4  A    between atoms: N_17  and  C_18
REMARK    5  A    between atoms: C_18  and  C_19
REMARK    6  A    between atoms: C_19  and  C_20
REMARK                            x       y       z     vdW  Elec       q    Type
REMARK                         _______ _______ _______ _____ _____    ______ ____
ROOT
ATOM      1  C   UNL     1       2.655   2.946  19.945  0.00  0.00    +0.000 C 
ATOM      2  C   UNL     1       1.386   3.302  20.716  0.00  0.00    +0.000 C 
ATOM      3  S   UNL     1       1.020   5.001  20.265  0.00  0.00    +0.000 S 
ATOM      4  C   UNL     1       2.704   5.354  19.754  0.00  0.00    +0.000 C 
ATOM      5  N   UNL     1       3.076   6.515  19.313  0.00  0.00    +0.000 NA
ATOM      6  N   UNL     1       3.458   4.193  19.909  0.00  0.00    +0.000 N 
ENDROOT
BRANCH   5   7
ATOM      7  C   UNL     1       2.210   7.638  19.288  0.00  0.00    +0.000 A 
ATOM      8  C   UNL     1       1.922   8.262  18.069  0.00  0.00    +0.000 A 
ATOM      9  C   UNL     1       1.147   9.431  18.004  0.00  0.00    +0.000 A 
ATOM     10  C   UNL     1       0.641  10.010  19.172  0.00  0.00    +0.000 A 
ATOM     11  C   UNL     1       0.879   9.370  20.392  0.00  0.00    +0.000 A 
ATOM     12  C   UNL     1       1.614   8.175  20.438  0.00  0.00    +0.000 A 
ENDBRANCH   5   7
BRANCH   1  13
ATOM     13  C   UNL     1       2.302   2.342  18.531  0.00  0.00    +0.000 C 
ATOM     14  F   UNL     1       3.192   1.344  18.237  0.00  0.00    +0.000 F 
ATOM     15  F   UNL     1       1.072   1.782  18.465  0.00  0.00    +0.000 F 
ATOM     16  F   UNL     1       2.399   3.239  17.525  0.00  0.00    +0.000 F 
ENDBRANCH   1  13
BRANCH   1  17
ATOM     17  O   UNL     1       3.345   1.974  20.764  0.00  0.00    +0.000 OA
ATOM     18  H   UNL     1       3.151   1.097  20.385  0.00  0.00    +0.000 HD
ENDBRANCH   1  17
BRANCH   6  19
ATOM     19  C   UNL     1       4.864   3.985  19.592  0.00  0.00    +0.000 C 
BRANCH  19  20
ATOM     20  C   UNL     1       5.730   5.157  19.187  0.00  0.00    +0.000 C 
BRANCH  20  21
ATOM     21  C   UNL     1       6.408   5.297  17.863  0.00  0.00    +0.000 A 
ATOM     22  C   UNL     1       7.466   6.179  17.750  0.00  0.00    +0.000 A 
ATOM     23  N   UNL     1       7.556   6.532  16.444  0.00  0.00    +0.000 N 
ATOM     24  C   UNL     1       7.012   5.535  15.681  0.00  0.00    +0.000 A 
ATOM     25  C   UNL     1       7.176   5.303  14.312  0.00  0.00    +0.000 A 
ATOM     26  C   UNL     1       6.508   4.213  13.768  0.00  0.00    +0.000 A 
ATOM     27  C   UNL     1       5.637   3.461  14.551  0.00  0.00    +0.000 A 
ATOM     28  C   UNL     1       5.442   3.742  15.921  0.00  0.00    +0.000 A 
ATOM     29  C   UNL     1       6.205   4.765  16.532  0.00  0.00    +0.000 A 
ATOM     30  H   UNL     1       8.027   7.352  16.091  0.00  0.00    +0.000 HD
ENDBRANCH  20  21
ENDBRANCH  19  20
ENDBRANCH   6  19
TORSDOF 6
ENDMDL
