MODEL 1
REMARK VINA RESULT:      -6.3      0.000      0.000
REMARK  Name = 
REMARK  1 active torsions:
REMARK  status: ('A' for Active; 'I' for Inactive)
REMARK    1  A    between atoms: C_1  and  C_2
REMARK                            x       y       z     vdW  Elec       q    Type
REMARK                         _______ _______ _______ _____ _____    ______ ____
ROOT
ATOM      1  C   UNL     1       1.395   2.804  21.434  0.00  0.00    +0.000 C 
ATOM      2  C   UNL     1       1.338   2.947  19.929  0.00  0.00    +0.000 C 
ATOM      3  O   UNL     1       1.748   1.764  19.241  0.00  0.00    +0.000 OA
ATOM      4  C   UNL     1       2.341   2.280  18.037  0.00  0.00    +0.000 C 
ATOM      5  C   UNL     1       3.083   3.505  18.537  0.00  0.00    +0.000 C 
ATOM      6  C   UNL     1       4.451   3.103  19.167  0.00  0.00    +0.000 C 
ATOM      7  N   UNL     1       5.470   4.179  18.981  0.00  0.00    +0.000 NA
ATOM      8  C   UNL     1       5.817   4.246  17.542  0.00  0.00    +0.000 C 
ATOM      9  C   UNL     1       4.557   4.315  16.654  0.00  0.00    +0.000 C 
ATOM     10  C   UNL     1       3.346   4.655  17.537  0.00  0.00    +0.000 C 
ATOM     11  C   UNL     1       3.758   5.893  18.371  0.00  0.00    +0.000 C 
ATOM     12  C   UNL     1       4.846   5.466  19.379  0.00  0.00    +0.000 C 
ATOM     13  O   UNL     1       2.190   4.024  19.545  0.00  0.00    +0.000 OA
ENDROOT
TORSDOF 0
ENDMDL
MODEL 2
REMARK VINA RESULT:      -6.1      2.238      3.724
REMARK  Name = 
REMARK  1 active torsions:
REMARK  status: ('A' for Active; 'I' for Inactive)
REMARK    1  A    between atoms: C_1  and  C_2
REMARK                            x       y       z     vdW  Elec       q    Type
REMARK                         _______ _______ _______ _____ _____    ______ ____
ROOT
ATOM      1  C   UNL     1       2.663   3.403  17.215  0.00  0.00    +0.000 C 
ATOM      2  C   UNL     1       3.690   3.638  18.300  0.00  0.00    +0.000 C 
ATOM      3  O   UNL     1       3.367   4.745  19.143  0.00  0.00    +0.000 OA
ATOM      4  C   UNL     1       4.658   5.254  19.516  0.00  0.00    +0.000 C 
ATOM      5  C   UNL     1       5.448   5.120  18.228  0.00  0.00    +0.000 C 
ATOM      6  C   UNL     1       5.138   6.307  17.265  0.00  0.00    +0.000 C 
ATOM      7  N   UNL     1       6.323   6.640  16.418  0.00  0.00    +0.000 NA
ATOM      8  C   UNL     1       7.365   7.232  17.289  0.00  0.00    +0.000 C 
ATOM      9  C   UNL     1       7.622   6.366  18.540  0.00  0.00    +0.000 C 
ATOM     10  C   UNL     1       6.985   4.984  18.326  0.00  0.00    +0.000 C 
ATOM     11  C   UNL     1       7.484   4.492  16.945  0.00  0.00    +0.000 C 
ATOM     12  C   UNL     1       6.844   5.371  15.850  0.00  0.00    +0.000 C 
ATOM     13  O   UNL     1       4.952   3.879  17.683  0.00  0.00    +0.000 OA
ENDROOT
TORSDOF 0
ENDMDL
MODEL 3
REMARK VINA RESULT:      -6.0      2.445      4.247
REMARK  Name = 
REMARK  1 active torsions:
REMARK  status: ('A' for Active; 'I' for Inactive)
REMARK    1  A    between atoms: C_1  and  C_2
REMARK                            x       y       z     vdW  Elec       q    Type
REMARK                         _______ _______ _______ _____ _____    ______ ____
ROOT
ATOM      1  C   UNL     1       7.803   6.001  18.585  0.00  0.00    +0.000 C 
ATOM      2  C   UNL     1       7.206   4.780  17.922  0.00  0.00    +0.000 C 
ATOM      3  O   UNL     1       6.853   5.005  16.556  0.00  0.00    +0.000 OA
ATOM      4  C   UNL     1       5.716   4.146  16.371  0.00  0.00    +0.000 C 
ATOM      5  C   UNL     1       4.968   4.306  17.681  0.00  0.00    +0.000 C 
ATOM      6  C   UNL     1       4.118   5.614  17.674  0.00  0.00    +0.000 C 
ATOM      7  N   UNL     1       2.883   5.460  18.501  0.00  0.00    +0.000 NA
ATOM      8  C   UNL     1       1.975   4.516  17.809  0.00  0.00    +0.000 C 
ATOM      9  C   UNL     1       2.706   3.221  17.398  0.00  0.00    +0.000 C 
ATOM     10  C   UNL     1       4.049   3.151  18.141  0.00  0.00    +0.000 C 
ATOM     11  C   UNL     1       3.725   3.400  19.635  0.00  0.00    +0.000 C 
ATOM     12  C   UNL     1       3.281   4.869  19.803  0.00  0.00    +0.000 C 
ATOM     13  O   UNL     1       6.038   4.399  18.645  0.00  0.00    +0.000 OA
ENDROOT
TORSDOF 0
ENDMDL
MODEL 4
REMARK VINA RESULT:      -6.0      1.958      4.219
REMARK  Name = 
REMARK  1 active torsions:
REMARK  status: ('A' for Active; 'I' for Inactive)
REMARK    1  A    between atoms: C_1  and  C_2
REMARK                            x       y       z     vdW  Elec       q    Type
REMARK                         _______ _______ _______ _____ _____    ______ ____
ROOT
ATOM      1  C   UNL     1       6.557   4.390  15.962  0.00  0.00    +0.000 C 
ATOM      2  C   UNL     1       5.164   4.948  16.147  0.00  0.00    +0.000 C 
ATOM      3  O   UNL     1       5.121   6.048  17.058  0.00  0.00    +0.000 OA
ATOM      4  C   UNL     1       3.822   5.920  17.658  0.00  0.00    +0.000 C 
ATOM      5  C   UNL     1       3.687   4.419  17.831  0.00  0.00    +0.000 C 
ATOM      6  C   UNL     1       4.444   3.940  19.107  0.00  0.00    +0.000 C 
ATOM      7  N   UNL     1       3.778   2.750  19.716  0.00  0.00    +0.000 NA
ATOM      8  C   UNL     1       2.482   3.184  20.288  0.00  0.00    +0.000 C 
ATOM      9  C   UNL     1       1.657   4.003  19.273  0.00  0.00    +0.000 C 
ATOM     10  C   UNL     1       2.264   3.816  17.873  0.00  0.00    +0.000 C 
ATOM     11  C   UNL     1       2.416   2.287  17.674  0.00  0.00    +0.000 C 
ATOM     12  C   UNL     1       3.514   1.774  18.629  0.00  0.00    +0.000 C 
ATOM     13  O   UNL     1       4.322   3.908  16.639  0.00  0.00    +0.000 OA
ENDROOT
TORSDOF 0
ENDMDL
MODEL 5
REMARK VINA RESULT:      -6.0      2.738      4.618
REMARK  Name = 
REMARK  1 active torsions:
REMARK  status: ('A' for Active; 'I' for Inactive)
REMARK    1  A    between atoms: C_1  and  C_2
REMARK                            x       y       z     vdW  Elec       q    Type
REMARK                         _______ _______ _______ _____ _____    ______ ____
ROOT
ATOM      1  C   UNL     1       7.577   7.267  17.579  0.00  0.00    +0.000 C 
ATOM      2  C   UNL     1       7.080   5.980  16.960  0.00  0.00    +0.000 C 
ATOM      3  O   UNL     1       6.394   6.184  15.724  0.00  0.00    +0.000 OA
ATOM      4  C   UNL     1       5.421   5.126  15.715  0.00  0.00    +0.000 C 
ATOM      5  C   UNL     1       4.970   5.085  17.163  0.00  0.00    +0.000 C 
ATOM      6  C   UNL     1       3.916   6.200  17.445  0.00  0.00    +0.000 C 
ATOM      7  N   UNL     1       2.948   5.774  18.500  0.00  0.00    +0.000 NA
ATOM      8  C   UNL     1       2.096   4.697  17.943  0.00  0.00    +0.000 C 
ATOM      9  C   UNL     1       2.940   3.588  17.281  0.00  0.00    +0.000 C 
ATOM     10  C   UNL     1       4.406   3.754  17.713  0.00  0.00    +0.000 C 
ATOM     11  C   UNL     1       4.385   3.876  19.256  0.00  0.00    +0.000 C 
ATOM     12  C   UNL     1       3.730   5.221  19.635  0.00  0.00    +0.000 C 
ATOM     13  O   UNL     1       6.194   5.348  17.881  0.00  0.00    +0.000 OA
ENDROOT
TORSDOF 0
ENDMDL
MODEL 6
REMARK VINA RESULT:      -6.0      1.981      4.165
REMARK  Name = 
REMARK  1 active torsions:
REMARK  status: ('A' for Active; 'I' for Inactive)
REMARK    1  A    between atoms: C_1  and  C_2
REMARK                            x       y       z     vdW  Elec       q    Type
REMARK                         _______ _______ _______ _____ _____    ______ ____
ROOT
ATOM      1  C   UNL     1       5.926   4.032  16.042  0.00  0.00    +0.000 C 
ATOM      2  C   UNL     1       5.249   4.976  17.009  0.00  0.00    +0.000 C 
ATOM      3  O   UNL     1       5.942   5.091  18.253  0.00  0.00    +0.000 OA
ATOM      4  C   UNL     1       4.881   5.327  19.194  0.00  0.00    +0.000 C 
ATOM      5  C   UNL     1       3.788   4.403  18.691  0.00  0.00    +0.000 C 
ATOM      6  C   UNL     1       4.037   2.940  19.172  0.00  0.00    +0.000 C 
ATOM      7  N   UNL     1       2.749   2.210  19.373  0.00  0.00    +0.000 NA
ATOM      8  C   UNL     1       2.062   2.794  20.548  0.00  0.00    +0.000 C 
ATOM      9  C   UNL     1       1.986   4.332  20.458  0.00  0.00    +0.000 C 
ATOM     10  C   UNL     1       2.321   4.763  19.022  0.00  0.00    +0.000 C 
ATOM     11  C   UNL     1       1.425   3.902  18.097  0.00  0.00    +0.000 C 
ATOM     12  C   UNL     1       1.908   2.438  18.170  0.00  0.00    +0.000 C 
ATOM     13  O   UNL     1       3.929   4.499  17.258  0.00  0.00    +0.000 OA
ENDROOT
TORSDOF 0
ENDMDL
MODEL 7
REMARK VINA RESULT:      -5.9      2.104      4.227
REMARK  Name = 
REMARK  1 active torsions:
REMARK  status: ('A' for Active; 'I' for Inactive)
REMARK    1  A    between atoms: C_1  and  C_2
REMARK                            x       y       z     vdW  Elec       q    Type
REMARK                         _______ _______ _______ _____ _____    ______ ____
ROOT
ATOM      1  C   UNL     1       7.507   4.631  17.633  0.00  0.00    +0.000 C 
ATOM      2  C   UNL     1       6.203   4.918  16.923  0.00  0.00    +0.000 C 
ATOM      3  O   UNL     1       5.658   6.197  17.253  0.00  0.00    +0.000 OA
ATOM      4  C   UNL     1       4.240   5.977  17.161  0.00  0.00    +0.000 C 
ATOM      5  C   UNL     1       4.084   4.591  17.759  0.00  0.00    +0.000 C 
ATOM      6  C   UNL     1       4.083   4.659  19.317  0.00  0.00    +0.000 C 
ATOM      7  N   UNL     1       3.237   3.577  19.903  0.00  0.00    +0.000 NA
ATOM      8  C   UNL     1       1.819   3.877  19.594  0.00  0.00    +0.000 C 
ATOM      9  C   UNL     1       1.616   4.187  18.097  0.00  0.00    +0.000 C 
ATOM     10  C   UNL     1       2.867   3.744  17.323  0.00  0.00    +0.000 C 
ATOM     11  C   UNL     1       3.150   2.287  17.767  0.00  0.00    +0.000 C 
ATOM     12  C   UNL     1       3.608   2.302  19.240  0.00  0.00    +0.000 C 
ATOM     13  O   UNL     1       5.262   3.909  17.279  0.00  0.00    +0.000 OA
ENDROOT
TORSDOF 0
ENDMDL
MODEL 8
REMARK VINA RESULT:      -5.9      1.928      3.048
REMARK  Name = 
REMARK  1 active torsions:
REMARK  status: ('A' for Active; 'I' for Inactive)
REMARK    1  A    between atoms: C_1  and  C_2
REMARK                            x       y       z     vdW  Elec       q    Type
REMARK                         _______ _______ _______ _____ _____    ______ ____
ROOT
ATOM      1  C   UNL     1       1.480   4.201  17.840  0.00  0.00    +0.000 C 
ATOM      2  C   UNL     1       2.809   3.486  17.939  0.00  0.00    +0.000 C 
ATOM      3  O   UNL     1       3.401   3.588  19.235  0.00  0.00    +0.000 OA
ATOM      4  C   UNL     1       4.810   3.578  18.949  0.00  0.00    +0.000 C 
ATOM      5  C   UNL     1       4.895   4.426  17.695  0.00  0.00    +0.000 C 
ATOM      6  C   UNL     1       4.868   5.944  18.052  0.00  0.00    +0.000 C 
ATOM      7  N   UNL     1       5.656   6.745  17.068  0.00  0.00    +0.000 NA
ATOM      8  C   UNL     1       7.091   6.425  17.251  0.00  0.00    +0.000 C 
ATOM      9  C   UNL     1       7.337   4.902  17.268  0.00  0.00    +0.000 C 
ATOM     10  C   UNL     1       6.084   4.190  16.735  0.00  0.00    +0.000 C 
ATOM     11  C   UNL     1       5.731   4.889  15.399  0.00  0.00    +0.000 C 
ATOM     12  C   UNL     1       5.245   6.321  15.707  0.00  0.00    +0.000 C 
ATOM     13  O   UNL     1       3.699   4.050  16.979  0.00  0.00    +0.000 OA
ENDROOT
TORSDOF 0
ENDMDL
MODEL 9
REMARK VINA RESULT:      -5.9      2.064      4.179
REMARK  Name = 
REMARK  1 active torsions:
REMARK  status: ('A' for Active; 'I' for Inactive)
REMARK    1  A    between atoms: C_1  and  C_2
REMARK                            x       y       z     vdW  Elec       q    Type
REMARK                         _______ _______ _______ _____ _____    ______ ____
ROOT
ATOM      1  C   UNL     1       7.298   4.485  17.419  0.00  0.00    +0.000 C 
ATOM      2  C   UNL     1       6.045   5.257  17.766  0.00  0.00    +0.000 C 
ATOM      3  O   UNL     1       6.000   5.661  19.136  0.00  0.00    +0.000 OA
ATOM      4  C   UNL     1       4.594   5.642  19.433  0.00  0.00    +0.000 C 
ATOM      5  C   UNL     1       4.121   4.403  18.696  0.00  0.00    +0.000 C 
ATOM      6  C   UNL     1       4.425   3.118  19.525  0.00  0.00    +0.000 C 
ATOM      7  N   UNL     1       3.402   2.058  19.273  0.00  0.00    +0.000 NA
ATOM      8  C   UNL     1       2.120   2.498  19.871  0.00  0.00    +0.000 C 
ATOM      9  C   UNL     1       1.756   3.935  19.444  0.00  0.00    +0.000 C 
ATOM     10  C   UNL     1       2.640   4.340  18.255  0.00  0.00    +0.000 C 
ATOM     11  C   UNL     1       2.525   3.188  17.225  0.00  0.00    +0.000 C 
ATOM     12  C   UNL     1       3.225   1.940  17.804  0.00  0.00    +0.000 C 
ATOM     13  O   UNL     1       4.915   4.432  17.491  0.00  0.00    +0.000 OA
ENDROOT
TORSDOF 0
ENDMDL
