MODEL 1
REMARK VINA RESULT:      -8.3      0.000      0.000
REMARK  Name = 
REMARK  2 active torsions:
REMARK  status: ('A' for Active; 'I' for Inactive)
REMARK    1  A    between atoms: C_8  and  N_9
REMARK    2  A    between atoms: C_10  and  C_12
REMARK                            x       y       z     vdW  Elec       q    Type
REMARK                         _______ _______ _______ _____ _____    ______ ____
ROOT
ATOM      1  N   UNL     1       2.998   6.696  18.726  0.00  0.00    +0.000 N 
ATOM      2  C   UNL     1       2.739   5.372  19.047  0.00  0.00    +0.000 C 
ATOM      3  O   UNL     1       1.731   4.966  19.626  0.00  0.00    +0.000 OA
ATOM      4  H   UNL     1       3.859   6.884  18.220  0.00  0.00    +0.000 HD
ENDROOT
BRANCH   1  12
ATOM      5  O   UNL     1      -0.867  11.949  19.415  0.00  0.00    +0.000 OA
ATOM      6  C   UNL     1      -0.284  11.091  20.048  0.00  0.00    +0.000 C 
ATOM      7  N   UNL     1      -0.235  10.935  21.399  0.00  0.00    +0.000 N 
ATOM      8  C   UNL     1       0.520   9.866  21.766  0.00  0.00    +0.000 C 
ATOM      9  O   UNL     1       0.756   9.471  22.889  0.00  0.00    +0.000 OA
ATOM     10  C   UNL     1       1.012   9.268  20.525  0.00  0.00    +0.000 A 
ATOM     11  C   UNL     1       1.822   8.167  20.334  0.00  0.00    +0.000 A 
ATOM     12  C   UNL     1       2.159   7.804  19.023  0.00  0.00    +0.000 A 
ATOM     13  C   UNL     1       1.654   8.575  17.944  0.00  0.00    +0.000 A 
ATOM     14  C   UNL     1       0.827   9.695  18.164  0.00  0.00    +0.000 A 
ATOM     15  C   UNL     1       0.524  10.015  19.473  0.00  0.00    +0.000 A 
ATOM     16  H   UNL     1      -0.700  11.539  22.057  0.00  0.00    +0.000 HD
ENDBRANCH   1  12
BRANCH   2  17
ATOM     17  C   UNL     1       3.838   4.355  18.716  0.00  0.00    +0.000 C 
ATOM     18  C   UNL     1       5.171   4.837  19.284  0.00  0.00    +0.000 C 
ATOM     19  O   UNL     1       5.841   5.738  18.396  0.00  0.00    +0.000 OA
ATOM     20  C   UNL     1       5.941   5.174  17.154  0.00  0.00    +0.000 A 
ATOM     21  C   UNL     1       7.010   5.564  16.354  0.00  0.00    +0.000 A 
ATOM     22  C   UNL     1       7.165   5.005  15.084  0.00  0.00    +0.000 A 
ATOM     23  C   UNL     1       6.251   4.057  14.621  0.00  0.00    +0.000 A 
ATOM     24  C   UNL     1       5.165   3.689  15.417  0.00  0.00    +0.000 A 
ATOM     25  C   UNL     1       5.000   4.262  16.676  0.00  0.00    +0.000 A 
ATOM     26  O   UNL     1       3.874   3.914  17.365  0.00  0.00    +0.000 OA
ENDBRANCH   2  17
TORSDOF 2
ENDMDL
MODEL 2
REMARK VINA RESULT:      -8.2      1.799      3.104
REMARK  Name = 
REMARK  2 active torsions:
REMARK  status: ('A' for Active; 'I' for Inactive)
REMARK    1  A    between atoms: C_8  and  N_9
REMARK    2  A    between atoms: C_10  and  C_12
REMARK                            x       y       z     vdW  Elec       q    Type
REMARK                         _______ _______ _______ _____ _____    ______ ____
ROOT
ATOM      1  N   UNL     1       3.957   5.300  18.043  0.00  0.00    +0.000 N 
ATOM      2  C   UNL     1       5.231   5.519  17.541  0.00  0.00    +0.000 C 
ATOM      3  O   UNL     1       5.838   6.590  17.585  0.00  0.00    +0.000 OA
ATOM      4  H   UNL     1       3.590   4.356  17.964  0.00  0.00    +0.000 HD
ENDROOT
BRANCH   1  12
ATOM      5  O   UNL     1       0.036   9.305  21.449  0.00  0.00    +0.000 OA
ATOM      6  C   UNL     1       0.676   9.229  20.418  0.00  0.00    +0.000 C 
ATOM      7  N   UNL     1       0.784  10.157  19.429  0.00  0.00    +0.000 N 
ATOM      8  C   UNL     1       1.580   9.733  18.412  0.00  0.00    +0.000 C 
ATOM      9  O   UNL     1       1.868  10.328  17.393  0.00  0.00    +0.000 OA
ATOM     10  C   UNL     1       2.035   8.393  18.780  0.00  0.00    +0.000 A 
ATOM     11  C   UNL     1       2.857   7.519  18.098  0.00  0.00    +0.000 A 
ATOM     12  C   UNL     1       3.134   6.272  18.675  0.00  0.00    +0.000 A 
ATOM     13  C   UNL     1       2.563   5.955  19.935  0.00  0.00    +0.000 A 
ATOM     14  C   UNL     1       1.728   6.865  20.613  0.00  0.00    +0.000 A 
ATOM     15  C   UNL     1       1.483   8.080  20.004  0.00  0.00    +0.000 A 
ATOM     16  H   UNL     1       0.328  11.054  19.441  0.00  0.00    +0.000 HD
ENDBRANCH   1  12
BRANCH   2  17
ATOM     17  C   UNL     1       5.893   4.345  16.809  0.00  0.00    +0.000 C 
ATOM     18  C   UNL     1       7.388   4.613  16.656  0.00  0.00    +0.000 C 
ATOM     19  O   UNL     1       7.679   5.402  15.498  0.00  0.00    +0.000 OA
ATOM     20  C   UNL     1       7.104   4.834  14.395  0.00  0.00    +0.000 A 
ATOM     21  C   UNL     1       7.714   5.056  13.164  0.00  0.00    +0.000 A 
ATOM     22  C   UNL     1       7.174   4.484  12.010  0.00  0.00    +0.000 A 
ATOM     23  C   UNL     1       6.028   3.690  12.094  0.00  0.00    +0.000 A 
ATOM     24  C   UNL     1       5.406   3.492  13.327  0.00  0.00    +0.000 A 
ATOM     25  C   UNL     1       5.933   4.080  14.475  0.00  0.00    +0.000 A 
ATOM     26  O   UNL     1       5.228   3.908  15.631  0.00  0.00    +0.000 OA
ENDBRANCH   2  17
TORSDOF 2
ENDMDL
MODEL 3
REMARK VINA RESULT:      -8.0      3.187      8.524
REMARK  Name = 
REMARK  2 active torsions:
REMARK  status: ('A' for Active; 'I' for Inactive)
REMARK    1  A    between atoms: C_8  and  N_9
REMARK    2  A    between atoms: C_10  and  C_12
REMARK                            x       y       z     vdW  Elec       q    Type
REMARK                         _______ _______ _______ _____ _____    ______ ____
ROOT
ATOM      1  N   UNL     1       2.041   7.645  20.950  0.00  0.00    +0.000 N 
ATOM      2  C   UNL     1       0.895   8.297  21.379  0.00  0.00    +0.000 C 
ATOM      3  O   UNL     1      -0.259   7.927  21.158  0.00  0.00    +0.000 OA
ATOM      4  H   UNL     1       2.930   8.048  21.232  0.00  0.00    +0.000 HD
ENDROOT
BRANCH   1  12
ATOM      5  O   UNL     1       2.314   2.565  16.811  0.00  0.00    +0.000 OA
ATOM      6  C   UNL     1       2.122   2.850  17.977  0.00  0.00    +0.000 C 
ATOM      7  N   UNL     1       1.823   2.010  19.006  0.00  0.00    +0.000 N 
ATOM      8  C   UNL     1       1.666   2.675  20.181  0.00  0.00    +0.000 C 
ATOM      9  O   UNL     1       1.396   2.209  21.270  0.00  0.00    +0.000 OA
ATOM     10  C   UNL     1       1.884   4.089  19.884  0.00  0.00    +0.000 A 
ATOM     11  C   UNL     1       1.838   5.187  20.720  0.00  0.00    +0.000 A 
ATOM     12  C   UNL     1       2.080   6.455  20.173  0.00  0.00    +0.000 A 
ATOM     13  C   UNL     1       2.364   6.564  18.788  0.00  0.00    +0.000 A 
ATOM     14  C   UNL     1       2.408   5.428  17.954  0.00  0.00    +0.000 A 
ATOM     15  C   UNL     1       2.161   4.201  18.537  0.00  0.00    +0.000 A 
ATOM     16  H   UNL     1       1.727   1.012  18.914  0.00  0.00    +0.000 HD
ENDBRANCH   1  12
BRANCH   2  17
ATOM     17  C   UNL     1       1.095   9.624  22.122  0.00  0.00    +0.000 C 
ATOM     18  C   UNL     1       0.367   9.576  23.463  0.00  0.00    +0.000 C 
ATOM     19  O   UNL     1      -1.012   9.939  23.341  0.00  0.00    +0.000 OA
ATOM     20  C   UNL     1      -1.119  11.141  22.696  0.00  0.00    +0.000 A 
ATOM     21  C   UNL     1      -2.226  11.932  22.988  0.00  0.00    +0.000 A 
ATOM     22  C   UNL     1      -2.371  13.174  22.369  0.00  0.00    +0.000 A 
ATOM     23  C   UNL     1      -1.408  13.621  21.463  0.00  0.00    +0.000 A 
ATOM     24  C   UNL     1      -0.313  12.813  21.154  0.00  0.00    +0.000 A 
ATOM     25  C   UNL     1      -0.179  11.563  21.757  0.00  0.00    +0.000 A 
ATOM     26  O   UNL     1       0.873  10.796  21.348  0.00  0.00    +0.000 OA
ENDBRANCH   2  17
TORSDOF 2
ENDMDL
MODEL 4
REMARK VINA RESULT:      -7.9      1.538      2.244
REMARK  Name = 
REMARK  2 active torsions:
REMARK  status: ('A' for Active; 'I' for Inactive)
REMARK    1  A    between atoms: C_8  and  N_9
REMARK    2  A    between atoms: C_10  and  C_12
REMARK                            x       y       z     vdW  Elec       q    Type
REMARK                         _______ _______ _______ _____ _____    ______ ____
ROOT
ATOM      1  N   UNL     1       3.580   6.087  17.856  0.00  0.00    +0.000 N 
ATOM      2  C   UNL     1       4.878   6.155  17.374  0.00  0.00    +0.000 C 
ATOM      3  O   UNL     1       5.545   7.186  17.273  0.00  0.00    +0.000 OA
ATOM      4  H   UNL     1       3.160   5.163  17.912  0.00  0.00    +0.000 HD
ENDROOT
BRANCH   1  12
ATOM      5  O   UNL     1       0.054  11.438  19.253  0.00  0.00    +0.000 OA
ATOM      6  C   UNL     1       0.503  10.422  19.748  0.00  0.00    +0.000 C 
ATOM      7  N   UNL     1       0.397  10.001  21.038  0.00  0.00    +0.000 N 
ATOM      8  C   UNL     1       1.030   8.817  21.245  0.00  0.00    +0.000 C 
ATOM      9  O   UNL     1       1.117   8.189  22.281  0.00  0.00    +0.000 OA
ATOM     10  C   UNL     1       1.605   8.430  19.958  0.00  0.00    +0.000 A 
ATOM     11  C   UNL     1       2.350   7.318  19.619  0.00  0.00    +0.000 A 
ATOM     12  C   UNL     1       2.797   7.188  18.297  0.00  0.00    +0.000 A 
ATOM     13  C   UNL     1       2.465   8.198  17.357  0.00  0.00    +0.000 A 
ATOM     14  C   UNL     1       1.702   9.325  17.726  0.00  0.00    +0.000 A 
ATOM     15  C   UNL     1       1.287   9.409  19.041  0.00  0.00    +0.000 A 
ATOM     16  H   UNL     1      -0.090  10.505  21.760  0.00  0.00    +0.000 HD
ENDBRANCH   1  12
BRANCH   2  17
ATOM     17  C   UNL     1       5.492   4.847  16.860  0.00  0.00    +0.000 C 
ATOM     18  C   UNL     1       7.012   4.977  16.813  0.00  0.00    +0.000 C 
ATOM     19  O   UNL     1       7.464   5.579  15.596  0.00  0.00    +0.000 OA
ATOM     20  C   UNL     1       6.932   4.914  14.526  0.00  0.00    +0.000 A 
ATOM     21  C   UNL     1       7.658   4.923  13.338  0.00  0.00    +0.000 A 
ATOM     22  C   UNL     1       7.165   4.244  12.221  0.00  0.00    +0.000 A 
ATOM     23  C   UNL     1       5.951   3.559  12.299  0.00  0.00    +0.000 A 
ATOM     24  C   UNL     1       5.215   3.576  13.484  0.00  0.00    +0.000 A 
ATOM     25  C   UNL     1       5.698   4.270  14.592  0.00  0.00    +0.000 A 
ATOM     26  O   UNL     1       4.888   4.309  15.691  0.00  0.00    +0.000 OA
ENDBRANCH   2  17
TORSDOF 2
ENDMDL
MODEL 5
REMARK VINA RESULT:      -7.8      1.928      3.221
REMARK  Name = 
REMARK  2 active torsions:
REMARK  status: ('A' for Active; 'I' for Inactive)
REMARK    1  A    between atoms: C_8  and  N_9
REMARK    2  A    between atoms: C_10  and  C_12
REMARK                            x       y       z     vdW  Elec       q    Type
REMARK                         _______ _______ _______ _____ _____    ______ ____
ROOT
ATOM      1  N   UNL     1       4.700   5.597  17.532  0.00  0.00    +0.000 N 
ATOM      2  C   UNL     1       4.457   4.368  16.937  0.00  0.00    +0.000 C 
ATOM      3  O   UNL     1       3.376   3.778  16.940  0.00  0.00    +0.000 OA
ATOM      4  H   UNL     1       5.635   5.980  17.424  0.00  0.00    +0.000 HD
ENDROOT
BRANCH   1  12
ATOM      5  O   UNL     1       0.292   8.640  21.317  0.00  0.00    +0.000 OA
ATOM      6  C   UNL     1       0.919   8.756  20.282  0.00  0.00    +0.000 C 
ATOM      7  N   UNL     1       0.874   9.780  19.387  0.00  0.00    +0.000 N 
ATOM      8  C   UNL     1       1.707   9.576  18.332  0.00  0.00    +0.000 C 
ATOM      9  O   UNL     1       1.888  10.301  17.374  0.00  0.00    +0.000 OA
ATOM     10  C   UNL     1       2.359   8.289  18.568  0.00  0.00    +0.000 A 
ATOM     11  C   UNL     1       3.288   7.614  17.803  0.00  0.00    +0.000 A 
ATOM     12  C   UNL     1       3.754   6.372  18.256  0.00  0.00    +0.000 A 
ATOM     13  C   UNL     1       3.257   5.857  19.481  0.00  0.00    +0.000 A 
ATOM     14  C   UNL     1       2.308   6.565  20.246  0.00  0.00    +0.000 A 
ATOM     15  C   UNL     1       1.878   7.783  19.757  0.00  0.00    +0.000 A 
ATOM     16  H   UNL     1       0.292  10.595  19.486  0.00  0.00    +0.000 HD
ENDBRANCH   1  12
BRANCH   2  17
ATOM     17  C   UNL     1       5.659   3.665  16.293  0.00  0.00    +0.000 C 
ATOM     18  C   UNL     1       6.932   4.454  16.588  0.00  0.00    +0.000 C 
ATOM     19  O   UNL     1       7.142   5.512  15.647  0.00  0.00    +0.000 OA
ATOM     20  C   UNL     1       7.080   5.016  14.373  0.00  0.00    +0.000 A 
ATOM     21  C   UNL     1       7.809   5.678  13.389  0.00  0.00    +0.000 A 
ATOM     22  C   UNL     1       7.792   5.202  12.077  0.00  0.00    +0.000 A 
ATOM     23  C   UNL     1       7.048   4.065  11.756  0.00  0.00    +0.000 A 
ATOM     24  C   UNL     1       6.298   3.421  12.740  0.00  0.00    +0.000 A 
ATOM     25  C   UNL     1       6.300   3.908  14.046  0.00  0.00    +0.000 A 
ATOM     26  O   UNL     1       5.482   3.275  14.937  0.00  0.00    +0.000 OA
ENDBRANCH   2  17
TORSDOF 2
ENDMDL
MODEL 6
REMARK VINA RESULT:      -7.8      2.932      8.101
REMARK  Name = 
REMARK  2 active torsions:
REMARK  status: ('A' for Active; 'I' for Inactive)
REMARK    1  A    between atoms: C_8  and  N_9
REMARK    2  A    between atoms: C_10  and  C_12
REMARK                            x       y       z     vdW  Elec       q    Type
REMARK                         _______ _______ _______ _____ _____    ______ ____
ROOT
ATOM      1  N   UNL     1       2.239   7.476  17.954  0.00  0.00    +0.000 N 
ATOM      2  C   UNL     1       1.750   8.472  18.786  0.00  0.00    +0.000 C 
ATOM      3  O   UNL     1       1.638   8.384  20.009  0.00  0.00    +0.000 OA
ATOM      4  H   UNL     1       2.304   7.697  16.964  0.00  0.00    +0.000 HD
ENDROOT
BRANCH   1  12
ATOM      5  O   UNL     1       4.870   1.820  19.981  0.00  0.00    +0.000 OA
ATOM      6  C   UNL     1       3.857   2.298  19.508  0.00  0.00    +0.000 C 
ATOM      7  N   UNL     1       2.708   1.655  19.165  0.00  0.00    +0.000 N 
ATOM      8  C   UNL     1       1.777   2.503  18.655  0.00  0.00    +0.000 C 
ATOM      9  O   UNL     1       0.661   2.234  18.259  0.00  0.00    +0.000 OA
ATOM     10  C   UNL     1       2.385   3.833  18.667  0.00  0.00    +0.000 A 
ATOM     11  C   UNL     1       1.870   5.045  18.254  0.00  0.00    +0.000 A 
ATOM     12  C   UNL     1       2.675   6.187  18.365  0.00  0.00    +0.000 A 
ATOM     13  C   UNL     1       3.983   6.057  18.900  0.00  0.00    +0.000 A 
ATOM     14  C   UNL     1       4.486   4.808  19.317  0.00  0.00    +0.000 A 
ATOM     15  C   UNL     1       3.657   3.712  19.186  0.00  0.00    +0.000 A 
ATOM     16  H   UNL     1       2.559   0.665  19.273  0.00  0.00    +0.000 HD
ENDBRANCH   1  12
BRANCH   2  17
ATOM     17  C   UNL     1       1.243   9.749  18.106  0.00  0.00    +0.000 C 
ATOM     18  C   UNL     1       1.617  10.964  18.952  0.00  0.00    +0.000 C 
ATOM     19  O   UNL     1       0.657  11.220  19.981  0.00  0.00    +0.000 OA
ATOM     20  C   UNL     1      -0.597  11.290  19.438  0.00  0.00    +0.000 A 
ATOM     21  C   UNL     1      -1.538  12.080  20.090  0.00  0.00    +0.000 A 
ATOM     22  C   UNL     1      -2.827  12.197  19.565  0.00  0.00    +0.000 A 
ATOM     23  C   UNL     1      -3.167  11.524  18.390  0.00  0.00    +0.000 A 
ATOM     24  C   UNL     1      -2.227  10.712  17.755  0.00  0.00    +0.000 A 
ATOM     25  C   UNL     1      -0.947  10.580  18.290  0.00  0.00    +0.000 A 
ATOM     26  O   UNL     1      -0.106   9.708  17.660  0.00  0.00    +0.000 OA
ENDBRANCH   2  17
TORSDOF 2
ENDMDL
MODEL 7
REMARK VINA RESULT:      -7.7      2.655      8.168
REMARK  Name = 
REMARK  2 active torsions:
REMARK  status: ('A' for Active; 'I' for Inactive)
REMARK    1  A    between atoms: C_8  and  N_9
REMARK    2  A    between atoms: C_10  and  C_12
REMARK                            x       y       z     vdW  Elec       q    Type
REMARK                         _______ _______ _______ _____ _____    ______ ____
ROOT
ATOM      1  N   UNL     1       2.115   7.946  17.853  0.00  0.00    +0.000 N 
ATOM      2  C   UNL     1       1.568   8.815  18.785  0.00  0.00    +0.000 C 
ATOM      3  O   UNL     1       1.428   8.574  19.984  0.00  0.00    +0.000 OA
ATOM      4  H   UNL     1       2.196   8.289  16.899  0.00  0.00    +0.000 HD
ENDROOT
BRANCH   1  12
ATOM      5  O   UNL     1       3.662   1.664  18.927  0.00  0.00    +0.000 OA
ATOM      6  C   UNL     1       4.112   2.791  18.984  0.00  0.00    +0.000 C 
ATOM      7  N   UNL     1       5.350   3.179  19.397  0.00  0.00    +0.000 N 
ATOM      8  C   UNL     1       5.512   4.527  19.338  0.00  0.00    +0.000 C 
ATOM      9  O   UNL     1       6.495   5.173  19.639  0.00  0.00    +0.000 OA
ATOM     10  C   UNL     1       4.250   5.069  18.836  0.00  0.00    +0.000 A 
ATOM     11  C   UNL     1       3.883   6.378  18.595  0.00  0.00    +0.000 A 
ATOM     12  C   UNL     1       2.590   6.633  18.117  0.00  0.00    +0.000 A 
ATOM     13  C   UNL     1       1.711   5.541  17.897  0.00  0.00    +0.000 A 
ATOM     14  C   UNL     1       2.109   4.213  18.149  0.00  0.00    +0.000 A 
ATOM     15  C   UNL     1       3.391   4.012  18.621  0.00  0.00    +0.000 A 
ATOM     16  H   UNL     1       6.066   2.546  19.712  0.00  0.00    +0.000 HD
ENDBRANCH   1  12
BRANCH   2  17
ATOM     17  C   UNL     1       1.029  10.148  18.250  0.00  0.00    +0.000 C 
ATOM     18  C   UNL     1       1.419  11.277  19.201  0.00  0.00    +0.000 C 
ATOM     19  O   UNL     1       0.490  11.419  20.279  0.00  0.00    +0.000 OA
ATOM     20  C   UNL     1      -0.781  11.528  19.783  0.00  0.00    +0.000 A 
ATOM     21  C   UNL     1      -1.708  12.240  20.538  0.00  0.00    +0.000 A 
ATOM     22  C   UNL     1      -3.013  12.393  20.067  0.00  0.00    +0.000 A 
ATOM     23  C   UNL     1      -3.384  11.836  18.841  0.00  0.00    +0.000 A 
ATOM     24  C   UNL     1      -2.457  11.101  18.100  0.00  0.00    +0.000 A 
ATOM     25  C   UNL     1      -1.160  10.931  18.581  0.00  0.00    +0.000 A 
ATOM     26  O   UNL     1      -0.333  10.136  17.843  0.00  0.00    +0.000 OA
ENDBRANCH   2  17
TORSDOF 2
ENDMDL
MODEL 8
REMARK VINA RESULT:      -7.7      1.178      1.974
REMARK  Name = 
REMARK  2 active torsions:
REMARK  status: ('A' for Active; 'I' for Inactive)
REMARK    1  A    between atoms: C_8  and  N_9
REMARK    2  A    between atoms: C_10  and  C_12
REMARK                            x       y       z     vdW  Elec       q    Type
REMARK                         _______ _______ _______ _____ _____    ______ ____
ROOT
ATOM      1  N   UNL     1       2.792   6.034  19.000  0.00  0.00    +0.000 N 
ATOM      2  C   UNL     1       2.326   4.728  18.994  0.00  0.00    +0.000 C 
ATOM      3  O   UNL     1       1.267   4.350  19.497  0.00  0.00    +0.000 OA
ATOM      4  H   UNL     1       3.671   6.209  18.520  0.00  0.00    +0.000 HD
ENDROOT
BRANCH   1  12
ATOM      5  O   UNL     1      -0.371  10.749  22.284  0.00  0.00    +0.000 OA
ATOM      6  C   UNL     1       0.197  10.519  21.233  0.00  0.00    +0.000 C 
ATOM      7  N   UNL     1       0.372  11.357  20.176  0.00  0.00    +0.000 N 
ATOM      8  C   UNL     1       1.049  10.764  19.157  0.00  0.00    +0.000 C 
ATOM      9  O   UNL     1       1.357  11.247  18.087  0.00  0.00    +0.000 OA
ATOM     10  C   UNL     1       1.341   9.401  19.600  0.00  0.00    +0.000 A 
ATOM     11  C   UNL     1       2.002   8.381  18.945  0.00  0.00    +0.000 A 
ATOM     12  C   UNL     1       2.141   7.148  19.597  0.00  0.00    +0.000 A 
ATOM     13  C   UNL     1       1.603   6.995  20.901  0.00  0.00    +0.000 A 
ATOM     14  C   UNL     1       0.934   8.052  21.550  0.00  0.00    +0.000 A 
ATOM     15  C   UNL     1       0.820   9.247  20.867  0.00  0.00    +0.000 A 
ATOM     16  H   UNL     1       0.041  12.307  20.144  0.00  0.00    +0.000 HD
ENDBRANCH   1  12
BRANCH   2  17
ATOM     17  C   UNL     1       3.249   3.671  18.376  0.00  0.00    +0.000 C 
ATOM     18  C   UNL     1       4.426   3.406  19.312  0.00  0.00    +0.000 C 
ATOM     19  O   UNL     1       5.491   4.341  19.117  0.00  0.00    +0.000 OA
ATOM     20  C   UNL     1       5.835   4.381  17.794  0.00  0.00    +0.000 A 
ATOM     21  C   UNL     1       7.147   4.722  17.480  0.00  0.00    +0.000 A 
ATOM     22  C   UNL     1       7.552   4.760  16.144  0.00  0.00    +0.000 A 
ATOM     23  C   UNL     1       6.643   4.455  15.129  0.00  0.00    +0.000 A 
ATOM     24  C   UNL     1       5.322   4.139  15.448  0.00  0.00    +0.000 A 
ATOM     25  C   UNL     1       4.913   4.121  16.780  0.00  0.00    +0.000 A 
ATOM     26  O   UNL     1       3.589   3.882  17.012  0.00  0.00    +0.000 OA
ENDBRANCH   2  17
TORSDOF 2
ENDMDL
MODEL 9
REMARK VINA RESULT:      -7.6      3.190      8.146
REMARK  Name = 
REMARK  2 active torsions:
REMARK  status: ('A' for Active; 'I' for Inactive)
REMARK    1  A    between atoms: C_8  and  N_9
REMARK    2  A    between atoms: C_10  and  C_12
REMARK                            x       y       z     vdW  Elec       q    Type
REMARK                         _______ _______ _______ _____ _____    ______ ____
ROOT
ATOM      1  N   UNL     1       1.848   7.997  20.973  0.00  0.00    +0.000 N 
ATOM      2  C   UNL     1       0.697   8.577  21.486  0.00  0.00    +0.000 C 
ATOM      3  O   UNL     1      -0.435   8.098  21.408  0.00  0.00    +0.000 OA
ATOM      4  H   UNL     1       2.721   8.491  21.137  0.00  0.00    +0.000 HD
ENDROOT
BRANCH   1  12
ATOM      5  O   UNL     1       2.279   2.710  17.116  0.00  0.00    +0.000 OA
ATOM      6  C   UNL     1       2.033   3.056  18.255  0.00  0.00    +0.000 C 
ATOM      7  N   UNL     1       1.678   2.272  19.309  0.00  0.00    +0.000 N 
ATOM      8  C   UNL     1       1.469   2.997  20.440  0.00  0.00    +0.000 C 
ATOM      9  O   UNL     1       1.141   2.589  21.536  0.00  0.00    +0.000 OA
ATOM     10  C   UNL     1       1.713   4.393  20.082  0.00  0.00    +0.000 A 
ATOM     11  C   UNL     1       1.636   5.532  20.858  0.00  0.00    +0.000 A 
ATOM     12  C   UNL     1       1.915   6.769  20.260  0.00  0.00    +0.000 A 
ATOM     13  C   UNL     1       2.268   6.805  18.887  0.00  0.00    +0.000 A 
ATOM     14  C   UNL     1       2.342   5.628  18.115  0.00  0.00    +0.000 A 
ATOM     15  C   UNL     1       2.056   4.434  18.747  0.00  0.00    +0.000 A 
ATOM     16  H   UNL     1       1.577   1.271  19.264  0.00  0.00    +0.000 HD
ENDBRANCH   1  12
BRANCH   2  17
ATOM     17  C   UNL     1       0.852   9.959  22.132  0.00  0.00    +0.000 C 
ATOM     18  C   UNL     1      -0.476  10.387  22.753  0.00  0.00    +0.000 C 
ATOM     19  O   UNL     1      -1.340  11.012  21.799  0.00  0.00    +0.000 OA
ATOM     20  C   UNL     1      -0.674  12.025  21.166  0.00  0.00    +0.000 A 
ATOM     21  C   UNL     1      -1.429  13.091  20.684  0.00  0.00    +0.000 A 
ATOM     22  C   UNL     1      -0.794  14.157  20.045  0.00  0.00    +0.000 A 
ATOM     23  C   UNL     1       0.594  14.154  19.893  0.00  0.00    +0.000 A 
ATOM     24  C   UNL     1       1.344  13.071  20.354  0.00  0.00    +0.000 A 
ATOM     25  C   UNL     1       0.707  11.998  20.974  0.00  0.00    +0.000 A 
ATOM     26  O   UNL     1       1.494  10.940  21.328  0.00  0.00    +0.000 OA
ENDBRANCH   2  17
TORSDOF 2
ENDMDL
