MODEL 1
REMARK VINA RESULT:      -9.0      0.000      0.000
REMARK  Name = 
REMARK  5 active torsions:
REMARK  status: ('A' for Active; 'I' for Inactive)
REMARK    1  A    between atoms: C_1  and  C_2
REMARK    2  A    between atoms: N_5  and  N_6
REMARK    3  A    between atoms: C_7  and  C_9
REMARK    4  A    between atoms: C_9  and  C_10
REMARK    5  A    between atoms: C_20  and  O_21
REMARK                            x       y       z     vdW  Elec       q    Type
REMARK                         _______ _______ _______ _____ _____    ______ ____
ROOT
ATOM      1  C   UNL     1      -2.841  10.029  16.285  0.00  0.00    +0.000 C 
ATOM      2  C   UNL     1      -2.105  10.446  17.504  0.00  0.00    +0.000 C 
ATOM      3  C   UNL     1      -0.883   9.984  17.805  0.00  0.00    +0.000 C 
ATOM      4  C   UNL     1      -0.099  10.385  19.012  0.00  0.00    +0.000 C 
ATOM      5  N   UNL     1       1.099   9.961  19.311  0.00  0.00    +0.000 NA
ATOM      6  C   UNL     1      -0.811  11.355  19.934  0.00  0.00    +0.000 A 
ATOM      7  C   UNL     1      -0.234  11.826  21.125  0.00  0.00    +0.000 A 
ATOM      8  C   UNL     1      -0.918  12.727  21.960  0.00  0.00    +0.000 A 
ATOM      9  C   UNL     1      -2.194  13.176  21.622  0.00  0.00    +0.000 A 
ATOM     10  C   UNL     1      -2.787  12.743  20.444  0.00  0.00    +0.000 A 
ATOM     11  C   UNL     1      -2.092  11.823  19.619  0.00  0.00    +0.000 A 
ATOM     12  C   UNL     1      -2.790  11.384  18.393  0.00  0.00    +0.000 C 
ATOM     13  O   UNL     1      -3.911  11.816  18.123  0.00  0.00    +0.000 OA
ENDROOT
BRANCH   5  14
ATOM     14  N   UNL     1       1.725   9.070  18.468  0.00  0.00    +0.000 N 
ATOM     15  C   UNL     1       2.206   7.842  18.910  0.00  0.00    +0.000 C 
ATOM     16  O   UNL     1       2.054   7.406  20.049  0.00  0.00    +0.000 OA
ATOM     17  H   UNL     1       1.855   9.278  17.490  0.00  0.00    +0.000 HD
BRANCH  15  18
ATOM     18  C   UNL     1       3.035   7.110  17.855  0.00  0.00    +0.000 C 
BRANCH  18  19
ATOM     19  C   UNL     1       3.483   5.731  18.241  0.00  0.00    +0.000 A 
ATOM     20  C   UNL     1       4.762   5.445  18.690  0.00  0.00    +0.000 A 
ATOM     21  N   UNL     1       4.963   4.144  18.326  0.00  0.00    +0.000 N 
ATOM     22  C   UNL     1       3.777   3.482  18.510  0.00  0.00    +0.000 A 
ATOM     23  C   UNL     1       3.530   2.132  18.776  0.00  0.00    +0.000 A 
ATOM     24  C   UNL     1       2.194   1.757  18.880  0.00  0.00    +0.000 A 
ATOM     25  C   UNL     1       1.176   2.664  18.575  0.00  0.00    +0.000 A 
ATOM     26  C   UNL     1       1.459   4.003  18.227  0.00  0.00    +0.000 A 
ATOM     27  C   UNL     1       2.793   4.456  18.297  0.00  0.00    +0.000 A 
ATOM     28  H   UNL     1       5.745   3.799  17.788  0.00  0.00    +0.000 HD
ENDBRANCH  18  19
ENDBRANCH  15  18
ENDBRANCH   5  14
BRANCH   7  29
ATOM     29  O   UNL     1       1.006  11.461  21.568  0.00  0.00    +0.000 OA
ATOM     30  H   UNL     1       1.248  10.602  21.153  0.00  0.00    +0.000 HD
ENDBRANCH   7  29
TORSDOF 4
ENDMDL
MODEL 2
REMARK VINA RESULT:      -8.9      2.028      8.494
REMARK  Name = 
REMARK  5 active torsions:
REMARK  status: ('A' for Active; 'I' for Inactive)
REMARK    1  A    between atoms: C_1  and  C_2
REMARK    2  A    between atoms: N_5  and  N_6
REMARK    3  A    between atoms: C_7  and  C_9
REMARK    4  A    between atoms: C_9  and  C_10
REMARK    5  A    between atoms: C_20  and  O_21
REMARK                            x       y       z     vdW  Elec       q    Type
REMARK                         _______ _______ _______ _____ _____    ______ ____
ROOT
ATOM      1  C   UNL     1       5.226   6.692  16.060  0.00  0.00    +0.000 C 
ATOM      2  C   UNL     1       4.321   6.037  17.038  0.00  0.00    +0.000 C 
ATOM      3  C   UNL     1       3.555   6.730  17.891  0.00  0.00    +0.000 C 
ATOM      4  C   UNL     1       2.620   6.116  18.882  0.00  0.00    +0.000 C 
ATOM      5  N   UNL     1       1.852   6.776  19.707  0.00  0.00    +0.000 NA
ATOM      6  C   UNL     1       2.617   4.601  18.892  0.00  0.00    +0.000 A 
ATOM      7  C   UNL     1       1.815   3.853  19.770  0.00  0.00    +0.000 A 
ATOM      8  C   UNL     1       1.833   2.447  19.756  0.00  0.00    +0.000 A 
ATOM      9  C   UNL     1       2.653   1.759  18.863  0.00  0.00    +0.000 A 
ATOM     10  C   UNL     1       3.446   2.466  17.970  0.00  0.00    +0.000 A 
ATOM     11  C   UNL     1       3.430   3.884  18.005  0.00  0.00    +0.000 A 
ATOM     12  C   UNL     1       4.316   4.574  17.046  0.00  0.00    +0.000 C 
ATOM     13  O   UNL     1       5.013   3.929  16.263  0.00  0.00    +0.000 OA
ENDROOT
BRANCH   5  14
ATOM     14  N   UNL     1       1.878   8.152  19.693  0.00  0.00    +0.000 N 
ATOM     15  C   UNL     1       1.001   8.920  20.450  0.00  0.00    +0.000 C 
ATOM     16  O   UNL     1       0.189   8.459  21.250  0.00  0.00    +0.000 OA
ATOM     17  H   UNL     1       2.544   8.657  19.128  0.00  0.00    +0.000 HD
BRANCH  15  18
ATOM     18  C   UNL     1       1.078  10.411  20.128  0.00  0.00    +0.000 C 
BRANCH  18  19
ATOM     19  C   UNL     1      -0.216  11.041  19.705  0.00  0.00    +0.000 A 
ATOM     20  C   UNL     1      -0.720  12.199  20.274  0.00  0.00    +0.000 A 
ATOM     21  N   UNL     1      -2.072  12.087  20.124  0.00  0.00    +0.000 N 
ATOM     22  C   UNL     1      -2.300  11.515  18.900  0.00  0.00    +0.000 A 
ATOM     23  C   UNL     1      -3.405  11.616  18.049  0.00  0.00    +0.000 A 
ATOM     24  C   UNL     1      -3.347  10.877  16.871  0.00  0.00    +0.000 A 
ATOM     25  C   UNL     1      -2.307   9.971  16.652  0.00  0.00    +0.000 A 
ATOM     26  C   UNL     1      -1.244   9.829  17.571  0.00  0.00    +0.000 A 
ATOM     27  C   UNL     1      -1.183  10.700  18.679  0.00  0.00    +0.000 A 
ATOM     28  H   UNL     1      -2.753  12.167  20.866  0.00  0.00    +0.000 HD
ENDBRANCH  18  19
ENDBRANCH  15  18
ENDBRANCH   5  14
BRANCH   7  29
ATOM     29  O   UNL     1       0.973   4.407  20.692  0.00  0.00    +0.000 OA
ATOM     30  H   UNL     1       0.066   4.054  20.542  0.00  0.00    +0.000 HD
ENDBRANCH   7  29
TORSDOF 4
ENDMDL
MODEL 3
REMARK VINA RESULT:      -8.8      2.213      8.663
REMARK  Name = 
REMARK  5 active torsions:
REMARK  status: ('A' for Active; 'I' for Inactive)
REMARK    1  A    between atoms: C_1  and  C_2
REMARK    2  A    between atoms: N_5  and  N_6
REMARK    3  A    between atoms: C_7  and  C_9
REMARK    4  A    between atoms: C_9  and  C_10
REMARK    5  A    between atoms: C_20  and  O_21
REMARK                            x       y       z     vdW  Elec       q    Type
REMARK                         _______ _______ _______ _____ _____    ______ ____
ROOT
ATOM      1  C   UNL     1       1.054   3.424  20.404  0.00  0.00    +0.000 C 
ATOM      2  C   UNL     1       1.936   4.163  19.467  0.00  0.00    +0.000 C 
ATOM      3  C   UNL     1       1.886   5.494  19.323  0.00  0.00    +0.000 C 
ATOM      4  C   UNL     1       2.762   6.282  18.404  0.00  0.00    +0.000 C 
ATOM      5  N   UNL     1       2.740   7.580  18.266  0.00  0.00    +0.000 NA
ATOM      6  C   UNL     1       3.724   5.448  17.582  0.00  0.00    +0.000 A 
ATOM      7  C   UNL     1       4.611   6.017  16.651  0.00  0.00    +0.000 A 
ATOM      8  C   UNL     1       5.493   5.218  15.903  0.00  0.00    +0.000 A 
ATOM      9  C   UNL     1       5.509   3.834  16.069  0.00  0.00    +0.000 A 
ATOM     10  C   UNL     1       4.658   3.241  16.991  0.00  0.00    +0.000 A 
ATOM     11  C   UNL     1       3.763   4.057  17.729  0.00  0.00    +0.000 A 
ATOM     12  C   UNL     1       2.868   3.359  18.675  0.00  0.00    +0.000 C 
ATOM     13  O   UNL     1       2.924   2.136  18.803  0.00  0.00    +0.000 OA
ENDROOT
BRANCH   5  14
ATOM     14  N   UNL     1       1.849   8.319  19.011  0.00  0.00    +0.000 N 
ATOM     15  C   UNL     1       1.488   9.617  18.666  0.00  0.00    +0.000 C 
ATOM     16  O   UNL     1       1.856  10.190  17.642  0.00  0.00    +0.000 OA
ATOM     17  H   UNL     1       1.421   7.939  19.842  0.00  0.00    +0.000 HD
BRANCH  15  18
ATOM     18  C   UNL     1       0.648  10.310  19.738  0.00  0.00    +0.000 C 
BRANCH  18  19
ATOM     19  C   UNL     1      -0.602  10.972  19.239  0.00  0.00    +0.000 A 
ATOM     20  C   UNL     1      -1.067  12.183  19.725  0.00  0.00    +0.000 A 
ATOM     21  N   UNL     1      -2.418  12.124  19.538  0.00  0.00    +0.000 N 
ATOM     22  C   UNL     1      -2.637  11.493  18.342  0.00  0.00    +0.000 A 
ATOM     23  C   UNL     1      -3.710  11.594  17.451  0.00  0.00    +0.000 A 
ATOM     24  C   UNL     1      -3.652  10.787  16.319  0.00  0.00    +0.000 A 
ATOM     25  C   UNL     1      -2.650   9.823  16.185  0.00  0.00    +0.000 A 
ATOM     26  C   UNL     1      -1.623   9.686  17.144  0.00  0.00    +0.000 A 
ATOM     27  C   UNL     1      -1.553  10.617  18.203  0.00  0.00    +0.000 A 
ATOM     28  H   UNL     1      -3.116  12.278  20.252  0.00  0.00    +0.000 HD
ENDBRANCH  18  19
ENDBRANCH  15  18
ENDBRANCH   5  14
BRANCH   7  29
ATOM     29  O   UNL     1       4.690   7.356  16.395  0.00  0.00    +0.000 OA
ATOM     30  H   UNL     1       5.554   7.690  16.730  0.00  0.00    +0.000 HD
ENDBRANCH   7  29
TORSDOF 4
ENDMDL
MODEL 4
REMARK VINA RESULT:      -8.7      2.447      8.906
REMARK  Name = 
REMARK  5 active torsions:
REMARK  status: ('A' for Active; 'I' for Inactive)
REMARK    1  A    between atoms: C_1  and  C_2
REMARK    2  A    between atoms: N_5  and  N_6
REMARK    3  A    between atoms: C_7  and  C_9
REMARK    4  A    between atoms: C_9  and  C_10
REMARK    5  A    between atoms: C_20  and  O_21
REMARK                            x       y       z     vdW  Elec       q    Type
REMARK                         _______ _______ _______ _____ _____    ______ ____
ROOT
ATOM      1  C   UNL     1       5.192   7.024  16.936  0.00  0.00    +0.000 C 
ATOM      2  C   UNL     1       4.198   6.203  17.672  0.00  0.00    +0.000 C 
ATOM      3  C   UNL     1       3.459   6.692  18.677  0.00  0.00    +0.000 C 
ATOM      4  C   UNL     1       2.437   5.909  19.438  0.00  0.00    +0.000 C 
ATOM      5  N   UNL     1       1.695   6.374  20.405  0.00  0.00    +0.000 NA
ATOM      6  C   UNL     1       2.309   4.460  19.013  0.00  0.00    +0.000 A 
ATOM      7  C   UNL     1       1.414   3.569  19.629  0.00  0.00    +0.000 A 
ATOM      8  C   UNL     1       1.316   2.230  19.213  0.00  0.00    +0.000 A 
ATOM      9  C   UNL     1       2.111   1.752  18.172  0.00  0.00    +0.000 A 
ATOM     10  C   UNL     1       2.995   2.609  17.531  0.00  0.00    +0.000 A 
ATOM     11  C   UNL     1       3.094   3.954  17.970  0.00  0.00    +0.000 A 
ATOM     12  C   UNL     1       4.071   4.805  17.261  0.00  0.00    +0.000 C 
ATOM     13  O   UNL     1       4.744   4.348  16.337  0.00  0.00    +0.000 OA
ENDROOT
BRANCH   5  14
ATOM     14  N   UNL     1       1.835   7.690  20.786  0.00  0.00    +0.000 N 
ATOM     15  C   UNL     1       0.772   8.438  21.278  0.00  0.00    +0.000 C 
ATOM     16  O   UNL     1      -0.352   7.990  21.494  0.00  0.00    +0.000 OA
ATOM     17  H   UNL     1       2.725   8.161  20.723  0.00  0.00    +0.000 HD
BRANCH  15  18
ATOM     18  C   UNL     1       1.110   9.919  21.447  0.00  0.00    +0.000 C 
BRANCH  18  19
ATOM     19  C   UNL     1       0.024  10.872  21.042  0.00  0.00    +0.000 A 
ATOM     20  C   UNL     1      -0.174  11.288  19.736  0.00  0.00    +0.000 A 
ATOM     21  N   UNL     1      -0.741  12.524  19.859  0.00  0.00    +0.000 N 
ATOM     22  C   UNL     1      -1.600  12.473  20.926  0.00  0.00    +0.000 A 
ATOM     23  C   UNL     1      -2.750  13.221  21.194  0.00  0.00    +0.000 A 
ATOM     24  C   UNL     1      -3.397  12.951  22.396  0.00  0.00    +0.000 A 
ATOM     25  C   UNL     1      -2.821  12.092  23.335  0.00  0.00    +0.000 A 
ATOM     26  C   UNL     1      -1.612  11.413  23.071  0.00  0.00    +0.000 A 
ATOM     27  C   UNL     1      -1.036  11.524  21.788  0.00  0.00    +0.000 A 
ATOM     28  H   UNL     1      -0.406  13.370  19.422  0.00  0.00    +0.000 HD
ENDBRANCH  18  19
ENDBRANCH  15  18
ENDBRANCH   5  14
BRANCH   7  29
ATOM     29  O   UNL     1       0.584   3.913  20.658  0.00  0.00    +0.000 OA
ATOM     30  H   UNL     1       0.537   3.160  21.290  0.00  0.00    +0.000 HD
ENDBRANCH   7  29
TORSDOF 4
ENDMDL
MODEL 5
REMARK VINA RESULT:      -8.5      2.756      9.269
REMARK  Name = 
REMARK  5 active torsions:
REMARK  status: ('A' for Active; 'I' for Inactive)
REMARK    1  A    between atoms: C_1  and  C_2
REMARK    2  A    between atoms: N_5  and  N_6
REMARK    3  A    between atoms: C_7  and  C_9
REMARK    4  A    between atoms: C_9  and  C_10
REMARK    5  A    between atoms: C_20  and  O_21
REMARK                            x       y       z     vdW  Elec       q    Type
REMARK                         _______ _______ _______ _____ _____    ______ ____
ROOT
ATOM      1  C   UNL     1       1.102   2.960  18.817  0.00  0.00    +0.000 C 
ATOM      2  C   UNL     1       2.155   3.850  18.268  0.00  0.00    +0.000 C 
ATOM      3  C   UNL     1       2.100   5.185  18.369  0.00  0.00    +0.000 C 
ATOM      4  C   UNL     1       3.142   6.119  17.845  0.00  0.00    +0.000 C 
ATOM      5  N   UNL     1       3.115   7.420  17.953  0.00  0.00    +0.000 NA
ATOM      6  C   UNL     1       4.293   5.442  17.129  0.00  0.00    +0.000 A 
ATOM      7  C   UNL     1       5.354   6.163  16.555  0.00  0.00    +0.000 A 
ATOM      8  C   UNL     1       6.410   5.507  15.897  0.00  0.00    +0.000 A 
ATOM      9  C   UNL     1       6.427   4.117  15.799  0.00  0.00    +0.000 A 
ATOM     10  C   UNL     1       5.403   3.372  16.368  0.00  0.00    +0.000 A 
ATOM     11  C   UNL     1       4.338   4.047  17.016  0.00  0.00    +0.000 A 
ATOM     12  C   UNL     1       3.269   3.197  17.578  0.00  0.00    +0.000 C 
ATOM     13  O   UNL     1       3.329   1.971  17.484  0.00  0.00    +0.000 OA
ENDROOT
BRANCH   5  14
ATOM     14  N   UNL     1       2.054   8.018  18.595  0.00  0.00    +0.000 N 
ATOM     15  C   UNL     1       1.630   9.306  18.288  0.00  0.00    +0.000 C 
ATOM     16  O   UNL     1       2.094   9.992  17.380  0.00  0.00    +0.000 OA
ATOM     17  H   UNL     1       1.541   7.536  19.317  0.00  0.00    +0.000 HD
BRANCH  15  18
ATOM     18  C   UNL     1       0.573   9.835  19.257  0.00  0.00    +0.000 C 
BRANCH  18  19
ATOM     19  C   UNL     1       0.061  11.212  18.953  0.00  0.00    +0.000 A 
ATOM     20  C   UNL     1      -1.161  11.452  18.346  0.00  0.00    +0.000 A 
ATOM     21  N   UNL     1      -0.986  12.640  17.696  0.00  0.00    +0.000 N 
ATOM     22  C   UNL     1      -0.210  13.434  18.500  0.00  0.00    +0.000 A 
ATOM     23  C   UNL     1      -0.135  14.827  18.589  0.00  0.00    +0.000 A 
ATOM     24  C   UNL     1       0.789  15.339  19.496  0.00  0.00    +0.000 A 
ATOM     25  C   UNL     1       1.687  14.493  20.149  0.00  0.00    +0.000 A 
ATOM     26  C   UNL     1       1.642  13.092  19.975  0.00  0.00    +0.000 A 
ATOM     27  C   UNL     1       0.597  12.535  19.209  0.00  0.00    +0.000 A 
ATOM     28  H   UNL     1      -1.168  12.805  16.716  0.00  0.00    +0.000 HD
ENDBRANCH  18  19
ENDBRANCH  15  18
ENDBRANCH   5  14
BRANCH   7  29
ATOM     29  O   UNL     1       5.452   7.525  16.581  0.00  0.00    +0.000 OA
ATOM     30  H   UNL     1       6.105   7.781  17.272  0.00  0.00    +0.000 HD
ENDBRANCH   7  29
TORSDOF 4
ENDMDL
MODEL 6
REMARK VINA RESULT:      -8.4      2.539      8.759
REMARK  Name = 
REMARK  5 active torsions:
REMARK  status: ('A' for Active; 'I' for Inactive)
REMARK    1  A    between atoms: C_1  and  C_2
REMARK    2  A    between atoms: N_5  and  N_6
REMARK    3  A    between atoms: C_7  and  C_9
REMARK    4  A    between atoms: C_9  and  C_10
REMARK    5  A    between atoms: C_20  and  O_21
REMARK                            x       y       z     vdW  Elec       q    Type
REMARK                         _______ _______ _______ _____ _____    ______ ____
ROOT
ATOM      1  C   UNL     1       5.135   7.084  16.976  0.00  0.00    +0.000 C 
ATOM      2  C   UNL     1       4.153   6.244  17.705  0.00  0.00    +0.000 C 
ATOM      3  C   UNL     1       3.396   6.717  18.704  0.00  0.00    +0.000 C 
ATOM      4  C   UNL     1       2.385   5.913  19.457  0.00  0.00    +0.000 C 
ATOM      5  N   UNL     1       1.625   6.363  20.418  0.00  0.00    +0.000 NA
ATOM      6  C   UNL     1       2.290   4.462  19.032  0.00  0.00    +0.000 A 
ATOM      7  C   UNL     1       1.409   3.552  19.641  0.00  0.00    +0.000 A 
ATOM      8  C   UNL     1       1.342   2.211  19.224  0.00  0.00    +0.000 A 
ATOM      9  C   UNL     1       2.155   1.750  18.190  0.00  0.00    +0.000 A 
ATOM     10  C   UNL     1       3.026   2.625  17.555  0.00  0.00    +0.000 A 
ATOM     11  C   UNL     1       3.094   3.971  17.995  0.00  0.00    +0.000 A 
ATOM     12  C   UNL     1       4.058   4.842  17.293  0.00  0.00    +0.000 C 
ATOM     13  O   UNL     1       4.748   4.400  16.374  0.00  0.00    +0.000 OA
ENDROOT
BRANCH   5  14
ATOM     14  N   UNL     1       1.735   7.681  20.800  0.00  0.00    +0.000 N 
ATOM     15  C   UNL     1       0.674   8.383  21.361  0.00  0.00    +0.000 C 
ATOM     16  O   UNL     1      -0.415   7.888  21.640  0.00  0.00    +0.000 OA
ATOM     17  H   UNL     1       2.600   8.188  20.687  0.00  0.00    +0.000 HD
BRANCH  15  18
ATOM     18  C   UNL     1       0.962   9.876  21.520  0.00  0.00    +0.000 C 
BRANCH  18  19
ATOM     19  C   UNL     1       0.444  10.747  20.414  0.00  0.00    +0.000 A 
ATOM     20  C   UNL     1      -0.226  10.254  19.307  0.00  0.00    +0.000 A 
ATOM     21  N   UNL     1       0.038  11.160  18.321  0.00  0.00    +0.000 N 
ATOM     22  C   UNL     1       0.026  12.404  18.898  0.00  0.00    +0.000 A 
ATOM     23  C   UNL     1      -0.256  13.654  18.340  0.00  0.00    +0.000 A 
ATOM     24  C   UNL     1      -0.151  14.749  19.193  0.00  0.00    +0.000 A 
ATOM     25  C   UNL     1       0.363  14.598  20.482  0.00  0.00    +0.000 A 
ATOM     26  C   UNL     1       0.719  13.331  20.992  0.00  0.00    +0.000 A 
ATOM     27  C   UNL     1       0.446  12.184  20.216  0.00  0.00    +0.000 A 
ATOM     28  H   UNL     1       0.420  10.944  17.412  0.00  0.00    +0.000 HD
ENDBRANCH  18  19
ENDBRANCH  15  18
ENDBRANCH   5  14
BRANCH   7  29
ATOM     29  O   UNL     1       0.564   3.879  20.663  0.00  0.00    +0.000 OA
ATOM     30  H   UNL     1       0.580   4.856  20.786  0.00  0.00    +0.000 HD
ENDBRANCH   7  29
TORSDOF 4
ENDMDL
MODEL 7
REMARK VINA RESULT:      -8.3      2.388      8.967
REMARK  Name = 
REMARK  5 active torsions:
REMARK  status: ('A' for Active; 'I' for Inactive)
REMARK    1  A    between atoms: C_1  and  C_2
REMARK    2  A    between atoms: N_5  and  N_6
REMARK    3  A    between atoms: C_7  and  C_9
REMARK    4  A    between atoms: C_9  and  C_10
REMARK    5  A    between atoms: C_20  and  O_21
REMARK                            x       y       z     vdW  Elec       q    Type
REMARK                         _______ _______ _______ _____ _____    ______ ____
ROOT
ATOM      1  C   UNL     1       1.082   3.086  18.977  0.00  0.00    +0.000 C 
ATOM      2  C   UNL     1       2.136   3.921  18.349  0.00  0.00    +0.000 C 
ATOM      3  C   UNL     1       2.132   5.260  18.412  0.00  0.00    +0.000 C 
ATOM      4  C   UNL     1       3.178   6.141  17.808  0.00  0.00    +0.000 C 
ATOM      5  N   UNL     1       3.201   7.444  17.877  0.00  0.00    +0.000 NA
ATOM      6  C   UNL     1       4.266   5.402  17.055  0.00  0.00    +0.000 A 
ATOM      7  C   UNL     1       5.320   6.067  16.406  0.00  0.00    +0.000 A 
ATOM      8  C   UNL     1       6.317   5.356  15.717  0.00  0.00    +0.000 A 
ATOM      9  C   UNL     1       6.282   3.963  15.660  0.00  0.00    +0.000 A 
ATOM     10  C   UNL     1       5.263   3.273  16.303  0.00  0.00    +0.000 A 
ATOM     11  C   UNL     1       4.256   4.004  16.983  0.00  0.00    +0.000 A 
ATOM     12  C   UNL     1       3.189   3.209  17.624  0.00  0.00    +0.000 C 
ATOM     13  O   UNL     1       3.202   1.980  17.564  0.00  0.00    +0.000 OA
ENDROOT
BRANCH   5  14
ATOM     14  N   UNL     1       2.196   8.098  18.553  0.00  0.00    +0.000 N 
ATOM     15  C   UNL     1       1.855   9.418  18.282  0.00  0.00    +0.000 C 
ATOM     16  O   UNL     1       2.348  10.091  17.379  0.00  0.00    +0.000 OA
ATOM     17  H   UNL     1       1.665   7.636  19.276  0.00  0.00    +0.000 HD
BRANCH  15  18
ATOM     18  C   UNL     1       0.855   9.996  19.284  0.00  0.00    +0.000 C 
BRANCH  18  19
ATOM     19  C   UNL     1      -0.504  10.298  18.726  0.00  0.00    +0.000 A 
ATOM     20  C   UNL     1      -1.024   9.670  17.607  0.00  0.00    +0.000 A 
ATOM     21  N   UNL     1      -1.885  10.587  17.075  0.00  0.00    +0.000 N 
ATOM     22  C   UNL     1      -2.507  11.215  18.123  0.00  0.00    +0.000 A 
ATOM     23  C   UNL     1      -3.759  11.833  18.188  0.00  0.00    +0.000 A 
ATOM     24  C   UNL     1      -4.097  12.418  19.405  0.00  0.00    +0.000 A 
ATOM     25  C   UNL     1      -3.157  12.509  20.434  0.00  0.00    +0.000 A 
ATOM     26  C   UNL     1      -1.867  11.947  20.309  0.00  0.00    +0.000 A 
ATOM     27  C   UNL     1      -1.566  11.187  19.160  0.00  0.00    +0.000 A 
ATOM     28  H   UNL     1      -1.876  10.916  16.121  0.00  0.00    +0.000 HD
ENDBRANCH  18  19
ENDBRANCH  15  18
ENDBRANCH   5  14
BRANCH   7  29
ATOM     29  O   UNL     1       5.466   7.425  16.387  0.00  0.00    +0.000 OA
ATOM     30  H   UNL     1       6.133   7.661  15.701  0.00  0.00    +0.000 HD
ENDBRANCH   7  29
TORSDOF 4
ENDMDL
MODEL 8
REMARK VINA RESULT:      -8.3      2.762      9.121
REMARK  Name = 
REMARK  5 active torsions:
REMARK  status: ('A' for Active; 'I' for Inactive)
REMARK    1  A    between atoms: C_1  and  C_2
REMARK    2  A    between atoms: N_5  and  N_6
REMARK    3  A    between atoms: C_7  and  C_9
REMARK    4  A    between atoms: C_9  and  C_10
REMARK    5  A    between atoms: C_20  and  O_21
REMARK                            x       y       z     vdW  Elec       q    Type
REMARK                         _______ _______ _______ _____ _____    ______ ____
ROOT
ATOM      1  C   UNL     1       1.109   2.779  21.229  0.00  0.00    +0.000 C 
ATOM      2  C   UNL     1       1.857   3.683  20.319  0.00  0.00    +0.000 C 
ATOM      3  C   UNL     1       1.828   5.017  20.440  0.00  0.00    +0.000 C 
ATOM      4  C   UNL     1       2.574   5.965  19.559  0.00  0.00    +0.000 C 
ATOM      5  N   UNL     1       2.574   7.266  19.674  0.00  0.00    +0.000 NA
ATOM      6  C   UNL     1       3.368   5.304  18.450  0.00  0.00    +0.000 A 
ATOM      7  C   UNL     1       4.115   6.038  17.514  0.00  0.00    +0.000 A 
ATOM      8  C   UNL     1       4.843   5.397  16.496  0.00  0.00    +0.000 A 
ATOM      9  C   UNL     1       4.839   4.007  16.392  0.00  0.00    +0.000 A 
ATOM     10  C   UNL     1       4.124   3.249  17.310  0.00  0.00    +0.000 A 
ATOM     11  C   UNL     1       3.383   3.909  18.322  0.00  0.00    +0.000 A 
ATOM     12  C   UNL     1       2.626   3.045  19.250  0.00  0.00    +0.000 C 
ATOM     13  O   UNL     1       2.660   1.820  19.133  0.00  0.00    +0.000 OA
ENDROOT
BRANCH   5  14
ATOM     14  N   UNL     1       1.836   7.850  20.679  0.00  0.00    +0.000 N 
ATOM     15  C   UNL     1       1.014   8.948  20.456  0.00  0.00    +0.000 C 
ATOM     16  O   UNL     1       0.804   9.445  19.351  0.00  0.00    +0.000 OA
ATOM     17  H   UNL     1       1.866   7.495  21.624  0.00  0.00    +0.000 HD
BRANCH  15  18
ATOM     18  C   UNL     1       0.452   9.547  21.744  0.00  0.00    +0.000 C 
BRANCH  18  19
ATOM     19  C   UNL     1       0.080  10.999  21.664  0.00  0.00    +0.000 A 
ATOM     20  C   UNL     1       0.719  11.903  20.832  0.00  0.00    +0.000 A 
ATOM     21  N   UNL     1       0.578  13.103  21.467  0.00  0.00    +0.000 N 
ATOM     22  C   UNL     1      -0.674  13.124  22.023  0.00  0.00    +0.000 A 
ATOM     23  C   UNL     1      -1.506  14.205  22.330  0.00  0.00    +0.000 A 
ATOM     24  C   UNL     1      -2.725  13.896  22.927  0.00  0.00    +0.000 A 
ATOM     25  C   UNL     1      -3.008  12.589  23.330  0.00  0.00    +0.000 A 
ATOM     26  C   UNL     1      -2.110  11.529  23.081  0.00  0.00    +0.000 A 
ATOM     27  C   UNL     1      -0.954  11.783  22.312  0.00  0.00    +0.000 A 
ATOM     28  H   UNL     1       1.330  13.735  21.702  0.00  0.00    +0.000 HD
ENDBRANCH  18  19
ENDBRANCH  15  18
ENDBRANCH   5  14
BRANCH   7  29
ATOM     29  O   UNL     1       4.198   7.402  17.507  0.00  0.00    +0.000 OA
ATOM     30  H   UNL     1       5.028   7.665  17.048  0.00  0.00    +0.000 HD
ENDBRANCH   7  29
TORSDOF 4
ENDMDL
MODEL 9
REMARK VINA RESULT:      -8.3      2.797      9.036
REMARK  Name = 
REMARK  5 active torsions:
REMARK  status: ('A' for Active; 'I' for Inactive)
REMARK    1  A    between atoms: C_1  and  C_2
REMARK    2  A    between atoms: N_5  and  N_6
REMARK    3  A    between atoms: C_7  and  C_9
REMARK    4  A    between atoms: C_9  and  C_10
REMARK    5  A    between atoms: C_20  and  O_21
REMARK                            x       y       z     vdW  Elec       q    Type
REMARK                         _______ _______ _______ _____ _____    ______ ____
ROOT
ATOM      1  C   UNL     1       1.457   2.667  21.571  0.00  0.00    +0.000 C 
ATOM      2  C   UNL     1       2.030   3.666  20.635  0.00  0.00    +0.000 C 
ATOM      3  C   UNL     1       1.858   4.986  20.791  0.00  0.00    +0.000 C 
ATOM      4  C   UNL     1       2.427   6.029  19.884  0.00  0.00    +0.000 C 
ATOM      5  N   UNL     1       2.287   7.318  20.032  0.00  0.00    +0.000 NA
ATOM      6  C   UNL     1       3.210   5.482  18.707  0.00  0.00    +0.000 A 
ATOM      7  C   UNL     1       3.800   6.313  17.740  0.00  0.00    +0.000 A 
ATOM      8  C   UNL     1       4.521   5.777  16.660  0.00  0.00    +0.000 A 
ATOM      9  C   UNL     1       4.669   4.398  16.522  0.00  0.00    +0.000 A 
ATOM     10  C   UNL     1       4.112   3.547  17.467  0.00  0.00    +0.000 A 
ATOM     11  C   UNL     1       3.374   4.101  18.544  0.00  0.00    +0.000 A 
ATOM     12  C   UNL     1       2.788   3.139  19.500  0.00  0.00    +0.000 C 
ATOM     13  O   UNL     1       2.954   1.929  19.351  0.00  0.00    +0.000 OA
ENDROOT
BRANCH   5  14
ATOM     14  N   UNL     1       1.561   7.796  21.100  0.00  0.00    +0.000 N 
ATOM     15  C   UNL     1       0.602   8.793  20.960  0.00  0.00    +0.000 C 
ATOM     16  O   UNL     1       0.256   9.277  19.884  0.00  0.00    +0.000 OA
ATOM     17  H   UNL     1       1.700   7.434  22.031  0.00  0.00    +0.000 HD
BRANCH  15  18
ATOM     18  C   UNL     1       0.068   9.303  22.298  0.00  0.00    +0.000 C 
BRANCH  18  19
ATOM     19  C   UNL     1      -0.408  10.726  22.295  0.00  0.00    +0.000 A 
ATOM     20  C   UNL     1      -1.452  11.180  23.082  0.00  0.00    +0.000 A 
ATOM     21  N   UNL     1      -1.971  12.230  22.380  0.00  0.00    +0.000 N 
ATOM     22  C   UNL     1      -0.918  12.898  21.811  0.00  0.00    +0.000 A 
ATOM     23  C   UNL     1      -0.798  14.240  21.437  0.00  0.00    +0.000 A 
ATOM     24  C   UNL     1       0.406  14.611  20.846  0.00  0.00    +0.000 A 
ATOM     25  C   UNL     1       1.360  13.648  20.512  0.00  0.00    +0.000 A 
ATOM     26  C   UNL     1       1.175  12.284  20.828  0.00  0.00    +0.000 A 
ATOM     27  C   UNL     1       0.050  11.910  21.593  0.00  0.00    +0.000 A 
ATOM     28  H   UNL     1      -2.940  12.341  22.119  0.00  0.00    +0.000 HD
ENDBRANCH  18  19
ENDBRANCH  15  18
ENDBRANCH   5  14
BRANCH   7  29
ATOM     29  O   UNL     1       3.726   7.677  17.762  0.00  0.00    +0.000 OA
ATOM     30  H   UNL     1       3.779   7.981  18.696  0.00  0.00    +0.000 HD
ENDBRANCH   7  29
TORSDOF 4
ENDMDL
