MODEL 1
REMARK VINA RESULT:      -8.2      0.000      0.000
REMARK  Name = 
REMARK  8 active torsions:
REMARK  status: ('A' for Active; 'I' for Inactive)
REMARK    1  A    between atoms: C_1  and  C_2
REMARK    2  A    between atoms: C_2  and  O_3
REMARK    3  A    between atoms: O_3  and  C_4
REMARK    4  A    between atoms: C_4  and  C_6
REMARK    5  A    between atoms: N_9  and  C_10
REMARK    6  A    between atoms: C_16  and  N_17
REMARK    7  A    between atoms: C_18  and  C_20
REMARK    8  A    between atoms: C_25  and  C_26
REMARK                            x       y       z     vdW  Elec       q    Type
REMARK                         _______ _______ _______ _____ _____    ______ ____
ROOT
ATOM      1  C   UNL     1       3.443   3.323  20.440  0.00  0.00    +0.000 A 
ATOM      2  C   UNL     1       4.381   2.454  19.844  0.00  0.00    +0.000 A 
ATOM      3  N   UNL     1       5.270   3.084  19.080  0.00  0.00    +0.000 NA
ATOM      4  N   UNL     1       5.009   4.404  19.280  0.00  0.00    +0.000 N 
ATOM      5  C   UNL     1       3.887   4.593  20.093  0.00  0.00    +0.000 A 
ENDROOT
BRANCH   4   6
ATOM      6  C   UNL     1       5.851   5.383  18.687  0.00  0.00    +0.000 A 
ATOM      7  C   UNL     1       7.093   5.654  19.270  0.00  0.00    +0.000 A 
ATOM      8  C   UNL     1       7.958   6.573  18.682  0.00  0.00    +0.000 A 
ATOM      9  C   UNL     1       7.573   7.250  17.516  0.00  0.00    +0.000 A 
ATOM     10  C   UNL     1       6.323   7.013  16.955  0.00  0.00    +0.000 A 
ATOM     11  C   UNL     1       5.456   6.086  17.535  0.00  0.00    +0.000 A 
ENDBRANCH   4   6
BRANCH   5  12
ATOM     12  N   UNL     1       3.323   5.848  20.330  0.00  0.00    +0.000 N 
ATOM     13  C   UNL     1       2.436   6.381  19.408  0.00  0.00    +0.000 C 
ATOM     14  O   UNL     1       2.088   5.819  18.373  0.00  0.00    +0.000 OA
ATOM     15  H   UNL     1       3.189   6.134  21.294  0.00  0.00    +0.000 HD
BRANCH  13  16
ATOM     16  C   UNL     1       1.763   7.660  19.807  0.00  0.00    +0.000 A 
ATOM     17  C   UNL     1       1.168   7.666  21.083  0.00  0.00    +0.000 A 
ATOM     18  C   UNL     1       0.484   8.788  21.553  0.00  0.00    +0.000 A 
ATOM     19  C   UNL     1       0.392   9.922  20.756  0.00  0.00    +0.000 A 
ATOM     20  C   UNL     1       0.979   9.933  19.490  0.00  0.00    +0.000 A 
ATOM     21  C   UNL     1       1.660   8.806  18.990  0.00  0.00    +0.000 A 
ATOM     22  C   UNL     1       2.212   8.889  17.594  0.00  0.00    +0.000 C 
ENDBRANCH  13  16
ENDBRANCH   5  12
BRANCH   1  23
ATOM     23  C   UNL     1       2.214   2.897  21.088  0.00  0.00    +0.000 C 
ATOM     24  O   UNL     1       1.987   3.105  22.274  0.00  0.00    +0.000 OA
BRANCH  23  25
ATOM     25  O   UNL     1       1.452   2.090  20.290  0.00  0.00    +0.000 OA
BRANCH  25  27
ATOM     26  C   UNL     1       1.486   2.487  17.892  0.00  0.00    +0.000 C 
ATOM     27  C   UNL     1       0.764   2.712  19.202  0.00  0.00    +0.000 C 
ENDBRANCH  25  27
ENDBRANCH  23  25
ENDBRANCH   1  23
TORSDOF 6
ENDMDL
MODEL 2
REMARK VINA RESULT:      -8.2      0.368      1.018
REMARK  Name = 
REMARK  8 active torsions:
REMARK  status: ('A' for Active; 'I' for Inactive)
REMARK    1  A    between atoms: C_1  and  C_2
REMARK    2  A    between atoms: C_2  and  O_3
REMARK    3  A    between atoms: O_3  and  C_4
REMARK    4  A    between atoms: C_4  and  C_6
REMARK    5  A    between atoms: N_9  and  C_10
REMARK    6  A    between atoms: C_16  and  N_17
REMARK    7  A    between atoms: C_18  and  C_20
REMARK    8  A    between atoms: C_25  and  C_26
REMARK                            x       y       z     vdW  Elec       q    Type
REMARK                         _______ _______ _______ _____ _____    ______ ____
ROOT
ATOM      1  C   UNL     1       3.244   3.414  20.418  0.00  0.00    +0.000 A 
ATOM      2  C   UNL     1       4.148   2.500  19.835  0.00  0.00    +0.000 A 
ATOM      3  N   UNL     1       5.083   3.088  19.092  0.00  0.00    +0.000 NA
ATOM      4  N   UNL     1       4.886   4.418  19.295  0.00  0.00    +0.000 N 
ATOM      5  C   UNL     1       3.759   4.661  20.087  0.00  0.00    +0.000 A 
ENDROOT
BRANCH   4   6
ATOM      6  C   UNL     1       5.789   5.356  18.725  0.00  0.00    +0.000 A 
ATOM      7  C   UNL     1       5.400   6.067  17.584  0.00  0.00    +0.000 A 
ATOM      8  C   UNL     1       6.246   7.026  17.035  0.00  0.00    +0.000 A 
ATOM      9  C   UNL     1       7.503   7.263  17.608  0.00  0.00    +0.000 A 
ATOM     10  C   UNL     1       7.910   6.532  18.718  0.00  0.00    +0.000 A 
ATOM     11  C   UNL     1       7.062   5.575  19.279  0.00  0.00    +0.000 A 
ENDBRANCH   4   6
BRANCH   5  12
ATOM     12  N   UNL     1       3.257   5.943  20.320  0.00  0.00    +0.000 N 
ATOM     13  C   UNL     1       2.394   6.514  19.396  0.00  0.00    +0.000 C 
ATOM     14  O   UNL     1       2.019   5.966  18.364  0.00  0.00    +0.000 OA
ATOM     15  H   UNL     1       3.138   6.238  21.282  0.00  0.00    +0.000 HD
BRANCH  13  16
ATOM     16  C   UNL     1       1.784   7.825  19.792  0.00  0.00    +0.000 A 
ATOM     17  C   UNL     1       1.258   7.887  21.096  0.00  0.00    +0.000 A 
ATOM     18  C   UNL     1       0.635   9.043  21.568  0.00  0.00    +0.000 A 
ATOM     19  C   UNL     1       0.536  10.157  20.742  0.00  0.00    +0.000 A 
ATOM     20  C   UNL     1       1.055  10.113  19.448  0.00  0.00    +0.000 A 
ATOM     21  C   UNL     1       1.673   8.950  18.947  0.00  0.00    +0.000 A 
ATOM     22  C   UNL     1       2.153   8.976  17.522  0.00  0.00    +0.000 C 
ENDBRANCH  13  16
ENDBRANCH   5  12
BRANCH   1  23
ATOM     23  C   UNL     1       1.982   3.049  21.038  0.00  0.00    +0.000 C 
ATOM     24  O   UNL     1       1.920   2.423  22.090  0.00  0.00    +0.000 OA
BRANCH  23  25
ATOM     25  O   UNL     1       0.907   3.307  20.234  0.00  0.00    +0.000 OA
BRANCH  25  27
ATOM     26  C   UNL     1       1.195   3.102  17.829  0.00  0.00    +0.000 C 
ATOM     27  C   UNL     1       0.716   2.449  19.106  0.00  0.00    +0.000 C 
ENDBRANCH  25  27
ENDBRANCH  23  25
ENDBRANCH   1  23
TORSDOF 6
ENDMDL
MODEL 3
REMARK VINA RESULT:      -8.0      0.666      1.773
REMARK  Name = 
REMARK  8 active torsions:
REMARK  status: ('A' for Active; 'I' for Inactive)
REMARK    1  A    between atoms: C_1  and  C_2
REMARK    2  A    between atoms: C_2  and  O_3
REMARK    3  A    between atoms: O_3  and  C_4
REMARK    4  A    between atoms: C_4  and  C_6
REMARK    5  A    between atoms: N_9  and  C_10
REMARK    6  A    between atoms: C_16  and  N_17
REMARK    7  A    between atoms: C_18  and  C_20
REMARK    8  A    between atoms: C_25  and  C_26
REMARK                            x       y       z     vdW  Elec       q    Type
REMARK                         _______ _______ _______ _____ _____    ______ ____
ROOT
ATOM      1  C   UNL     1       3.213   3.748  20.506  0.00  0.00    +0.000 A 
ATOM      2  C   UNL     1       4.137   2.742  20.150  0.00  0.00    +0.000 A 
ATOM      3  N   UNL     1       5.140   3.192  19.400  0.00  0.00    +0.000 NA
ATOM      4  N   UNL     1       4.959   4.539  19.371  0.00  0.00    +0.000 N 
ATOM      5  C   UNL     1       3.781   4.920  20.022  0.00  0.00    +0.000 A 
ENDROOT
BRANCH   4   6
ATOM      6  C   UNL     1       5.925   5.363  18.731  0.00  0.00    +0.000 A 
ATOM      7  C   UNL     1       5.656   5.856  17.449  0.00  0.00    +0.000 A 
ATOM      8  C   UNL     1       6.562   6.705  16.821  0.00  0.00    +0.000 A 
ATOM      9  C   UNL     1       7.762   7.046  17.460  0.00  0.00    +0.000 A 
ATOM     10  C   UNL     1       8.052   6.526  18.716  0.00  0.00    +0.000 A 
ATOM     11  C   UNL     1       7.143   5.682  19.356  0.00  0.00    +0.000 A 
ENDBRANCH   4   6
BRANCH   5  12
ATOM     12  N   UNL     1       3.292   6.227  20.006  0.00  0.00    +0.000 N 
ATOM     13  C   UNL     1       2.530   6.656  18.930  0.00  0.00    +0.000 C 
ATOM     14  O   UNL     1       2.234   5.958  17.965  0.00  0.00    +0.000 OA
ATOM     15  H   UNL     1       3.096   6.671  20.896  0.00  0.00    +0.000 HD
BRANCH  13  16
ATOM     16  C   UNL     1       1.921   8.020  19.060  0.00  0.00    +0.000 A 
ATOM     17  C   UNL     1       2.138   8.893  17.977  0.00  0.00    +0.000 A 
ATOM     18  C   UNL     1       1.648  10.200  17.996  0.00  0.00    +0.000 A 
ATOM     19  C   UNL     1       0.928  10.649  19.096  0.00  0.00    +0.000 A 
ATOM     20  C   UNL     1       0.701   9.795  20.176  0.00  0.00    +0.000 A 
ATOM     21  C   UNL     1       1.201   8.477  20.184  0.00  0.00    +0.000 A 
ATOM     22  C   UNL     1       0.956   7.648  21.414  0.00  0.00    +0.000 C 
ENDBRANCH  13  16
ENDBRANCH   5  12
BRANCH   1  23
ATOM     23  C   UNL     1       1.899   3.502  21.075  0.00  0.00    +0.000 C 
ATOM     24  O   UNL     1       1.739   2.910  22.137  0.00  0.00    +0.000 OA
BRANCH  23  25
ATOM     25  O   UNL     1       0.885   3.824  20.216  0.00  0.00    +0.000 OA
BRANCH  25  27
ATOM     26  C   UNL     1       1.321   2.633  18.142  0.00  0.00    +0.000 C 
ATOM     27  C   UNL     1       0.417   2.792  19.344  0.00  0.00    +0.000 C 
ENDBRANCH  25  27
ENDBRANCH  23  25
ENDBRANCH   1  23
TORSDOF 6
ENDMDL
MODEL 4
REMARK VINA RESULT:      -8.0      1.938      4.813
REMARK  Name = 
REMARK  8 active torsions:
REMARK  status: ('A' for Active; 'I' for Inactive)
REMARK    1  A    between atoms: C_1  and  C_2
REMARK    2  A    between atoms: C_2  and  O_3
REMARK    3  A    between atoms: O_3  and  C_4
REMARK    4  A    between atoms: C_4  and  C_6
REMARK    5  A    between atoms: N_9  and  C_10
REMARK    6  A    between atoms: C_16  and  N_17
REMARK    7  A    between atoms: C_18  and  C_20
REMARK    8  A    between atoms: C_25  and  C_26
REMARK                            x       y       z     vdW  Elec       q    Type
REMARK                         _______ _______ _______ _____ _____    ______ ____
ROOT
ATOM      1  C   UNL     1       4.818   5.355  16.789  0.00  0.00    +0.000 A 
ATOM      2  C   UNL     1       4.967   3.978  16.520  0.00  0.00    +0.000 A 
ATOM      3  N   UNL     1       4.394   3.198  17.434  0.00  0.00    +0.000 NA
ATOM      4  N   UNL     1       3.734   4.065  18.248  0.00  0.00    +0.000 N 
ATOM      5  C   UNL     1       3.981   5.397  17.899  0.00  0.00    +0.000 A 
ENDROOT
BRANCH   4   6
ATOM      6  C   UNL     1       2.914   3.559  19.293  0.00  0.00    +0.000 A 
ATOM      7  C   UNL     1       3.521   3.013  20.429  0.00  0.00    +0.000 A 
ATOM      8  C   UNL     1       2.741   2.556  21.488  0.00  0.00    +0.000 A 
ATOM      9  C   UNL     1       1.343   2.617  21.407  0.00  0.00    +0.000 A 
ATOM     10  C   UNL     1       0.735   3.122  20.263  0.00  0.00    +0.000 A 
ATOM     11  C   UNL     1       1.512   3.591  19.202  0.00  0.00    +0.000 A 
ENDBRANCH   4   6
BRANCH   5  12
ATOM     12  N   UNL     1       3.542   6.477  18.665  0.00  0.00    +0.000 N 
ATOM     13  C   UNL     1       2.300   7.036  18.405  0.00  0.00    +0.000 C 
ATOM     14  O   UNL     1       1.529   6.642  17.535  0.00  0.00    +0.000 OA
ATOM     15  H   UNL     1       3.868   6.543  19.623  0.00  0.00    +0.000 HD
BRANCH  13  16
ATOM     16  C   UNL     1       1.840   8.091  19.367  0.00  0.00    +0.000 A 
ATOM     17  C   UNL     1       1.614   7.659  20.687  0.00  0.00    +0.000 A 
ATOM     18  C   UNL     1       1.154   8.541  21.665  0.00  0.00    +0.000 A 
ATOM     19  C   UNL     1       0.919   9.871  21.336  0.00  0.00    +0.000 A 
ATOM     20  C   UNL     1       1.140  10.316  20.033  0.00  0.00    +0.000 A 
ATOM     21  C   UNL     1       1.590   9.438  19.027  0.00  0.00    +0.000 A 
ATOM     22  C   UNL     1       1.747   9.992  17.638  0.00  0.00    +0.000 C 
ENDBRANCH  13  16
ENDBRANCH   5  12
BRANCH   1  23
ATOM     23  C   UNL     1       5.561   6.414  16.129  0.00  0.00    +0.000 C 
ATOM     24  O   UNL     1       5.068   7.124  15.260  0.00  0.00    +0.000 OA
BRANCH  23  25
ATOM     25  O   UNL     1       6.892   6.397  16.441  0.00  0.00    +0.000 OA
BRANCH  25  27
ATOM     26  C   UNL     1       7.773   6.223  18.700  0.00  0.00    +0.000 C 
ATOM     27  C   UNL     1       7.301   7.139  17.593  0.00  0.00    +0.000 C 
ENDBRANCH  25  27
ENDBRANCH  23  25
ENDBRANCH   1  23
TORSDOF 6
ENDMDL
MODEL 5
REMARK VINA RESULT:      -8.0      1.208      1.729
REMARK  Name = 
REMARK  8 active torsions:
REMARK  status: ('A' for Active; 'I' for Inactive)
REMARK    1  A    between atoms: C_1  and  C_2
REMARK    2  A    between atoms: C_2  and  O_3
REMARK    3  A    between atoms: O_3  and  C_4
REMARK    4  A    between atoms: C_4  and  C_6
REMARK    5  A    between atoms: N_9  and  C_10
REMARK    6  A    between atoms: C_16  and  N_17
REMARK    7  A    between atoms: C_18  and  C_20
REMARK    8  A    between atoms: C_25  and  C_26
REMARK                            x       y       z     vdW  Elec       q    Type
REMARK                         _______ _______ _______ _____ _____    ______ ____
ROOT
ATOM      1  C   UNL     1       2.862   3.700  18.481  0.00  0.00    +0.000 A 
ATOM      2  C   UNL     1       3.773   2.963  17.695  0.00  0.00    +0.000 A 
ATOM      3  N   UNL     1       4.885   3.637  17.409  0.00  0.00    +0.000 NA
ATOM      4  N   UNL     1       4.777   4.785  18.129  0.00  0.00    +0.000 N 
ATOM      5  C   UNL     1       3.545   4.871  18.787  0.00  0.00    +0.000 A 
ENDROOT
BRANCH   4   6
ATOM      6  C   UNL     1       5.856   5.710  18.142  0.00  0.00    +0.000 A 
ATOM      7  C   UNL     1       6.929   5.490  19.013  0.00  0.00    +0.000 A 
ATOM      8  C   UNL     1       8.022   6.353  19.010  0.00  0.00    +0.000 A 
ATOM      9  C   UNL     1       8.037   7.461  18.152  0.00  0.00    +0.000 A 
ATOM     10  C   UNL     1       6.956   7.706  17.313  0.00  0.00    +0.000 A 
ATOM     11  C   UNL     1       5.861   6.839  17.304  0.00  0.00    +0.000 A 
ENDBRANCH   4   6
BRANCH   5  12
ATOM     12  N   UNL     1       3.128   6.014  19.472  0.00  0.00    +0.000 N 
ATOM     13  C   UNL     1       2.339   6.949  18.819  0.00  0.00    +0.000 C 
ATOM     14  O   UNL     1       1.959   6.847  17.657  0.00  0.00    +0.000 OA
ATOM     15  H   UNL     1       3.000   5.945  20.475  0.00  0.00    +0.000 HD
BRANCH  13  16
ATOM     16  C   UNL     1       1.811   8.068  19.666  0.00  0.00    +0.000 A 
ATOM     17  C   UNL     1       1.526   7.740  21.005  0.00  0.00    +0.000 A 
ATOM     18  C   UNL     1       1.000   8.689  21.883  0.00  0.00    +0.000 A 
ATOM     19  C   UNL     1       0.757   9.982  21.433  0.00  0.00    +0.000 A 
ATOM     20  C   UNL     1       1.037  10.323  20.110  0.00  0.00    +0.000 A 
ATOM     21  C   UNL     1       1.554   9.376  19.204  0.00  0.00    +0.000 A 
ATOM     22  C   UNL     1       1.772   9.819  17.784  0.00  0.00    +0.000 C 
ENDBRANCH  13  16
ENDBRANCH   5  12
BRANCH   1  23
ATOM     23  C   UNL     1       1.476   3.330  18.708  0.00  0.00    +0.000 C 
ATOM     24  O   UNL     1       0.774   2.834  17.835  0.00  0.00    +0.000 OA
BRANCH  23  25
ATOM     25  O   UNL     1       1.005   3.769  19.915  0.00  0.00    +0.000 OA
BRANCH  25  27
ATOM     26  C   UNL     1       2.247   3.298  21.950  0.00  0.00    +0.000 C 
ATOM     27  C   UNL     1       1.127   2.877  21.025  0.00  0.00    +0.000 C 
ENDBRANCH  25  27
ENDBRANCH  23  25
ENDBRANCH   1  23
TORSDOF 6
ENDMDL
MODEL 6
REMARK VINA RESULT:      -8.0      2.004      4.989
REMARK  Name = 
REMARK  8 active torsions:
REMARK  status: ('A' for Active; 'I' for Inactive)
REMARK    1  A    between atoms: C_1  and  C_2
REMARK    2  A    between atoms: C_2  and  O_3
REMARK    3  A    between atoms: O_3  and  C_4
REMARK    4  A    between atoms: C_4  and  C_6
REMARK    5  A    between atoms: N_9  and  C_10
REMARK    6  A    between atoms: C_16  and  N_17
REMARK    7  A    between atoms: C_18  and  C_20
REMARK    8  A    between atoms: C_25  and  C_26
REMARK                            x       y       z     vdW  Elec       q    Type
REMARK                         _______ _______ _______ _____ _____    ______ ____
ROOT
ATOM      1  C   UNL     1       4.866   5.312  16.687  0.00  0.00    +0.000 A 
ATOM      2  C   UNL     1       5.031   3.922  16.507  0.00  0.00    +0.000 A 
ATOM      3  N   UNL     1       4.428   3.195  17.445  0.00  0.00    +0.000 NA
ATOM      4  N   UNL     1       3.735   4.105  18.180  0.00  0.00    +0.000 N 
ATOM      5  C   UNL     1       3.989   5.415  17.760  0.00  0.00    +0.000 A 
ENDROOT
BRANCH   4   6
ATOM      6  C   UNL     1       2.879   3.657  19.223  0.00  0.00    +0.000 A 
ATOM      7  C   UNL     1       3.444   3.209  20.422  0.00  0.00    +0.000 A 
ATOM      8  C   UNL     1       2.627   2.812  21.477  0.00  0.00    +0.000 A 
ATOM      9  C   UNL     1       1.233   2.835  21.330  0.00  0.00    +0.000 A 
ATOM     10  C   UNL     1       0.667   3.243  20.127  0.00  0.00    +0.000 A 
ATOM     11  C   UNL     1       1.481   3.651  19.069  0.00  0.00    +0.000 A 
ENDBRANCH   4   6
BRANCH   5  12
ATOM     12  N   UNL     1       3.517   6.537  18.444  0.00  0.00    +0.000 N 
ATOM     13  C   UNL     1       2.283   7.071  18.104  0.00  0.00    +0.000 C 
ATOM     14  O   UNL     1       1.546   6.620  17.232  0.00  0.00    +0.000 OA
ATOM     15  H   UNL     1       3.807   6.663  19.407  0.00  0.00    +0.000 HD
BRANCH  13  16
ATOM     16  C   UNL     1       1.783   8.178  18.983  0.00  0.00    +0.000 A 
ATOM     17  C   UNL     1       1.695   9.446  18.378  0.00  0.00    +0.000 A 
ATOM     18  C   UNL     1       1.275  10.563  19.103  0.00  0.00    +0.000 A 
ATOM     19  C   UNL     1       0.930  10.423  20.442  0.00  0.00    +0.000 A 
ATOM     20  C   UNL     1       1.009   9.172  21.055  0.00  0.00    +0.000 A 
ATOM     21  C   UNL     1       1.446   8.036  20.346  0.00  0.00    +0.000 A 
ATOM     22  C   UNL     1       1.554   6.742  21.103  0.00  0.00    +0.000 C 
ENDBRANCH  13  16
ENDBRANCH   5  12
BRANCH   1  23
ATOM     23  C   UNL     1       5.629   6.334  15.992  0.00  0.00    +0.000 C 
ATOM     24  O   UNL     1       5.165   6.987  15.064  0.00  0.00    +0.000 OA
BRANCH  23  25
ATOM     25  O   UNL     1       6.947   6.344  16.354  0.00  0.00    +0.000 OA
BRANCH  25  27
ATOM     26  C   UNL     1       7.750   6.263  18.647  0.00  0.00    +0.000 C 
ATOM     27  C   UNL     1       7.304   7.132  17.493  0.00  0.00    +0.000 C 
ENDBRANCH  25  27
ENDBRANCH  23  25
ENDBRANCH   1  23
TORSDOF 6
ENDMDL
MODEL 7
REMARK VINA RESULT:      -7.9      2.049      5.011
REMARK  Name = 
REMARK  8 active torsions:
REMARK  status: ('A' for Active; 'I' for Inactive)
REMARK    1  A    between atoms: C_1  and  C_2
REMARK    2  A    between atoms: C_2  and  O_3
REMARK    3  A    between atoms: O_3  and  C_4
REMARK    4  A    between atoms: C_4  and  C_6
REMARK    5  A    between atoms: N_9  and  C_10
REMARK    6  A    between atoms: C_16  and  N_17
REMARK    7  A    between atoms: C_18  and  C_20
REMARK    8  A    between atoms: C_25  and  C_26
REMARK                            x       y       z     vdW  Elec       q    Type
REMARK                         _______ _______ _______ _____ _____    ______ ____
ROOT
ATOM      1  C   UNL     1       4.710   5.470  16.968  0.00  0.00    +0.000 A 
ATOM      2  C   UNL     1       4.881   4.097  16.689  0.00  0.00    +0.000 A 
ATOM      3  N   UNL     1       4.337   3.302  17.608  0.00  0.00    +0.000 NA
ATOM      4  N   UNL     1       3.674   4.153  18.437  0.00  0.00    +0.000 N 
ATOM      5  C   UNL     1       3.891   5.490  18.090  0.00  0.00    +0.000 A 
ENDROOT
BRANCH   4   6
ATOM      6  C   UNL     1       2.880   3.627  19.492  0.00  0.00    +0.000 A 
ATOM      7  C   UNL     1       1.488   3.747  19.419  0.00  0.00    +0.000 A 
ATOM      8  C   UNL     1       0.684   3.197  20.414  0.00  0.00    +0.000 A 
ATOM      9  C   UNL     1       1.271   2.544  21.507  0.00  0.00    +0.000 A 
ATOM     10  C   UNL     1       2.655   2.457  21.604  0.00  0.00    +0.000 A 
ATOM     11  C   UNL     1       3.466   2.998  20.604  0.00  0.00    +0.000 A 
ENDBRANCH   4   6
BRANCH   5  12
ATOM     12  N   UNL     1       3.443   6.559  18.869  0.00  0.00    +0.000 N 
ATOM     13  C   UNL     1       2.265   7.206  18.525  0.00  0.00    +0.000 C 
ATOM     14  O   UNL     1       1.560   6.901  17.568  0.00  0.00    +0.000 OA
ATOM     15  H   UNL     1       3.679   6.560  19.855  0.00  0.00    +0.000 HD
BRANCH  13  16
ATOM     16  C   UNL     1       1.778   8.240  19.494  0.00  0.00    +0.000 A 
ATOM     17  C   UNL     1       1.556   7.791  20.809  0.00  0.00    +0.000 A 
ATOM     18  C   UNL     1       1.071   8.654  21.793  0.00  0.00    +0.000 A 
ATOM     19  C   UNL     1       0.807   9.980  21.476  0.00  0.00    +0.000 A 
ATOM     20  C   UNL     1       1.023  10.442  20.177  0.00  0.00    +0.000 A 
ATOM     21  C   UNL     1       1.498   9.584  19.165  0.00  0.00    +0.000 A 
ATOM     22  C   UNL     1       1.648  10.155  17.782  0.00  0.00    +0.000 C 
ENDBRANCH  13  16
ENDBRANCH   5  12
BRANCH   1  23
ATOM     23  C   UNL     1       5.423   6.546  16.301  0.00  0.00    +0.000 C 
ATOM     24  O   UNL     1       5.609   6.564  15.090  0.00  0.00    +0.000 OA
BRANCH  23  25
ATOM     25  O   UNL     1       6.015   7.409  17.181  0.00  0.00    +0.000 OA
BRANCH  25  27
ATOM     26  C   UNL     1       8.092   8.474  17.858  0.00  0.00    +0.000 C 
ATOM     27  C   UNL     1       7.394   7.185  17.486  0.00  0.00    +0.000 C 
ENDBRANCH  25  27
ENDBRANCH  23  25
ENDBRANCH   1  23
TORSDOF 6
ENDMDL
MODEL 8
REMARK VINA RESULT:      -7.7      1.153      1.888
REMARK  Name = 
REMARK  8 active torsions:
REMARK  status: ('A' for Active; 'I' for Inactive)
REMARK    1  A    between atoms: C_1  and  C_2
REMARK    2  A    between atoms: C_2  and  O_3
REMARK    3  A    between atoms: O_3  and  C_4
REMARK    4  A    between atoms: C_4  and  C_6
REMARK    5  A    between atoms: N_9  and  C_10
REMARK    6  A    between atoms: C_16  and  N_17
REMARK    7  A    between atoms: C_18  and  C_20
REMARK    8  A    between atoms: C_25  and  C_26
REMARK                            x       y       z     vdW  Elec       q    Type
REMARK                         _______ _______ _______ _____ _____    ______ ____
ROOT
ATOM      1  C   UNL     1       2.951   3.732  18.738  0.00  0.00    +0.000 A 
ATOM      2  C   UNL     1       3.846   2.959  17.968  0.00  0.00    +0.000 A 
ATOM      3  N   UNL     1       4.938   3.627  17.603  0.00  0.00    +0.000 NA
ATOM      4  N   UNL     1       4.837   4.816  18.255  0.00  0.00    +0.000 N 
ATOM      5  C   UNL     1       3.627   4.928  18.948  0.00  0.00    +0.000 A 
ENDROOT
BRANCH   4   6
ATOM      6  C   UNL     1       5.903   5.753  18.174  0.00  0.00    +0.000 A 
ATOM      7  C   UNL     1       5.816   6.803  17.253  0.00  0.00    +0.000 A 
ATOM      8  C   UNL     1       6.822   7.763  17.188  0.00  0.00    +0.000 A 
ATOM      9  C   UNL     1       7.941   7.663  18.027  0.00  0.00    +0.000 A 
ATOM     10  C   UNL     1       8.051   6.599  18.915  0.00  0.00    +0.000 A 
ATOM     11  C   UNL     1       7.040   5.639  18.992  0.00  0.00    +0.000 A 
ENDBRANCH   4   6
BRANCH   5  12
ATOM     12  N   UNL     1       3.216   6.106  19.575  0.00  0.00    +0.000 N 
ATOM     13  C   UNL     1       2.349   6.962  18.913  0.00  0.00    +0.000 C 
ATOM     14  O   UNL     1       1.893   6.760  17.792  0.00  0.00    +0.000 OA
ATOM     15  H   UNL     1       3.161   6.110  20.587  0.00  0.00    +0.000 HD
BRANCH  13  16
ATOM     16  C   UNL     1       1.841   8.125  19.711  0.00  0.00    +0.000 A 
ATOM     17  C   UNL     1       1.561   7.863  21.065  0.00  0.00    +0.000 A 
ATOM     18  C   UNL     1       1.052   8.858  21.902  0.00  0.00    +0.000 A 
ATOM     19  C   UNL     1       0.821  10.131  21.395  0.00  0.00    +0.000 A 
ATOM     20  C   UNL     1       1.096  10.408  20.056  0.00  0.00    +0.000 A 
ATOM     21  C   UNL     1       1.595   9.414  19.191  0.00  0.00    +0.000 A 
ATOM     22  C   UNL     1       1.808   9.788  17.750  0.00  0.00    +0.000 C 
ENDBRANCH  13  16
ENDBRANCH   5  12
BRANCH   1  23
ATOM     23  C   UNL     1       1.578   3.360  19.034  0.00  0.00    +0.000 C 
ATOM     24  O   UNL     1       0.884   2.719  18.253  0.00  0.00    +0.000 OA
BRANCH  23  25
ATOM     25  O   UNL     1       1.104   3.960  20.167  0.00  0.00    +0.000 OA
BRANCH  25  27
ATOM     26  C   UNL     1       1.410   2.334  21.948  0.00  0.00    +0.000 C 
ATOM     27  C   UNL     1       1.795   3.685  21.388  0.00  0.00    +0.000 C 
ENDBRANCH  25  27
ENDBRANCH  23  25
ENDBRANCH   1  23
TORSDOF 6
ENDMDL
MODEL 9
REMARK VINA RESULT:      -7.6      1.379      2.502
REMARK  Name = 
REMARK  8 active torsions:
REMARK  status: ('A' for Active; 'I' for Inactive)
REMARK    1  A    between atoms: C_1  and  C_2
REMARK    2  A    between atoms: C_2  and  O_3
REMARK    3  A    between atoms: O_3  and  C_4
REMARK    4  A    between atoms: C_4  and  C_6
REMARK    5  A    between atoms: N_9  and  C_10
REMARK    6  A    between atoms: C_16  and  N_17
REMARK    7  A    between atoms: C_18  and  C_20
REMARK    8  A    between atoms: C_25  and  C_26
REMARK                            x       y       z     vdW  Elec       q    Type
REMARK                         _______ _______ _______ _____ _____    ______ ____
ROOT
ATOM      1  C   UNL     1       3.144   3.930  18.101  0.00  0.00    +0.000 A 
ATOM      2  C   UNL     1       4.242   3.045  18.053  0.00  0.00    +0.000 A 
ATOM      3  N   UNL     1       5.413   3.667  17.930  0.00  0.00    +0.000 NA
ATOM      4  N   UNL     1       5.105   4.987  18.039  0.00  0.00    +0.000 N 
ATOM      5  C   UNL     1       3.724   5.193  18.129  0.00  0.00    +0.000 A 
ENDROOT
BRANCH   4   6
ATOM      6  C   UNL     1       6.149   5.951  18.057  0.00  0.00    +0.000 A 
ATOM      7  C   UNL     1       6.086   7.037  17.176  0.00  0.00    +0.000 A 
ATOM      8  C   UNL     1       7.069   8.021  17.206  0.00  0.00    +0.000 A 
ATOM      9  C   UNL     1       8.141   7.914  18.103  0.00  0.00    +0.000 A 
ATOM     10  C   UNL     1       8.229   6.817  18.953  0.00  0.00    +0.000 A 
ATOM     11  C   UNL     1       7.241   5.831  18.934  0.00  0.00    +0.000 A 
ENDBRANCH   4   6
BRANCH   5  12
ATOM     12  N   UNL     1       3.142   6.461  18.101  0.00  0.00    +0.000 N 
ATOM     13  C   UNL     1       2.377   6.882  19.179  0.00  0.00    +0.000 C 
ATOM     14  O   UNL     1       2.171   6.215  20.188  0.00  0.00    +0.000 OA
ATOM     15  H   UNL     1       3.616   7.190  17.580  0.00  0.00    +0.000 HD
BRANCH  13  16
ATOM     16  C   UNL     1       1.914   8.308  19.137  0.00  0.00    +0.000 A 
ATOM     17  C   UNL     1       2.261   9.030  17.981  0.00  0.00    +0.000 A 
ATOM     18  C   UNL     1       1.914  10.375  17.840  0.00  0.00    +0.000 A 
ATOM     19  C   UNL     1       1.209  11.013  18.853  0.00  0.00    +0.000 A 
ATOM     20  C   UNL     1       0.855  10.310  20.005  0.00  0.00    +0.000 A 
ATOM     21  C   UNL     1       1.209   8.956  20.174  0.00  0.00    +0.000 A 
ATOM     22  C   UNL     1       0.835   8.296  21.471  0.00  0.00    +0.000 C 
ENDBRANCH  13  16
ENDBRANCH   5  12
BRANCH   1  23
ATOM     23  C   UNL     1       1.754   3.534  17.955  0.00  0.00    +0.000 C 
ATOM     24  O   UNL     1       0.967   4.141  17.238  0.00  0.00    +0.000 OA
BRANCH  23  25
ATOM     25  O   UNL     1       1.390   2.554  18.837  0.00  0.00    +0.000 OA
BRANCH  25  27
ATOM     26  C   UNL     1       1.493   2.718  21.260  0.00  0.00    +0.000 C 
ATOM     27  C   UNL     1       0.680   2.963  20.009  0.00  0.00    +0.000 C 
ENDBRANCH  25  27
ENDBRANCH  23  25
ENDBRANCH   1  23
TORSDOF 6
ENDMDL
