MODEL 1
REMARK VINA RESULT:      -7.8      0.000      0.000
REMARK  Name = 
REMARK  9 active torsions:
REMARK  status: ('A' for Active; 'I' for Inactive)
REMARK    1  A    between atoms: C_1  and  C_2
REMARK    2  A    between atoms: C_8  and  C_9
REMARK    3  A    between atoms: C_10  and  O_11
REMARK    4  A    between atoms: O_11  and  C_12
REMARK    5  A    between atoms: C_12  and  C_13
REMARK    6  A    between atoms: C_12  and  C_14
REMARK    7  A    between atoms: N_16  and  C_17
REMARK    8  A    between atoms: C_17  and  C_18
REMARK    9  A    between atoms: C_18  and  N_19
REMARK                            x       y       z     vdW  Elec       q    Type
REMARK                         _______ _______ _______ _____ _____    ______ ____
ROOT
ATOM      1  O   UNL     1       2.486   6.586  19.499  0.00  0.00    +0.000 OA
ENDROOT
BRANCH   1  11
ATOM      2  C   UNL     1      -0.853  11.234  22.746  0.00  0.00    +0.000 C 
ATOM      3  C   UNL     1      -0.414  11.099  21.316  0.00  0.00    +0.000 A 
ATOM      4  C   UNL     1      -0.726  12.017  20.392  0.00  0.00    +0.000 A 
ATOM      5  C   UNL     1      -0.301  11.922  18.988  0.00  0.00    +0.000 A 
ATOM      6  O   UNL     1      -0.640  12.773  18.174  0.00  0.00    +0.000 OA
ATOM      7  O   UNL     1       0.500  10.845  18.651  0.00  0.00    +0.000 OA
ATOM      8  C   UNL     1       0.816   9.825  19.580  0.00  0.00    +0.000 A 
ATOM      9  C   UNL     1       1.565   8.728  19.118  0.00  0.00    +0.000 A 
ATOM     10  C   UNL     1       2.095   8.668  17.708  0.00  0.00    +0.000 C 
ATOM     11  C   UNL     1       1.820   7.668  20.011  0.00  0.00    +0.000 A 
ATOM     12  C   UNL     1       1.385   7.769  21.334  0.00  0.00    +0.000 A 
ATOM     13  C   UNL     1       0.680   8.888  21.776  0.00  0.00    +0.000 A 
ATOM     14  C   UNL     1       0.367   9.928  20.902  0.00  0.00    +0.000 A 
ENDBRANCH   1  11
BRANCH   1  15
ATOM     15  C   UNL     1       2.516   5.367  20.242  0.00  0.00    +0.000 C 
ATOM     16  C   UNL     1       1.098   4.835  20.443  0.00  0.00    +0.000 C 
BRANCH  15  17
ATOM     17  C   UNL     1       3.351   4.327  19.477  0.00  0.00    +0.000 C 
ATOM     18  O   UNL     1       4.287   3.707  19.975  0.00  0.00    +0.000 OA
ATOM     19  N   UNL     1       2.926   4.111  18.173  0.00  0.00    +0.000 N 
ATOM     20  H   UNL     1       2.323   4.796  17.737  0.00  0.00    +0.000 HD
BRANCH  19  21
ATOM     21  C   UNL     1       3.643   3.202  17.294  0.00  0.00    +0.000 C 
BRANCH  21  22
ATOM     22  C   UNL     1       4.995   3.765  16.810  0.00  0.00    +0.000 C 
BRANCH  22  23
ATOM     23  N   UNL     1       4.910   5.096  16.172  0.00  0.00    +0.000 NA
ATOM     24  C   UNL     1       5.546   5.064  14.829  0.00  0.00    +0.000 C 
ATOM     25  C   UNL     1       7.077   4.902  14.878  0.00  0.00    +0.000 C 
ATOM     26  O   UNL     1       7.678   5.968  15.624  0.00  0.00    +0.000 OA
ATOM     27  C   UNL     1       7.144   6.033  16.954  0.00  0.00    +0.000 C 
ATOM     28  C   UNL     1       5.608   6.151  16.949  0.00  0.00    +0.000 C 
ENDBRANCH  22  23
ENDBRANCH  21  22
ENDBRANCH  19  21
ENDBRANCH  15  17
ENDBRANCH   1  15
TORSDOF 6
ENDMDL
MODEL 2
REMARK VINA RESULT:      -7.7      1.116      1.578
REMARK  Name = 
REMARK  9 active torsions:
REMARK  status: ('A' for Active; 'I' for Inactive)
REMARK    1  A    between atoms: C_1  and  C_2
REMARK    2  A    between atoms: C_8  and  C_9
REMARK    3  A    between atoms: C_10  and  O_11
REMARK    4  A    between atoms: O_11  and  C_12
REMARK    5  A    between atoms: C_12  and  C_13
REMARK    6  A    between atoms: C_12  and  C_14
REMARK    7  A    between atoms: N_16  and  C_17
REMARK    8  A    between atoms: C_17  and  C_18
REMARK    9  A    between atoms: C_18  and  N_19
REMARK                            x       y       z     vdW  Elec       q    Type
REMARK                         _______ _______ _______ _____ _____    ______ ____
ROOT
ATOM      1  O   UNL     1       2.484   6.646  19.577  0.00  0.00    +0.000 OA
ENDROOT
BRANCH   1  11
ATOM      2  C   UNL     1      -1.013  11.228  22.749  0.00  0.00    +0.000 C 
ATOM      3  C   UNL     1      -0.552  11.095  21.326  0.00  0.00    +0.000 A 
ATOM      4  C   UNL     1      -0.875  11.998  20.392  0.00  0.00    +0.000 A 
ATOM      5  C   UNL     1      -0.430  11.905  18.994  0.00  0.00    +0.000 A 
ATOM      6  O   UNL     1      -0.779  12.742  18.171  0.00  0.00    +0.000 OA
ATOM      7  O   UNL     1       0.402  10.847  18.675  0.00  0.00    +0.000 OA
ATOM      8  C   UNL     1       0.732   9.841  19.614  0.00  0.00    +0.000 A 
ATOM      9  C   UNL     1       1.515   8.760  19.169  0.00  0.00    +0.000 A 
ATOM     10  C   UNL     1       2.064   8.705  17.767  0.00  0.00    +0.000 C 
ATOM     11  C   UNL     1       1.785   7.713  20.073  0.00  0.00    +0.000 A 
ATOM     12  C   UNL     1       1.330   7.812  21.389  0.00  0.00    +0.000 A 
ATOM     13  C   UNL     1       0.591   8.916  21.815  0.00  0.00    +0.000 A 
ATOM     14  C   UNL     1       0.264   9.941  20.930  0.00  0.00    +0.000 A 
ENDBRANCH   1  11
BRANCH   1  15
ATOM     15  C   UNL     1       2.466   5.407  20.286  0.00  0.00    +0.000 C 
ATOM     16  C   UNL     1       1.253   4.577  19.870  0.00  0.00    +0.000 C 
BRANCH  15  17
ATOM     17  C   UNL     1       3.754   4.625  19.976  0.00  0.00    +0.000 C 
ATOM     18  O   UNL     1       3.842   3.402  20.052  0.00  0.00    +0.000 OA
ATOM     19  N   UNL     1       4.809   5.422  19.553  0.00  0.00    +0.000 N 
ATOM     20  H   UNL     1       4.771   6.417  19.731  0.00  0.00    +0.000 HD
BRANCH  19  21
ATOM     21  C   UNL     1       6.115   4.847  19.275  0.00  0.00    +0.000 C 
BRANCH  21  22
ATOM     22  C   UNL     1       6.255   4.330  17.829  0.00  0.00    +0.000 C 
BRANCH  22  23
ATOM     23  N   UNL     1       7.087   5.182  16.952  0.00  0.00    +0.000 NA
ATOM     24  C   UNL     1       6.642   6.597  17.037  0.00  0.00    +0.000 C 
ATOM     25  C   UNL     1       5.262   6.847  16.399  0.00  0.00    +0.000 C 
ATOM     26  O   UNL     1       5.265   6.469  15.017  0.00  0.00    +0.000 OA
ATOM     27  C   UNL     1       5.644   5.094  14.858  0.00  0.00    +0.000 C 
ATOM     28  C   UNL     1       7.000   4.793  15.523  0.00  0.00    +0.000 C 
ENDBRANCH  22  23
ENDBRANCH  21  22
ENDBRANCH  19  21
ENDBRANCH  15  17
ENDBRANCH   1  15
TORSDOF 6
ENDMDL
MODEL 3
REMARK VINA RESULT:      -7.6      3.266      8.286
REMARK  Name = 
REMARK  9 active torsions:
REMARK  status: ('A' for Active; 'I' for Inactive)
REMARK    1  A    between atoms: C_1  and  C_2
REMARK    2  A    between atoms: C_8  and  C_9
REMARK    3  A    between atoms: C_10  and  O_11
REMARK    4  A    between atoms: O_11  and  C_12
REMARK    5  A    between atoms: C_12  and  C_13
REMARK    6  A    between atoms: C_12  and  C_14
REMARK    7  A    between atoms: N_16  and  C_17
REMARK    8  A    between atoms: C_17  and  C_18
REMARK    9  A    between atoms: C_18  and  N_19
REMARK                            x       y       z     vdW  Elec       q    Type
REMARK                         _______ _______ _______ _____ _____    ______ ____
ROOT
ATOM      1  O   UNL     1       2.073   8.269  20.218  0.00  0.00    +0.000 OA
ENDROOT
BRANCH   1  11
ATOM      2  C   UNL     1       2.263   1.758  19.291  0.00  0.00    +0.000 C 
ATOM      3  C   UNL     1       2.891   2.913  18.567  0.00  0.00    +0.000 A 
ATOM      4  C   UNL     1       3.710   2.731  17.524  0.00  0.00    +0.000 A 
ATOM      5  C   UNL     1       4.330   3.841  16.785  0.00  0.00    +0.000 A 
ATOM      6  O   UNL     1       5.099   3.620  15.856  0.00  0.00    +0.000 OA
ATOM      7  O   UNL     1       3.990   5.121  17.182  0.00  0.00    +0.000 OA
ATOM      8  C   UNL     1       3.167   5.364  18.307  0.00  0.00    +0.000 A 
ATOM      9  C   UNL     1       2.949   6.702  18.683  0.00  0.00    +0.000 A 
ATOM     10  C   UNL     1       3.494   7.850  17.873  0.00  0.00    +0.000 C 
ATOM     11  C   UNL     1       2.196   6.957  19.847  0.00  0.00    +0.000 A 
ATOM     12  C   UNL     1       1.638   5.885  20.547  0.00  0.00    +0.000 A 
ATOM     13  C   UNL     1       1.836   4.570  20.129  0.00  0.00    +0.000 A 
ATOM     14  C   UNL     1       2.619   4.285  19.012  0.00  0.00    +0.000 A 
ENDBRANCH   1  11
BRANCH   1  15
ATOM     15  C   UNL     1       0.771   8.823  20.406  0.00  0.00    +0.000 C 
ATOM     16  C   UNL     1       0.678   9.506  21.769  0.00  0.00    +0.000 C 
BRANCH  15  17
ATOM     17  C   UNL     1       0.493   9.852  19.296  0.00  0.00    +0.000 C 
ATOM     18  O   UNL     1       0.946   9.763  18.158  0.00  0.00    +0.000 OA
ATOM     19  N   UNL     1      -0.359  10.879  19.680  0.00  0.00    +0.000 N 
ATOM     20  H   UNL     1      -0.511  11.044  20.666  0.00  0.00    +0.000 HD
BRANCH  19  21
ATOM     21  C   UNL     1      -0.677  11.966  18.768  0.00  0.00    +0.000 C 
BRANCH  21  22
ATOM     22  C   UNL     1      -2.156  11.978  18.332  0.00  0.00    +0.000 C 
BRANCH  22  23
ATOM     23  N   UNL     1      -2.733  10.638  18.087  0.00  0.00    +0.000 NA
ATOM     24  C   UNL     1      -2.237  10.093  16.796  0.00  0.00    +0.000 C 
ATOM     25  C   UNL     1      -2.786  10.836  15.564  0.00  0.00    +0.000 C 
ATOM     26  O   UNL     1      -4.218  10.791  15.539  0.00  0.00    +0.000 OA
ATOM     27  C   UNL     1      -4.774  11.345  16.740  0.00  0.00    +0.000 C 
ATOM     28  C   UNL     1      -4.214  10.658  17.999  0.00  0.00    +0.000 C 
ENDBRANCH  22  23
ENDBRANCH  21  22
ENDBRANCH  19  21
ENDBRANCH  15  17
ENDBRANCH   1  15
TORSDOF 6
ENDMDL
MODEL 4
REMARK VINA RESULT:      -7.3      3.701      9.638
REMARK  Name = 
REMARK  9 active torsions:
REMARK  status: ('A' for Active; 'I' for Inactive)
REMARK    1  A    between atoms: C_1  and  C_2
REMARK    2  A    between atoms: C_8  and  C_9
REMARK    3  A    between atoms: C_10  and  O_11
REMARK    4  A    between atoms: O_11  and  C_12
REMARK    5  A    between atoms: C_12  and  C_13
REMARK    6  A    between atoms: C_12  and  C_14
REMARK    7  A    between atoms: N_16  and  C_17
REMARK    8  A    between atoms: C_17  and  C_18
REMARK    9  A    between atoms: C_18  and  N_19
REMARK                            x       y       z     vdW  Elec       q    Type
REMARK                         _______ _______ _______ _____ _____    ______ ____
ROOT
ATOM      1  O   UNL     1       1.626   8.489  20.164  0.00  0.00    +0.000 OA
ENDROOT
BRANCH   1  11
ATOM      2  C   UNL     1       2.946   2.087  19.415  0.00  0.00    +0.000 C 
ATOM      3  C   UNL     1       3.310   3.307  18.619  0.00  0.00    +0.000 A 
ATOM      4  C   UNL     1       4.088   3.234  17.532  0.00  0.00    +0.000 A 
ATOM      5  C   UNL     1       4.452   4.406  16.723  0.00  0.00    +0.000 A 
ATOM      6  O   UNL     1       5.193   4.291  15.754  0.00  0.00    +0.000 OA
ATOM      7  O   UNL     1       3.907   5.620  17.104  0.00  0.00    +0.000 OA
ATOM      8  C   UNL     1       3.120   5.755  18.272  0.00  0.00    +0.000 A 
ATOM      9  C   UNL     1       2.683   7.046  18.622  0.00  0.00    +0.000 A 
ATOM     10  C   UNL     1       2.962   8.240  17.746  0.00  0.00    +0.000 C 
ATOM     11  C   UNL     1       1.965   7.207  19.823  0.00  0.00    +0.000 A 
ATOM     12  C   UNL     1       1.652   6.081  20.588  0.00  0.00    +0.000 A 
ATOM     13  C   UNL     1       2.062   4.807  20.196  0.00  0.00    +0.000 A 
ATOM     14  C   UNL     1       2.819   4.624  19.040  0.00  0.00    +0.000 A 
ENDBRANCH   1  11
BRANCH   1  15
ATOM     15  C   UNL     1       0.726   8.709  21.250  0.00  0.00    +0.000 C 
ATOM     16  C   UNL     1       1.500   9.097  22.509  0.00  0.00    +0.000 C 
BRANCH  15  17
ATOM     17  C   UNL     1      -0.250   9.840  20.879  0.00  0.00    +0.000 C 
ATOM     18  O   UNL     1      -0.695  10.008  19.746  0.00  0.00    +0.000 OA
ATOM     19  N   UNL     1      -0.625  10.636  21.951  0.00  0.00    +0.000 N 
ATOM     20  H   UNL     1      -0.065  10.615  22.794  0.00  0.00    +0.000 HD
BRANCH  19  21
ATOM     21  C   UNL     1      -1.496  11.785  21.762  0.00  0.00    +0.000 C 
BRANCH  21  22
ATOM     22  C   UNL     1      -2.074  12.333  23.082  0.00  0.00    +0.000 C 
BRANCH  22  23
ATOM     23  N   UNL     1      -3.538  12.180  23.220  0.00  0.00    +0.000 NA
ATOM     24  C   UNL     1      -4.229  12.747  22.033  0.00  0.00    +0.000 C 
ATOM     25  C   UNL     1      -4.140  14.282  21.946  0.00  0.00    +0.000 C 
ATOM     26  O   UNL     1      -4.703  14.891  23.115  0.00  0.00    +0.000 OA
ATOM     27  C   UNL     1      -4.052  14.424  24.306  0.00  0.00    +0.000 C 
ATOM     28  C   UNL     1      -4.080  12.887  24.407  0.00  0.00    +0.000 C 
ENDBRANCH  22  23
ENDBRANCH  21  22
ENDBRANCH  19  21
ENDBRANCH  15  17
ENDBRANCH   1  15
TORSDOF 6
ENDMDL
MODEL 5
REMARK VINA RESULT:      -7.3      1.086      1.285
REMARK  Name = 
REMARK  9 active torsions:
REMARK  status: ('A' for Active; 'I' for Inactive)
REMARK    1  A    between atoms: C_1  and  C_2
REMARK    2  A    between atoms: C_8  and  C_9
REMARK    3  A    between atoms: C_10  and  O_11
REMARK    4  A    between atoms: O_11  and  C_12
REMARK    5  A    between atoms: C_12  and  C_13
REMARK    6  A    between atoms: C_12  and  C_14
REMARK    7  A    between atoms: N_16  and  C_17
REMARK    8  A    between atoms: C_17  and  C_18
REMARK    9  A    between atoms: C_18  and  N_19
REMARK                            x       y       z     vdW  Elec       q    Type
REMARK                         _______ _______ _______ _____ _____    ______ ____
ROOT
ATOM      1  O   UNL     1       2.377   6.488  19.396  0.00  0.00    +0.000 OA
ENDROOT
BRANCH   1  11
ATOM      2  C   UNL     1      -0.935  11.096  22.726  0.00  0.00    +0.000 C 
ATOM      3  C   UNL     1      -0.408  11.028  21.322  0.00  0.00    +0.000 A 
ATOM      4  C   UNL     1      -0.611  12.018  20.444  0.00  0.00    +0.000 A 
ATOM      5  C   UNL     1      -0.098  11.989  19.066  0.00  0.00    +0.000 A 
ATOM      6  O   UNL     1      -0.338  12.908  18.291  0.00  0.00    +0.000 OA
ATOM      7  O   UNL     1       0.669  10.894  18.710  0.00  0.00    +0.000 OA
ATOM      8  C   UNL     1       0.870   9.801  19.586  0.00  0.00    +0.000 A 
ATOM      9  C   UNL     1       1.593   8.696  19.100  0.00  0.00    +0.000 A 
ATOM     10  C   UNL     1       2.212   8.698  17.727  0.00  0.00    +0.000 C 
ATOM     11  C   UNL     1       1.734   7.570  19.935  0.00  0.00    +0.000 A 
ATOM     12  C   UNL     1       1.216   7.611  21.231  0.00  0.00    +0.000 A 
ATOM     13  C   UNL     1       0.540   8.736  21.702  0.00  0.00    +0.000 A 
ATOM     14  C   UNL     1       0.339   9.844  20.881  0.00  0.00    +0.000 A 
ENDBRANCH   1  11
BRANCH   1  15
ATOM     15  C   UNL     1       2.401   5.257  20.118  0.00  0.00    +0.000 C 
ATOM     16  C   UNL     1       1.308   4.321  19.605  0.00  0.00    +0.000 C 
BRANCH  15  17
ATOM     17  C   UNL     1       3.775   4.589  19.936  0.00  0.00    +0.000 C 
ATOM     18  O   UNL     1       3.968   3.383  20.071  0.00  0.00    +0.000 OA
ATOM     19  N   UNL     1       4.783   5.466  19.559  0.00  0.00    +0.000 N 
ATOM     20  H   UNL     1       4.641   6.459  19.691  0.00  0.00    +0.000 HD
BRANCH  19  21
ATOM     21  C   UNL     1       6.153   5.007  19.403  0.00  0.00    +0.000 C 
BRANCH  21  22
ATOM     22  C   UNL     1       6.573   4.841  17.928  0.00  0.00    +0.000 C 
BRANCH  22  23
ATOM     23  N   UNL     1       5.487   4.395  17.029  0.00  0.00    +0.000 NA
ATOM     24  C   UNL     1       6.055   3.798  15.792  0.00  0.00    +0.000 C 
ATOM     25  C   UNL     1       6.741   4.826  14.873  0.00  0.00    +0.000 C 
ATOM     26  O   UNL     1       5.821   5.853  14.483  0.00  0.00    +0.000 OA
ATOM     27  C   UNL     1       5.262   6.510  15.630  0.00  0.00    +0.000 C 
ATOM     28  C   UNL     1       4.605   5.508  16.598  0.00  0.00    +0.000 C 
ENDBRANCH  22  23
ENDBRANCH  21  22
ENDBRANCH  19  21
ENDBRANCH  15  17
ENDBRANCH   1  15
TORSDOF 6
ENDMDL
MODEL 6
REMARK VINA RESULT:      -7.3      3.646      9.303
REMARK  Name = 
REMARK  9 active torsions:
REMARK  status: ('A' for Active; 'I' for Inactive)
REMARK    1  A    between atoms: C_1  and  C_2
REMARK    2  A    between atoms: C_8  and  C_9
REMARK    3  A    between atoms: C_10  and  O_11
REMARK    4  A    between atoms: O_11  and  C_12
REMARK    5  A    between atoms: C_12  and  C_13
REMARK    6  A    between atoms: C_12  and  C_14
REMARK    7  A    between atoms: N_16  and  C_17
REMARK    8  A    between atoms: C_17  and  C_18
REMARK    9  A    between atoms: C_18  and  N_19
REMARK                            x       y       z     vdW  Elec       q    Type
REMARK                         _______ _______ _______ _____ _____    ______ ____
ROOT
ATOM      1  O   UNL     1       1.527   8.638  20.362  0.00  0.00    +0.000 OA
ENDROOT
BRANCH   1  11
ATOM      2  C   UNL     1       2.739   2.209  19.668  0.00  0.00    +0.000 C 
ATOM      3  C   UNL     1       3.095   3.412  18.844  0.00  0.00    +0.000 A 
ATOM      4  C   UNL     1       3.838   3.313  17.734  0.00  0.00    +0.000 A 
ATOM      5  C   UNL     1       4.193   4.468  16.898  0.00  0.00    +0.000 A 
ATOM      6  O   UNL     1       4.902   4.329  15.909  0.00  0.00    +0.000 OA
ATOM      7  O   UNL     1       3.676   5.694  17.277  0.00  0.00    +0.000 OA
ATOM      8  C   UNL     1       2.926   5.857  18.466  0.00  0.00    +0.000 A 
ATOM      9  C   UNL     1       2.518   7.159  18.810  0.00  0.00    +0.000 A 
ATOM     10  C   UNL     1       2.786   8.336  17.909  0.00  0.00    +0.000 C 
ATOM     11  C   UNL     1       1.839   7.347  20.030  0.00  0.00    +0.000 A 
ATOM     12  C   UNL     1       1.534   6.237  20.821  0.00  0.00    +0.000 A 
ATOM     13  C   UNL     1       1.916   4.952  20.436  0.00  0.00    +0.000 A 
ATOM     14  C   UNL     1       2.634   4.741  19.260  0.00  0.00    +0.000 A 
ENDBRANCH   1  11
BRANCH   1  15
ATOM     15  C   UNL     1       0.204   8.949  20.800  0.00  0.00    +0.000 C 
ATOM     16  C   UNL     1       0.210   9.317  22.282  0.00  0.00    +0.000 C 
BRANCH  15  17
ATOM     17  C   UNL     1      -0.337  10.131  19.979  0.00  0.00    +0.000 C 
ATOM     18  O   UNL     1      -0.537  10.083  18.767  0.00  0.00    +0.000 OA
ATOM     19  N   UNL     1      -0.628  11.257  20.736  0.00  0.00    +0.000 N 
ATOM     20  H   UNL     1      -0.234  11.336  21.664  0.00  0.00    +0.000 HD
BRANCH  19  21
ATOM     21  C   UNL     1      -1.093  12.483  20.106  0.00  0.00    +0.000 C 
BRANCH  21  22
ATOM     22  C   UNL     1      -2.630  12.573  20.016  0.00  0.00    +0.000 C 
BRANCH  22  23
ATOM     23  N   UNL     1      -3.220  13.720  20.740  0.00  0.00    +0.000 NA
ATOM     24  C   UNL     1      -2.854  13.663  22.179  0.00  0.00    +0.000 C 
ATOM     25  C   UNL     1      -3.531  12.507  22.939  0.00  0.00    +0.000 C 
ATOM     26  O   UNL     1      -4.958  12.608  22.851  0.00  0.00    +0.000 OA
ATOM     27  C   UNL     1      -5.392  12.623  21.484  0.00  0.00    +0.000 C 
ATOM     28  C   UNL     1      -4.702  13.739  20.677  0.00  0.00    +0.000 C 
ENDBRANCH  22  23
ENDBRANCH  21  22
ENDBRANCH  19  21
ENDBRANCH  15  17
ENDBRANCH   1  15
TORSDOF 6
ENDMDL
MODEL 7
REMARK VINA RESULT:      -7.3      3.411      9.389
REMARK  Name = 
REMARK  9 active torsions:
REMARK  status: ('A' for Active; 'I' for Inactive)
REMARK    1  A    between atoms: C_1  and  C_2
REMARK    2  A    between atoms: C_8  and  C_9
REMARK    3  A    between atoms: C_10  and  O_11
REMARK    4  A    between atoms: O_11  and  C_12
REMARK    5  A    between atoms: C_12  and  C_13
REMARK    6  A    between atoms: C_12  and  C_14
REMARK    7  A    between atoms: N_16  and  C_17
REMARK    8  A    between atoms: C_17  and  C_18
REMARK    9  A    between atoms: C_18  and  N_19
REMARK                            x       y       z     vdW  Elec       q    Type
REMARK                         _______ _______ _______ _____ _____    ______ ____
ROOT
ATOM      1  O   UNL     1       1.617   8.415  19.682  0.00  0.00    +0.000 OA
ENDROOT
BRANCH   1  11
ATOM      2  C   UNL     1       5.489   5.036  15.575  0.00  0.00    +0.000 C 
ATOM      3  C   UNL     1       4.619   4.629  16.728  0.00  0.00    +0.000 A 
ATOM      4  C   UNL     1       4.476   3.347  17.086  0.00  0.00    +0.000 A 
ATOM      5  C   UNL     1       3.643   2.916  18.218  0.00  0.00    +0.000 A 
ATOM      6  O   UNL     1       3.519   1.726  18.485  0.00  0.00    +0.000 OA
ATOM      7  O   UNL     1       3.032   3.913  18.958  0.00  0.00    +0.000 OA
ATOM      8  C   UNL     1       3.115   5.277  18.591  0.00  0.00    +0.000 A 
ATOM      9  C   UNL     1       2.388   6.207  19.357  0.00  0.00    +0.000 A 
ATOM     10  C   UNL     1       1.614   5.791  20.581  0.00  0.00    +0.000 C 
ATOM     11  C   UNL     1       2.398   7.558  18.955  0.00  0.00    +0.000 A 
ATOM     12  C   UNL     1       3.177   7.940  17.862  0.00  0.00    +0.000 A 
ATOM     13  C   UNL     1       3.921   7.003  17.145  0.00  0.00    +0.000 A 
ATOM     14  C   UNL     1       3.889   5.653  17.486  0.00  0.00    +0.000 A 
ENDBRANCH   1  11
BRANCH   1  15
ATOM     15  C   UNL     1       1.308   9.704  19.149  0.00  0.00    +0.000 C 
ATOM     16  C   UNL     1       0.212   9.589  18.091  0.00  0.00    +0.000 C 
BRANCH  15  17
ATOM     17  C   UNL     1       0.830  10.622  20.286  0.00  0.00    +0.000 C 
ATOM     18  O   UNL     1       0.426  10.209  21.370  0.00  0.00    +0.000 OA
ATOM     19  N   UNL     1       0.938  11.976  20.001  0.00  0.00    +0.000 N 
ATOM     20  H   UNL     1       1.044  12.265  19.037  0.00  0.00    +0.000 HD
BRANCH  19  21
ATOM     21  C   UNL     1       0.475  12.979  20.946  0.00  0.00    +0.000 C 
BRANCH  21  22
ATOM     22  C   UNL     1      -1.026  13.303  20.801  0.00  0.00    +0.000 C 
BRANCH  22  23
ATOM     23  N   UNL     1      -1.626  13.966  21.979  0.00  0.00    +0.000 NA
ATOM     24  C   UNL     1      -1.405  13.147  23.199  0.00  0.00    +0.000 C 
ATOM     25  C   UNL     1      -2.208  11.833  23.210  0.00  0.00    +0.000 C 
ATOM     26  O   UNL     1      -3.613  12.095  23.104  0.00  0.00    +0.000 OA
ATOM     27  C   UNL     1      -3.911  12.848  21.920  0.00  0.00    +0.000 C 
ATOM     28  C   UNL     1      -3.092  14.150  21.849  0.00  0.00    +0.000 C 
ENDBRANCH  22  23
ENDBRANCH  21  22
ENDBRANCH  19  21
ENDBRANCH  15  17
ENDBRANCH   1  15
TORSDOF 6
ENDMDL
MODEL 8
REMARK VINA RESULT:      -7.2      3.677      9.725
REMARK  Name = 
REMARK  9 active torsions:
REMARK  status: ('A' for Active; 'I' for Inactive)
REMARK    1  A    between atoms: C_1  and  C_2
REMARK    2  A    between atoms: C_8  and  C_9
REMARK    3  A    between atoms: C_10  and  O_11
REMARK    4  A    between atoms: O_11  and  C_12
REMARK    5  A    between atoms: C_12  and  C_13
REMARK    6  A    between atoms: C_12  and  C_14
REMARK    7  A    between atoms: N_16  and  C_17
REMARK    8  A    between atoms: C_17  and  C_18
REMARK    9  A    between atoms: C_18  and  N_19
REMARK                            x       y       z     vdW  Elec       q    Type
REMARK                         _______ _______ _______ _____ _____    ______ ____
ROOT
ATOM      1  O   UNL     1       1.258   8.515  19.864  0.00  0.00    +0.000 OA
ENDROOT
BRANCH   1  11
ATOM      2  C   UNL     1       5.412   5.643  15.646  0.00  0.00    +0.000 C 
ATOM      3  C   UNL     1       4.635   5.133  16.825  0.00  0.00    +0.000 A 
ATOM      4  C   UNL     1       4.668   3.844  17.188  0.00  0.00    +0.000 A 
ATOM      5  C   UNL     1       3.931   3.315  18.344  0.00  0.00    +0.000 A 
ATOM      6  O   UNL     1       3.969   2.120  18.616  0.00  0.00    +0.000 OA
ATOM      7  O   UNL     1       3.219   4.228  19.101  0.00  0.00    +0.000 OA
ATOM      8  C   UNL     1       3.115   5.590  18.731  0.00  0.00    +0.000 A 
ATOM      9  C   UNL     1       2.297   6.423  19.517  0.00  0.00    +0.000 A 
ATOM     10  C   UNL     1       1.619   5.916  20.763  0.00  0.00    +0.000 C 
ATOM     11  C   UNL     1       2.122   7.762  19.115  0.00  0.00    +0.000 A 
ATOM     12  C   UNL     1       2.813   8.236  17.998  0.00  0.00    +0.000 A 
ATOM     13  C   UNL     1       3.651   7.399  17.260  0.00  0.00    +0.000 A 
ATOM     14  C   UNL     1       3.802   6.057  17.603  0.00  0.00    +0.000 A 
ENDBRANCH   1  11
BRANCH   1  15
ATOM     15  C   UNL     1       1.096   9.901  19.561  0.00  0.00    +0.000 C 
ATOM     16  C   UNL     1      -0.089  10.101  18.618  0.00  0.00    +0.000 C 
BRANCH  15  17
ATOM     17  C   UNL     1       0.851  10.679  20.865  0.00  0.00    +0.000 C 
ATOM     18  O   UNL     1       1.329  10.356  21.950  0.00  0.00    +0.000 OA
ATOM     19  N   UNL     1       0.071  11.817  20.705  0.00  0.00    +0.000 N 
ATOM     20  H   UNL     1      -0.487  11.912  19.867  0.00  0.00    +0.000 HD
BRANCH  19  21
ATOM     21  C   UNL     1      -0.304  12.633  21.848  0.00  0.00    +0.000 C 
BRANCH  21  22
ATOM     22  C   UNL     1      -1.636  12.200  22.493  0.00  0.00    +0.000 C 
BRANCH  22  23
ATOM     23  N   UNL     1      -2.778  13.091  22.196  0.00  0.00    +0.000 NA
ATOM     24  C   UNL     1      -2.481  14.475  22.646  0.00  0.00    +0.000 C 
ATOM     25  C   UNL     1      -2.432  14.626  24.178  0.00  0.00    +0.000 C 
ATOM     26  O   UNL     1      -3.676  14.229  24.768  0.00  0.00    +0.000 OA
ATOM     27  C   UNL     1      -4.010  12.879  24.413  0.00  0.00    +0.000 C 
ATOM     28  C   UNL     1      -4.024  12.676  22.886  0.00  0.00    +0.000 C 
ENDBRANCH  22  23
ENDBRANCH  21  22
ENDBRANCH  19  21
ENDBRANCH  15  17
ENDBRANCH   1  15
TORSDOF 6
ENDMDL
MODEL 9
REMARK VINA RESULT:      -7.2      3.734      9.826
REMARK  Name = 
REMARK  9 active torsions:
REMARK  status: ('A' for Active; 'I' for Inactive)
REMARK    1  A    between atoms: C_1  and  C_2
REMARK    2  A    between atoms: C_8  and  C_9
REMARK    3  A    between atoms: C_10  and  O_11
REMARK    4  A    between atoms: O_11  and  C_12
REMARK    5  A    between atoms: C_12  and  C_13
REMARK    6  A    between atoms: C_12  and  C_14
REMARK    7  A    between atoms: N_16  and  C_17
REMARK    8  A    between atoms: C_17  and  C_18
REMARK    9  A    between atoms: C_18  and  N_19
REMARK                            x       y       z     vdW  Elec       q    Type
REMARK                         _______ _______ _______ _____ _____    ______ ____
ROOT
ATOM      1  O   UNL     1       1.326   8.039  20.233  0.00  0.00    +0.000 OA
ENDROOT
BRANCH   1  11
ATOM      2  C   UNL     1       5.380   5.762  15.578  0.00  0.00    +0.000 C 
ATOM      3  C   UNL     1       4.589   5.091  16.663  0.00  0.00    +0.000 A 
ATOM      4  C   UNL     1       4.580   3.760  16.811  0.00  0.00    +0.000 A 
ATOM      5  C   UNL     1       3.827   3.073  17.870  0.00  0.00    +0.000 A 
ATOM      6  O   UNL     1       3.826   1.850  17.943  0.00  0.00    +0.000 OA
ATOM      7  O   UNL     1       3.145   3.874  18.770  0.00  0.00    +0.000 OA
ATOM      8  C   UNL     1       3.085   5.280  18.627  0.00  0.00    +0.000 A 
ATOM      9  C   UNL     1       2.296   5.999  19.543  0.00  0.00    +0.000 A 
ATOM     10  C   UNL     1       1.603   5.318  20.695  0.00  0.00    +0.000 C 
ATOM     11  C   UNL     1       2.164   7.391  19.366  0.00  0.00    +0.000 A 
ATOM     12  C   UNL     1       2.870   8.018  18.337  0.00  0.00    +0.000 A 
ATOM     13  C   UNL     1       3.679   7.286  17.468  0.00  0.00    +0.000 A 
ATOM     14  C   UNL     1       3.787   5.902  17.586  0.00  0.00    +0.000 A 
ENDBRANCH   1  11
BRANCH   1  15
ATOM     15  C   UNL     1       1.178   9.456  20.135  0.00  0.00    +0.000 C 
ATOM     16  C   UNL     1       0.105   9.804  19.104  0.00  0.00    +0.000 C 
BRANCH  15  17
ATOM     17  C   UNL     1       0.774  10.020  21.508  0.00  0.00    +0.000 C 
ATOM     18  O   UNL     1       1.385   9.783  22.546  0.00  0.00    +0.000 OA
ATOM     19  N   UNL     1      -0.326  10.866  21.468  0.00  0.00    +0.000 N 
ATOM     20  H   UNL     1      -0.930  10.843  20.657  0.00  0.00    +0.000 HD
BRANCH  19  21
ATOM     21  C   UNL     1      -0.874  11.437  22.688  0.00  0.00    +0.000 C 
BRANCH  21  22
ATOM     22  C   UNL     1      -2.036  12.418  22.430  0.00  0.00    +0.000 C 
BRANCH  22  23
ATOM     23  N   UNL     1      -2.530  13.113  23.638  0.00  0.00    +0.000 NA
ATOM     24  C   UNL     1      -3.880  12.610  24.004  0.00  0.00    +0.000 C 
ATOM     25  C   UNL     1      -4.979  13.021  23.006  0.00  0.00    +0.000 C 
ATOM     26  O   UNL     1      -5.056  14.447  22.893  0.00  0.00    +0.000 OA
ATOM     27  C   UNL     1      -3.795  15.003  22.497  0.00  0.00    +0.000 C 
ATOM     28  C   UNL     1      -2.659  14.578  23.446  0.00  0.00    +0.000 C 
ENDBRANCH  22  23
ENDBRANCH  21  22
ENDBRANCH  19  21
ENDBRANCH  15  17
ENDBRANCH   1  15
TORSDOF 6
ENDMDL
