MODEL 1
REMARK VINA RESULT:      -7.9      0.000      0.000
REMARK  Name = 
REMARK  11 active torsions:
REMARK  status: ('A' for Active; 'I' for Inactive)
REMARK    1  A    between atoms: C_1  and  C_2
REMARK    2  A    between atoms: C_5  and  C_6
REMARK    3  A    between atoms: C_11  and  O_12
REMARK    4  A    between atoms: O_12  and  C_13
REMARK    5  A    between atoms: C_13  and  C_14
REMARK    6  A    between atoms: C_14  and  C_15
REMARK    7  A    between atoms: C_15  and  N_16
REMARK    8  A    between atoms: N_26  and  C_27
REMARK    9  A    between atoms: C_27  and  C_28
REMARK   10  A    between atoms: N_30  and  C_31
REMARK   11  A    between atoms: C_31  and  C_32
REMARK                            x       y       z     vdW  Elec       q    Type
REMARK                         _______ _______ _______ _____ _____    ______ ____
ROOT
ATOM      1  C   UNL     1       0.684  10.556  20.499  0.00  0.00    +0.000 A 
ATOM      2  N   UNL     1       0.803   9.388  21.049  0.00  0.00    +0.000 NA
ATOM      3  C   UNL     1       1.408   8.345  20.363  0.00  0.00    +0.000 A 
ATOM      4  C   UNL     1       1.481   7.100  20.987  0.00  0.00    +0.000 A 
ATOM      5  C   UNL     1       2.010   5.999  20.314  0.00  0.00    +0.000 A 
ATOM      6  C   UNL     1       2.474   6.142  19.010  0.00  0.00    +0.000 A 
ATOM      7  C   UNL     1       2.436   7.396  18.397  0.00  0.00    +0.000 A 
ATOM      8  C   UNL     1       1.906   8.494  19.082  0.00  0.00    +0.000 A 
ATOM      9  C   UNL     1       1.836   9.836  18.479  0.00  0.00    +0.000 A 
ATOM     10  O   UNL     1       2.314  10.001  17.359  0.00  0.00    +0.000 OA
ATOM     11  N   UNL     1       1.210  10.844  19.230  0.00  0.00    +0.000 N 
ENDROOT
BRANCH   1  16
ATOM     12  C   UNL     1      -1.835  14.245  24.195  0.00  0.00    +0.000 C 
ATOM     13  C   UNL     1      -1.271  13.341  23.142  0.00  0.00    +0.000 A 
ATOM     14  C   UNL     1      -1.725  12.030  23.003  0.00  0.00    +0.000 A 
ATOM     15  C   UNL     1      -1.078  11.160  22.126  0.00  0.00    +0.000 A 
ATOM     16  C   UNL     1       0.022  11.587  21.360  0.00  0.00    +0.000 A 
ATOM     17  C   UNL     1       0.375  12.934  21.403  0.00  0.00    +0.000 A 
ATOM     18  C   UNL     1      -0.235  13.792  22.320  0.00  0.00    +0.000 A 
ENDBRANCH   1  16
BRANCH   6  19
ATOM     19  O   UNL     1       2.978   5.139  18.239  0.00  0.00    +0.000 OA
BRANCH  19  20
ATOM     20  C   UNL     1       3.107   3.840  18.826  0.00  0.00    +0.000 C 
BRANCH  20  21
ATOM     21  C   UNL     1       4.514   3.792  19.403  0.00  0.00    +0.000 C 
BRANCH  21  22
ATOM     22  C   UNL     1       5.337   5.057  19.150  0.00  0.00    +0.000 C 
BRANCH  22  23
ATOM     23  N   UNL     1       6.635   4.710  18.555  0.00  0.00    +0.000 NA
ATOM     24  C   UNL     1       7.678   5.742  18.723  0.00  0.00    +0.000 C 
ATOM     25  C   UNL     1       7.556   6.931  17.757  0.00  0.00    +0.000 C 
ATOM     26  O   UNL     1       7.549   6.489  16.396  0.00  0.00    +0.000 OA
ATOM     27  C   UNL     1       6.470   5.575  16.171  0.00  0.00    +0.000 C 
ATOM     28  C   UNL     1       6.538   4.367  17.121  0.00  0.00    +0.000 C 
ENDBRANCH  22  23
ENDBRANCH  21  22
ENDBRANCH  20  21
ENDBRANCH  19  20
ENDBRANCH   6  19
BRANCH  11  29
ATOM     29  C   UNL     1       1.042  12.126  18.524  0.00  0.00    +0.000 C 
BRANCH  29  30
ATOM     30  C   UNL     1      -0.362  12.515  18.055  0.00  0.00    +0.000 C 
ATOM     31  O   UNL     1      -0.757  13.675  18.124  0.00  0.00    +0.000 OA
ATOM     32  N   UNL     1      -1.184  11.466  17.710  0.00  0.00    +0.000 N 
ATOM     33  H   UNL     1      -0.815  10.524  17.706  0.00  0.00    +0.000 HD
BRANCH  32  34
ATOM     34  C   UNL     1      -2.590  11.658  17.432  0.00  0.00    +0.000 C 
BRANCH  34  35
ATOM     35  C   UNL     1      -3.415  11.368  18.645  0.00  0.00    +0.000 C 
ATOM     36  C   UNL     1      -3.655  12.408  19.710  0.00  0.00    +0.000 C 
ATOM     37  C   UNL     1      -4.776  12.004  18.795  0.00  0.00    +0.000 C 
ENDBRANCH  34  35
ENDBRANCH  32  34
ENDBRANCH  29  30
ENDBRANCH  11  29
TORSDOF 10
ENDMDL
MODEL 2
REMARK VINA RESULT:      -7.9      2.107      9.183
REMARK  Name = 
REMARK  11 active torsions:
REMARK  status: ('A' for Active; 'I' for Inactive)
REMARK    1  A    between atoms: C_1  and  C_2
REMARK    2  A    between atoms: C_5  and  C_6
REMARK    3  A    between atoms: C_11  and  O_12
REMARK    4  A    between atoms: O_12  and  C_13
REMARK    5  A    between atoms: C_13  and  C_14
REMARK    6  A    between atoms: C_14  and  C_15
REMARK    7  A    between atoms: C_15  and  N_16
REMARK    8  A    between atoms: N_26  and  C_27
REMARK    9  A    between atoms: C_27  and  C_28
REMARK   10  A    between atoms: N_30  and  C_31
REMARK   11  A    between atoms: C_31  and  C_32
REMARK                            x       y       z     vdW  Elec       q    Type
REMARK                         _______ _______ _______ _____ _____    ______ ____
ROOT
ATOM      1  C   UNL     1       2.280   6.666  19.234  0.00  0.00    +0.000 A 
ATOM      2  N   UNL     1       1.629   6.983  20.309  0.00  0.00    +0.000 NA
ATOM      3  C   UNL     1       1.182   8.282  20.505  0.00  0.00    +0.000 A 
ATOM      4  C   UNL     1       0.515   8.579  21.694  0.00  0.00    +0.000 A 
ATOM      5  C   UNL     1       0.112   9.883  21.974  0.00  0.00    +0.000 A 
ATOM      6  C   UNL     1       0.372  10.900  21.060  0.00  0.00    +0.000 A 
ATOM      7  C   UNL     1       1.005  10.598  19.852  0.00  0.00    +0.000 A 
ATOM      8  C   UNL     1       1.402   9.285  19.580  0.00  0.00    +0.000 A 
ATOM      9  C   UNL     1       2.080   8.915  18.326  0.00  0.00    +0.000 A 
ATOM     10  O   UNL     1       2.246   9.782  17.471  0.00  0.00    +0.000 OA
ATOM     11  N   UNL     1       2.505   7.583  18.196  0.00  0.00    +0.000 N 
ENDROOT
BRANCH   1  16
ATOM     12  C   UNL     1       3.841   1.137  18.452  0.00  0.00    +0.000 C 
ATOM     13  C   UNL     1       3.369   2.523  18.768  0.00  0.00    +0.000 A 
ATOM     14  C   UNL     1       2.221   3.044  18.173  0.00  0.00    +0.000 A 
ATOM     15  C   UNL     1       1.890   4.386  18.358  0.00  0.00    +0.000 A 
ATOM     16  C   UNL     1       2.689   5.227  19.154  0.00  0.00    +0.000 A 
ATOM     17  C   UNL     1       3.751   4.661  19.855  0.00  0.00    +0.000 A 
ATOM     18  C   UNL     1       4.116   3.333  19.628  0.00  0.00    +0.000 A 
ENDBRANCH   1  16
BRANCH   6  19
ATOM     19  O   UNL     1       0.060  12.214  21.234  0.00  0.00    +0.000 OA
BRANCH  19  20
ATOM     20  C   UNL     1      -0.615  12.891  20.169  0.00  0.00    +0.000 C 
BRANCH  20  21
ATOM     21  C   UNL     1      -2.016  12.299  20.132  0.00  0.00    +0.000 C 
BRANCH  21  22
ATOM     22  C   UNL     1      -2.707  12.412  18.772  0.00  0.00    +0.000 C 
BRANCH  22  23
ATOM     23  N   UNL     1      -3.347  11.138  18.417  0.00  0.00    +0.000 NA
ATOM     24  C   UNL     1      -2.422   9.988  18.351  0.00  0.00    +0.000 C 
ATOM     25  C   UNL     1      -1.584   9.922  17.064  0.00  0.00    +0.000 C 
ATOM     26  O   UNL     1      -2.421   9.917  15.904  0.00  0.00    +0.000 OA
ATOM     27  C   UNL     1      -3.249  11.085  15.878  0.00  0.00    +0.000 C 
ATOM     28  C   UNL     1      -4.105  11.207  17.150  0.00  0.00    +0.000 C 
ENDBRANCH  22  23
ENDBRANCH  21  22
ENDBRANCH  20  21
ENDBRANCH  19  20
ENDBRANCH   6  19
BRANCH  11  29
ATOM     29  C   UNL     1       3.300   7.303  16.988  0.00  0.00    +0.000 C 
BRANCH  29  30
ATOM     30  C   UNL     1       4.722   6.766  17.165  0.00  0.00    +0.000 C 
ATOM     31  O   UNL     1       5.637   7.498  17.531  0.00  0.00    +0.000 OA
ATOM     32  N   UNL     1       4.924   5.473  16.738  0.00  0.00    +0.000 N 
ATOM     33  H   UNL     1       4.138   4.927  16.411  0.00  0.00    +0.000 HD
BRANCH  32  34
ATOM     34  C   UNL     1       6.247   4.894  16.663  0.00  0.00    +0.000 C 
BRANCH  34  35
ATOM     35  C   UNL     1       6.409   4.102  15.405  0.00  0.00    +0.000 C 
ATOM     36  C   UNL     1       5.518   4.321  14.208  0.00  0.00    +0.000 C 
ATOM     37  C   UNL     1       6.951   4.770  14.165  0.00  0.00    +0.000 C 
ENDBRANCH  34  35
ENDBRANCH  32  34
ENDBRANCH  29  30
ENDBRANCH  11  29
TORSDOF 10
ENDMDL
MODEL 3
REMARK VINA RESULT:      -7.7      1.640      2.753
REMARK  Name = 
REMARK  11 active torsions:
REMARK  status: ('A' for Active; 'I' for Inactive)
REMARK    1  A    between atoms: C_1  and  C_2
REMARK    2  A    between atoms: C_5  and  C_6
REMARK    3  A    between atoms: C_11  and  O_12
REMARK    4  A    between atoms: O_12  and  C_13
REMARK    5  A    between atoms: C_13  and  C_14
REMARK    6  A    between atoms: C_14  and  C_15
REMARK    7  A    between atoms: C_15  and  N_16
REMARK    8  A    between atoms: N_26  and  C_27
REMARK    9  A    between atoms: C_27  and  C_28
REMARK   10  A    between atoms: N_30  and  C_31
REMARK   11  A    between atoms: C_31  and  C_32
REMARK                            x       y       z     vdW  Elec       q    Type
REMARK                         _______ _______ _______ _____ _____    ______ ____
ROOT
ATOM      1  C   UNL     1       0.129  10.288  20.321  0.00  0.00    +0.000 A 
ATOM      2  N   UNL     1       0.260   9.181  20.982  0.00  0.00    +0.000 NA
ATOM      3  C   UNL     1       1.067   8.162  20.496  0.00  0.00    +0.000 A 
ATOM      4  C   UNL     1       1.147   6.978  21.229  0.00  0.00    +0.000 A 
ATOM      5  C   UNL     1       1.883   5.896  20.749  0.00  0.00    +0.000 A 
ATOM      6  C   UNL     1       2.547   5.995  19.531  0.00  0.00    +0.000 A 
ATOM      7  C   UNL     1       2.500   7.193  18.814  0.00  0.00    +0.000 A 
ATOM      8  C   UNL     1       1.761   8.274  19.306  0.00  0.00    +0.000 A 
ATOM      9  C   UNL     1       1.671   9.555  18.586  0.00  0.00    +0.000 A 
ATOM     10  O   UNL     1       2.316   9.692  17.550  0.00  0.00    +0.000 OA
ATOM     11  N   UNL     1       0.836  10.542  19.135  0.00  0.00    +0.000 N 
ENDROOT
BRANCH   1  16
ATOM     12  C   UNL     1      -2.932  14.429  22.985  0.00  0.00    +0.000 C 
ATOM     13  C   UNL     1      -2.243  13.270  22.332  0.00  0.00    +0.000 A 
ATOM     14  C   UNL     1      -1.260  12.547  23.007  0.00  0.00    +0.000 A 
ATOM     15  C   UNL     1      -0.522  11.577  22.328  0.00  0.00    +0.000 A 
ATOM     16  C   UNL     1      -0.763  11.301  20.970  0.00  0.00    +0.000 A 
ATOM     17  C   UNL     1      -1.839  11.929  20.348  0.00  0.00    +0.000 A 
ATOM     18  C   UNL     1      -2.543  12.938  21.009  0.00  0.00    +0.000 A 
ENDBRANCH   1  16
BRANCH   6  19
ATOM     19  O   UNL     1       3.267   5.000  18.942  0.00  0.00    +0.000 OA
BRANCH  19  20
ATOM     20  C   UNL     1       2.553   3.880  18.409  0.00  0.00    +0.000 C 
BRANCH  20  21
ATOM     21  C   UNL     1       3.215   3.572  17.075  0.00  0.00    +0.000 C 
BRANCH  21  22
ATOM     22  C   UNL     1       4.691   3.972  17.003  0.00  0.00    +0.000 C 
BRANCH  22  23
ATOM     23  N   UNL     1       4.864   5.120  16.102  0.00  0.00    +0.000 NA
ATOM     24  C   UNL     1       5.556   4.805  14.837  0.00  0.00    +0.000 C 
ATOM     25  C   UNL     1       7.083   4.678  14.963  0.00  0.00    +0.000 C 
ATOM     26  O   UNL     1       7.653   5.864  15.527  0.00  0.00    +0.000 OA
ATOM     27  C   UNL     1       7.085   6.131  16.813  0.00  0.00    +0.000 C 
ATOM     28  C   UNL     1       5.553   6.258  16.746  0.00  0.00    +0.000 C 
ENDBRANCH  22  23
ENDBRANCH  21  22
ENDBRANCH  20  21
ENDBRANCH  19  20
ENDBRANCH   6  19
BRANCH  11  29
ATOM     29  C   UNL     1       0.673  11.746  18.303  0.00  0.00    +0.000 C 
BRANCH  29  30
ATOM     30  C   UNL     1       1.276  13.060  18.805  0.00  0.00    +0.000 C 
ATOM     31  O   UNL     1       2.387  13.092  19.328  0.00  0.00    +0.000 OA
ATOM     32  N   UNL     1       0.434  14.148  18.775  0.00  0.00    +0.000 N 
ATOM     33  H   UNL     1      -0.486  14.055  18.365  0.00  0.00    +0.000 HD
BRANCH  32  34
ATOM     34  C   UNL     1       0.793  15.407  19.389  0.00  0.00    +0.000 C 
BRANCH  34  35
ATOM     35  C   UNL     1       0.235  15.500  20.773  0.00  0.00    +0.000 C 
ATOM     36  C   UNL     1       1.054  15.136  21.986  0.00  0.00    +0.000 C 
ATOM     37  C   UNL     1       0.728  16.576  21.710  0.00  0.00    +0.000 C 
ENDBRANCH  34  35
ENDBRANCH  32  34
ENDBRANCH  29  30
ENDBRANCH  11  29
TORSDOF 10
ENDMDL
MODEL 4
REMARK VINA RESULT:      -7.6      1.915      3.299
REMARK  Name = 
REMARK  11 active torsions:
REMARK  status: ('A' for Active; 'I' for Inactive)
REMARK    1  A    between atoms: C_1  and  C_2
REMARK    2  A    between atoms: C_5  and  C_6
REMARK    3  A    between atoms: C_11  and  O_12
REMARK    4  A    between atoms: O_12  and  C_13
REMARK    5  A    between atoms: C_13  and  C_14
REMARK    6  A    between atoms: C_14  and  C_15
REMARK    7  A    between atoms: C_15  and  N_16
REMARK    8  A    between atoms: N_26  and  C_27
REMARK    9  A    between atoms: C_27  and  C_28
REMARK   10  A    between atoms: N_30  and  C_31
REMARK   11  A    between atoms: C_31  and  C_32
REMARK                            x       y       z     vdW  Elec       q    Type
REMARK                         _______ _______ _______ _____ _____    ______ ____
ROOT
ATOM      1  C   UNL     1      -0.157  10.885  20.322  0.00  0.00    +0.000 A 
ATOM      2  N   UNL     1       0.097   9.765  20.922  0.00  0.00    +0.000 NA
ATOM      3  C   UNL     1       0.931   8.825  20.336  0.00  0.00    +0.000 A 
ATOM      4  C   UNL     1       1.145   7.621  21.009  0.00  0.00    +0.000 A 
ATOM      5  C   UNL     1       1.914   6.612  20.430  0.00  0.00    +0.000 A 
ATOM      6  C   UNL     1       2.477   6.805  19.172  0.00  0.00    +0.000 A 
ATOM      7  C   UNL     1       2.296   8.023  18.514  0.00  0.00    +0.000 A 
ATOM      8  C   UNL     1       1.526   9.030  19.105  0.00  0.00    +0.000 A 
ATOM      9  C   UNL     1       1.297  10.329  18.450  0.00  0.00    +0.000 A 
ATOM     10  O   UNL     1       1.852  10.551  17.376  0.00  0.00    +0.000 OA
ATOM     11  N   UNL     1       0.441  11.233  19.100  0.00  0.00    +0.000 N 
ENDROOT
BRANCH   1  16
ATOM     12  C   UNL     1      -3.284  14.720  23.343  0.00  0.00    +0.000 C 
ATOM     13  C   UNL     1      -2.562  13.630  22.612  0.00  0.00    +0.000 A 
ATOM     14  C   UNL     1      -1.425  13.033  23.155  0.00  0.00    +0.000 A 
ATOM     15  C   UNL     1      -0.679  12.136  22.390  0.00  0.00    +0.000 A 
ATOM     16  C   UNL     1      -1.063  11.808  21.077  0.00  0.00    +0.000 A 
ATOM     17  C   UNL     1      -2.275  12.301  20.599  0.00  0.00    +0.000 A 
ATOM     18  C   UNL     1      -2.994  13.240  21.342  0.00  0.00    +0.000 A 
ENDBRANCH   1  16
BRANCH   6  19
ATOM     19  O   UNL     1       3.215   5.886  18.490  0.00  0.00    +0.000 OA
BRANCH  19  20
ATOM     20  C   UNL     1       3.456   4.621  19.114  0.00  0.00    +0.000 C 
BRANCH  20  21
ATOM     21  C   UNL     1       4.918   4.304  18.842  0.00  0.00    +0.000 C 
BRANCH  21  22
ATOM     22  C   UNL     1       5.898   5.326  19.423  0.00  0.00    +0.000 C 
BRANCH  22  23
ATOM     23  N   UNL     1       7.223   5.171  18.806  0.00  0.00    +0.000 NA
ATOM     24  C   UNL     1       8.017   6.415  18.745  0.00  0.00    +0.000 C 
ATOM     25  C   UNL     1       7.607   7.375  17.617  0.00  0.00    +0.000 C 
ATOM     26  O   UNL     1       7.657   6.723  16.343  0.00  0.00    +0.000 OA
ATOM     27  C   UNL     1       6.801   5.576  16.333  0.00  0.00    +0.000 C 
ATOM     28  C   UNL     1       7.162   4.583  17.451  0.00  0.00    +0.000 C 
ENDBRANCH  22  23
ENDBRANCH  21  22
ENDBRANCH  20  21
ENDBRANCH  19  20
ENDBRANCH   6  19
BRANCH  11  29
ATOM     29  C   UNL     1       0.136  12.454  18.335  0.00  0.00    +0.000 C 
BRANCH  29  30
ATOM     30  C   UNL     1       0.945  13.718  18.637  0.00  0.00    +0.000 C 
ATOM     31  O   UNL     1       0.400  14.740  19.046  0.00  0.00    +0.000 OA
ATOM     32  N   UNL     1       2.271  13.675  18.271  0.00  0.00    +0.000 N 
ATOM     33  H   UNL     1       2.659  12.816  17.904  0.00  0.00    +0.000 HD
BRANCH  32  34
ATOM     34  C   UNL     1       3.113  14.850  18.316  0.00  0.00    +0.000 C 
BRANCH  34  35
ATOM     35  C   UNL     1       4.511  14.487  18.700  0.00  0.00    +0.000 C 
ATOM     36  C   UNL     1       5.695  14.869  17.847  0.00  0.00    +0.000 C 
ATOM     37  C   UNL     1       5.465  15.561  19.161  0.00  0.00    +0.000 C 
ENDBRANCH  34  35
ENDBRANCH  32  34
ENDBRANCH  29  30
ENDBRANCH  11  29
TORSDOF 10
ENDMDL
MODEL 5
REMARK VINA RESULT:      -7.6      2.628     10.331
REMARK  Name = 
REMARK  11 active torsions:
REMARK  status: ('A' for Active; 'I' for Inactive)
REMARK    1  A    between atoms: C_1  and  C_2
REMARK    2  A    between atoms: C_5  and  C_6
REMARK    3  A    between atoms: C_11  and  O_12
REMARK    4  A    between atoms: O_12  and  C_13
REMARK    5  A    between atoms: C_13  and  C_14
REMARK    6  A    between atoms: C_14  and  C_15
REMARK    7  A    between atoms: C_15  and  N_16
REMARK    8  A    between atoms: N_26  and  C_27
REMARK    9  A    between atoms: C_27  and  C_28
REMARK   10  A    between atoms: N_30  and  C_31
REMARK   11  A    between atoms: C_31  and  C_32
REMARK                            x       y       z     vdW  Elec       q    Type
REMARK                         _______ _______ _______ _____ _____    ______ ____
ROOT
ATOM      1  C   UNL     1       2.272   6.684  19.307  0.00  0.00    +0.000 A 
ATOM      2  N   UNL     1       1.657   6.984  20.408  0.00  0.00    +0.000 NA
ATOM      3  C   UNL     1       1.206   8.277  20.633  0.00  0.00    +0.000 A 
ATOM      4  C   UNL     1       0.580   8.555  21.848  0.00  0.00    +0.000 A 
ATOM      5  C   UNL     1       0.175   9.853  22.157  0.00  0.00    +0.000 A 
ATOM      6  C   UNL     1       0.394  10.882  21.246  0.00  0.00    +0.000 A 
ATOM      7  C   UNL     1       0.986  10.598  20.013  0.00  0.00    +0.000 A 
ATOM      8  C   UNL     1       1.385   9.292  19.712  0.00  0.00    +0.000 A 
ATOM      9  C   UNL     1       2.021   8.941  18.431  0.00  0.00    +0.000 A 
ATOM     10  O   UNL     1       2.149   9.818  17.580  0.00  0.00    +0.000 OA
ATOM     11  N   UNL     1       2.452   7.614  18.272  0.00  0.00    +0.000 N 
ENDROOT
BRANCH   1  16
ATOM     12  C   UNL     1       3.840   1.175  18.410  0.00  0.00    +0.000 C 
ATOM     13  C   UNL     1       3.374   2.555  18.760  0.00  0.00    +0.000 A 
ATOM     14  C   UNL     1       2.186   3.065  18.237  0.00  0.00    +0.000 A 
ATOM     15  C   UNL     1       1.853   4.403  18.448  0.00  0.00    +0.000 A 
ATOM     16  C   UNL     1       2.690   5.250  19.197  0.00  0.00    +0.000 A 
ATOM     17  C   UNL     1       3.799   4.693  19.830  0.00  0.00    +0.000 A 
ATOM     18  C   UNL     1       4.162   3.369  19.577  0.00  0.00    +0.000 A 
ENDBRANCH   1  16
BRANCH   6  19
ATOM     19  O   UNL     1       0.077  12.191  21.445  0.00  0.00    +0.000 OA
BRANCH  19  20
ATOM     20  C   UNL     1      -1.170  12.666  20.928  0.00  0.00    +0.000 C 
BRANCH  20  21
ATOM     21  C   UNL     1      -2.193  12.398  22.021  0.00  0.00    +0.000 C 
BRANCH  21  22
ATOM     22  C   UNL     1      -3.634  12.726  21.623  0.00  0.00    +0.000 C 
BRANCH  22  23
ATOM     23  N   UNL     1      -4.534  12.545  22.770  0.00  0.00    +0.000 NA
ATOM     24  C   UNL     1      -5.920  12.997  22.535  0.00  0.00    +0.000 C 
ATOM     25  C   UNL     1      -6.115  14.519  22.628  0.00  0.00    +0.000 C 
ATOM     26  O   UNL     1      -5.666  15.020  23.891  0.00  0.00    +0.000 OA
ATOM     27  C   UNL     1      -4.286  14.699  24.095  0.00  0.00    +0.000 C 
ATOM     28  C   UNL     1      -4.032  13.184  24.004  0.00  0.00    +0.000 C 
ENDBRANCH  22  23
ENDBRANCH  21  22
ENDBRANCH  20  21
ENDBRANCH  19  20
ENDBRANCH   6  19
BRANCH  11  29
ATOM     29  C   UNL     1       3.206   7.355  17.033  0.00  0.00    +0.000 C 
BRANCH  29  30
ATOM     30  C   UNL     1       4.633   6.814  17.154  0.00  0.00    +0.000 C 
ATOM     31  O   UNL     1       5.543   7.513  17.591  0.00  0.00    +0.000 OA
ATOM     32  N   UNL     1       4.845   5.572  16.599  0.00  0.00    +0.000 N 
ATOM     33  H   UNL     1       4.062   5.055  16.220  0.00  0.00    +0.000 HD
BRANCH  32  34
ATOM     34  C   UNL     1       6.172   5.014  16.465  0.00  0.00    +0.000 C 
BRANCH  34  35
ATOM     35  C   UNL     1       6.233   4.063  15.313  0.00  0.00    +0.000 C 
ATOM     36  C   UNL     1       5.397   4.261  14.073  0.00  0.00    +0.000 C 
ATOM     37  C   UNL     1       6.880   4.495  14.019  0.00  0.00    +0.000 C 
ENDBRANCH  34  35
ENDBRANCH  32  34
ENDBRANCH  29  30
ENDBRANCH  11  29
TORSDOF 10
ENDMDL
MODEL 6
REMARK VINA RESULT:      -7.6      2.410      3.541
REMARK  Name = 
REMARK  11 active torsions:
REMARK  status: ('A' for Active; 'I' for Inactive)
REMARK    1  A    between atoms: C_1  and  C_2
REMARK    2  A    between atoms: C_5  and  C_6
REMARK    3  A    between atoms: C_11  and  O_12
REMARK    4  A    between atoms: O_12  and  C_13
REMARK    5  A    between atoms: C_13  and  C_14
REMARK    6  A    between atoms: C_14  and  C_15
REMARK    7  A    between atoms: C_15  and  N_16
REMARK    8  A    between atoms: N_26  and  C_27
REMARK    9  A    between atoms: C_27  and  C_28
REMARK   10  A    between atoms: N_30  and  C_31
REMARK   11  A    between atoms: C_31  and  C_32
REMARK                            x       y       z     vdW  Elec       q    Type
REMARK                         _______ _______ _______ _____ _____    ______ ____
ROOT
ATOM      1  C   UNL     1       0.845  12.189  19.755  0.00  0.00    +0.000 A 
ATOM      2  N   UNL     1       1.345  11.496  18.781  0.00  0.00    +0.000 NA
ATOM      3  C   UNL     1       1.543  10.130  18.918  0.00  0.00    +0.000 A 
ATOM      4  C   UNL     1       2.115   9.435  17.852  0.00  0.00    +0.000 A 
ATOM      5  C   UNL     1       2.405   8.076  17.965  0.00  0.00    +0.000 A 
ATOM      6  C   UNL     1       2.119   7.403  19.148  0.00  0.00    +0.000 A 
ATOM      7  C   UNL     1       1.511   8.087  20.203  0.00  0.00    +0.000 A 
ATOM      8  C   UNL     1       1.221   9.450  20.078  0.00  0.00    +0.000 A 
ATOM      9  C   UNL     1       0.588  10.219  21.162  0.00  0.00    +0.000 A 
ATOM     10  O   UNL     1       0.253   9.626  22.184  0.00  0.00    +0.000 OA
ATOM     11  N   UNL     1       0.419  11.598  20.955  0.00  0.00    +0.000 N 
ENDROOT
BRANCH   1  16
ATOM     12  C   UNL     1       0.606  17.817  18.381  0.00  0.00    +0.000 C 
ATOM     13  C   UNL     1       0.607  16.397  18.858  0.00  0.00    +0.000 A 
ATOM     14  C   UNL     1       1.731  15.848  19.474  0.00  0.00    +0.000 A 
ATOM     15  C   UNL     1       1.767  14.484  19.764  0.00  0.00    +0.000 A 
ATOM     16  C   UNL     1       0.677  13.649  19.461  0.00  0.00    +0.000 A 
ATOM     17  C   UNL     1      -0.491  14.234  18.977  0.00  0.00    +0.000 A 
ATOM     18  C   UNL     1      -0.509  15.587  18.635  0.00  0.00    +0.000 A 
ENDBRANCH   1  16
BRANCH   6  19
ATOM     19  O   UNL     1       2.386   6.090  19.392  0.00  0.00    +0.000 OA
BRANCH  19  20
ATOM     20  C   UNL     1       2.222   5.160  18.316  0.00  0.00    +0.000 C 
BRANCH  20  21
ATOM     21  C   UNL     1       3.458   4.275  18.350  0.00  0.00    +0.000 C 
BRANCH  21  22
ATOM     22  C   UNL     1       4.156   4.125  16.996  0.00  0.00    +0.000 C 
BRANCH  22  23
ATOM     23  N   UNL     1       4.995   5.300  16.722  0.00  0.00    +0.000 NA
ATOM     24  C   UNL     1       5.549   5.349  15.354  0.00  0.00    +0.000 C 
ATOM     25  C   UNL     1       6.763   4.434  15.127  0.00  0.00    +0.000 C 
ATOM     26  O   UNL     1       7.805   4.720  16.065  0.00  0.00    +0.000 OA
ATOM     27  C   UNL     1       7.329   4.563  17.406  0.00  0.00    +0.000 C 
ATOM     28  C   UNL     1       6.106   5.453  17.686  0.00  0.00    +0.000 C 
ENDBRANCH  22  23
ENDBRANCH  21  22
ENDBRANCH  20  21
ENDBRANCH  19  20
ENDBRANCH   6  19
BRANCH  11  29
ATOM     29  C   UNL     1      -0.086  12.341  22.122  0.00  0.00    +0.000 C 
BRANCH  29  30
ATOM     30  C   UNL     1      -1.589  12.302  22.410  0.00  0.00    +0.000 C 
ATOM     31  O   UNL     1      -2.078  11.431  23.125  0.00  0.00    +0.000 OA
ATOM     32  N   UNL     1      -2.353  13.196  21.695  0.00  0.00    +0.000 N 
ATOM     33  H   UNL     1      -1.899  13.869  21.091  0.00  0.00    +0.000 HD
BRANCH  32  34
ATOM     34  C   UNL     1      -3.798  13.151  21.714  0.00  0.00    +0.000 C 
BRANCH  34  35
ATOM     35  C   UNL     1      -4.350  13.208  20.326  0.00  0.00    +0.000 C 
ATOM     36  C   UNL     1      -3.991  12.177  19.285  0.00  0.00    +0.000 C 
ATOM     37  C   UNL     1      -5.370  12.188  19.882  0.00  0.00    +0.000 C 
ENDBRANCH  34  35
ENDBRANCH  32  34
ENDBRANCH  29  30
ENDBRANCH  11  29
TORSDOF 10
ENDMDL
MODEL 7
REMARK VINA RESULT:      -7.5      2.376      9.976
REMARK  Name = 
REMARK  11 active torsions:
REMARK  status: ('A' for Active; 'I' for Inactive)
REMARK    1  A    between atoms: C_1  and  C_2
REMARK    2  A    between atoms: C_5  and  C_6
REMARK    3  A    between atoms: C_11  and  O_12
REMARK    4  A    between atoms: O_12  and  C_13
REMARK    5  A    between atoms: C_13  and  C_14
REMARK    6  A    between atoms: C_14  and  C_15
REMARK    7  A    between atoms: C_15  and  N_16
REMARK    8  A    between atoms: N_26  and  C_27
REMARK    9  A    between atoms: C_27  and  C_28
REMARK   10  A    between atoms: N_30  and  C_31
REMARK   11  A    between atoms: C_31  and  C_32
REMARK                            x       y       z     vdW  Elec       q    Type
REMARK                         _______ _______ _______ _____ _____    ______ ____
ROOT
ATOM      1  C   UNL     1       2.338   6.633  19.281  0.00  0.00    +0.000 A 
ATOM      2  N   UNL     1       1.740   6.972  20.380  0.00  0.00    +0.000 NA
ATOM      3  C   UNL     1       1.295   8.272  20.568  0.00  0.00    +0.000 A 
ATOM      4  C   UNL     1       0.688   8.592  21.783  0.00  0.00    +0.000 A 
ATOM      5  C   UNL     1       0.290   9.901  22.053  0.00  0.00    +0.000 A 
ATOM      6  C   UNL     1       0.496  10.898  21.105  0.00  0.00    +0.000 A 
ATOM      7  C   UNL     1       1.069  10.572  19.873  0.00  0.00    +0.000 A 
ATOM      8  C   UNL     1       1.461   9.255  19.611  0.00  0.00    +0.000 A 
ATOM      9  C   UNL     1       2.077   8.860  18.333  0.00  0.00    +0.000 A 
ATOM     10  O   UNL     1       2.193   9.708  17.451  0.00  0.00    +0.000 OA
ATOM     11  N   UNL     1       2.504   7.528  18.212  0.00  0.00    +0.000 N 
ENDROOT
BRANCH   1  16
ATOM     12  C   UNL     1       3.814   1.073  18.559  0.00  0.00    +0.000 C 
ATOM     13  C   UNL     1       3.392   2.475  18.875  0.00  0.00    +0.000 A 
ATOM     14  C   UNL     1       2.129   2.943  18.514  0.00  0.00    +0.000 A 
ATOM     15  C   UNL     1       1.817   4.293  18.674  0.00  0.00    +0.000 A 
ATOM     16  C   UNL     1       2.752   5.195  19.212  0.00  0.00    +0.000 A 
ATOM     17  C   UNL     1       3.955   4.690  19.698  0.00  0.00    +0.000 A 
ATOM     18  C   UNL     1       4.291   3.351  19.490  0.00  0.00    +0.000 A 
ENDBRANCH   1  16
BRANCH   6  19
ATOM     19  O   UNL     1       0.185  12.214  21.264  0.00  0.00    +0.000 OA
BRANCH  19  20
ATOM     20  C   UNL     1       0.157  13.043  20.099  0.00  0.00    +0.000 C 
BRANCH  20  21
ATOM     21  C   UNL     1      -1.062  13.938  20.264  0.00  0.00    +0.000 C 
BRANCH  21  22
ATOM     22  C   UNL     1      -2.307  13.209  20.774  0.00  0.00    +0.000 C 
BRANCH  22  23
ATOM     23  N   UNL     1      -2.953  13.988  21.840  0.00  0.00    +0.000 NA
ATOM     24  C   UNL     1      -2.644  13.524  23.208  0.00  0.00    +0.000 C 
ATOM     25  C   UNL     1      -3.429  12.278  23.648  0.00  0.00    +0.000 C 
ATOM     26  O   UNL     1      -4.840  12.491  23.532  0.00  0.00    +0.000 OA
ATOM     27  C   UNL     1      -5.187  12.826  22.185  0.00  0.00    +0.000 C 
ATOM     28  C   UNL     1      -4.422  14.065  21.688  0.00  0.00    +0.000 C 
ENDBRANCH  22  23
ENDBRANCH  21  22
ENDBRANCH  20  21
ENDBRANCH  19  20
ENDBRANCH   6  19
BRANCH  11  29
ATOM     29  C   UNL     1       3.238   7.225  16.971  0.00  0.00    +0.000 C 
BRANCH  29  30
ATOM     30  C   UNL     1       4.715   6.839  17.080  0.00  0.00    +0.000 C 
ATOM     31  O   UNL     1       5.533   7.594  17.598  0.00  0.00    +0.000 OA
ATOM     32  N   UNL     1       5.075   5.683  16.425  0.00  0.00    +0.000 N 
ATOM     33  H   UNL     1       4.362   5.118  15.983  0.00  0.00    +0.000 HD
BRANCH  32  34
ATOM     34  C   UNL     1       6.459   5.291  16.276  0.00  0.00    +0.000 C 
BRANCH  34  35
ATOM     35  C   UNL     1       6.608   4.271  15.193  0.00  0.00    +0.000 C 
ATOM     36  C   UNL     1       5.633   4.182  14.046  0.00  0.00    +0.000 C 
ATOM     37  C   UNL     1       7.022   4.704  13.808  0.00  0.00    +0.000 C 
ENDBRANCH  34  35
ENDBRANCH  32  34
ENDBRANCH  29  30
ENDBRANCH  11  29
TORSDOF 10
ENDMDL
MODEL 8
REMARK VINA RESULT:      -7.5      2.541      3.982
REMARK  Name = 
REMARK  11 active torsions:
REMARK  status: ('A' for Active; 'I' for Inactive)
REMARK    1  A    between atoms: C_1  and  C_2
REMARK    2  A    between atoms: C_5  and  C_6
REMARK    3  A    between atoms: C_11  and  O_12
REMARK    4  A    between atoms: O_12  and  C_13
REMARK    5  A    between atoms: C_13  and  C_14
REMARK    6  A    between atoms: C_14  and  C_15
REMARK    7  A    between atoms: C_15  and  N_16
REMARK    8  A    between atoms: N_26  and  C_27
REMARK    9  A    between atoms: C_27  and  C_28
REMARK   10  A    between atoms: N_30  and  C_31
REMARK   11  A    between atoms: C_31  and  C_32
REMARK                            x       y       z     vdW  Elec       q    Type
REMARK                         _______ _______ _______ _____ _____    ______ ____
ROOT
ATOM      1  C   UNL     1       1.010  12.685  19.558  0.00  0.00    +0.000 A 
ATOM      2  N   UNL     1       1.437  11.868  18.646  0.00  0.00    +0.000 NA
ATOM      3  C   UNL     1       1.544  10.510  18.911  0.00  0.00    +0.000 A 
ATOM      4  C   UNL     1       2.039   9.679  17.906  0.00  0.00    +0.000 A 
ATOM      5  C   UNL     1       2.238   8.320  18.145  0.00  0.00    +0.000 A 
ATOM      6  C   UNL     1       1.937   7.784  19.393  0.00  0.00    +0.000 A 
ATOM      7  C   UNL     1       1.405   8.607  20.388  0.00  0.00    +0.000 A 
ATOM      8  C   UNL     1       1.206   9.968  20.137  0.00  0.00    +0.000 A 
ATOM      9  C   UNL     1       0.656  10.881  21.154  0.00  0.00    +0.000 A 
ATOM     10  O   UNL     1       0.307  10.413  22.235  0.00  0.00    +0.000 OA
ATOM     11  N   UNL     1       0.576  12.242  20.817  0.00  0.00    +0.000 N 
ENDROOT
BRANCH   1  16
ATOM     12  C   UNL     1       1.070  18.136  17.586  0.00  0.00    +0.000 C 
ATOM     13  C   UNL     1       1.024  16.781  18.221  0.00  0.00    +0.000 A 
ATOM     14  C   UNL     1       2.188  16.160  18.672  0.00  0.00    +0.000 A 
ATOM     15  C   UNL     1       2.144  14.837  19.113  0.00  0.00    +0.000 A 
ATOM     16  C   UNL     1       0.935  14.118  19.127  0.00  0.00    +0.000 A 
ATOM     17  C   UNL     1      -0.241  14.792  18.808  0.00  0.00    +0.000 A 
ATOM     18  C   UNL     1      -0.191  16.098  18.315  0.00  0.00    +0.000 A 
ENDBRANCH   1  16
BRANCH   6  19
ATOM     19  O   UNL     1       2.119   6.485  19.757  0.00  0.00    +0.000 OA
BRANCH  19  20
ATOM     20  C   UNL     1       2.805   5.621  18.844  0.00  0.00    +0.000 C 
BRANCH  20  21
ATOM     21  C   UNL     1       4.197   5.433  19.428  0.00  0.00    +0.000 C 
BRANCH  21  22
ATOM     22  C   UNL     1       5.125   4.575  18.565  0.00  0.00    +0.000 C 
BRANCH  22  23
ATOM     23  N   UNL     1       6.225   5.391  18.032  0.00  0.00    +0.000 NA
ATOM     24  C   UNL     1       5.792   6.617  17.331  0.00  0.00    +0.000 C 
ATOM     25  C   UNL     1       5.278   6.382  15.902  0.00  0.00    +0.000 C 
ATOM     26  O   UNL     1       6.259   5.708  15.106  0.00  0.00    +0.000 OA
ATOM     27  C   UNL     1       6.613   4.455  15.701  0.00  0.00    +0.000 C 
ATOM     28  C   UNL     1       7.127   4.631  17.141  0.00  0.00    +0.000 C 
ENDBRANCH  22  23
ENDBRANCH  21  22
ENDBRANCH  20  21
ENDBRANCH  19  20
ENDBRANCH   6  19
BRANCH  11  29
ATOM     29  C   UNL     1       0.153  13.126  21.916  0.00  0.00    +0.000 C 
BRANCH  29  30
ATOM     30  C   UNL     1      -1.329  13.496  22.019  0.00  0.00    +0.000 C 
ATOM     31  O   UNL     1      -1.695  14.667  21.997  0.00  0.00    +0.000 OA
ATOM     32  N   UNL     1      -2.183  12.452  22.294  0.00  0.00    +0.000 N 
ATOM     33  H   UNL     1      -1.819  11.509  22.337  0.00  0.00    +0.000 HD
BRANCH  32  34
ATOM     34  C   UNL     1      -3.577  12.670  22.608  0.00  0.00    +0.000 C 
BRANCH  34  35
ATOM     35  C   UNL     1      -3.879  12.240  24.008  0.00  0.00    +0.000 C 
ATOM     36  C   UNL     1      -4.090  13.239  25.118  0.00  0.00    +0.000 C 
ATOM     37  C   UNL     1      -5.258  12.463  24.579  0.00  0.00    +0.000 C 
ENDBRANCH  34  35
ENDBRANCH  32  34
ENDBRANCH  29  30
ENDBRANCH  11  29
TORSDOF 10
ENDMDL
MODEL 9
REMARK VINA RESULT:      -7.5      2.277      4.236
REMARK  Name = 
REMARK  11 active torsions:
REMARK  status: ('A' for Active; 'I' for Inactive)
REMARK    1  A    between atoms: C_1  and  C_2
REMARK    2  A    between atoms: C_5  and  C_6
REMARK    3  A    between atoms: C_11  and  O_12
REMARK    4  A    between atoms: O_12  and  C_13
REMARK    5  A    between atoms: C_13  and  C_14
REMARK    6  A    between atoms: C_14  and  C_15
REMARK    7  A    between atoms: C_15  and  N_16
REMARK    8  A    between atoms: N_26  and  C_27
REMARK    9  A    between atoms: C_27  and  C_28
REMARK   10  A    between atoms: N_30  and  C_31
REMARK   11  A    between atoms: C_31  and  C_32
REMARK                            x       y       z     vdW  Elec       q    Type
REMARK                         _______ _______ _______ _____ _____    ______ ____
ROOT
ATOM      1  C   UNL     1       0.129  10.547  20.158  0.00  0.00    +0.000 A 
ATOM      2  N   UNL     1       0.413   9.342  20.539  0.00  0.00    +0.000 NA
ATOM      3  C   UNL     1       1.323   8.574  19.827  0.00  0.00    +0.000 A 
ATOM      4  C   UNL     1       1.568   7.271  20.260  0.00  0.00    +0.000 A 
ATOM      5  C   UNL     1       2.416   6.431  19.539  0.00  0.00    +0.000 A 
ATOM      6  C   UNL     1       3.027   6.896  18.378  0.00  0.00    +0.000 A 
ATOM      7  C   UNL     1       2.813   8.212  17.964  0.00  0.00    +0.000 A 
ATOM      8  C   UNL     1       1.963   9.047  18.697  0.00  0.00    +0.000 A 
ATOM      9  C   UNL     1       1.698  10.440  18.299  0.00  0.00    +0.000 A 
ATOM     10  O   UNL     1       2.290  10.895  17.325  0.00  0.00    +0.000 OA
ATOM     11  N   UNL     1       0.765  11.158  19.066  0.00  0.00    +0.000 N 
ENDROOT
BRANCH   1  16
ATOM     12  C   UNL     1      -3.331  13.504  23.751  0.00  0.00    +0.000 C 
ATOM     13  C   UNL     1      -2.532  12.637  22.826  0.00  0.00    +0.000 A 
ATOM     14  C   UNL     1      -1.508  11.824  23.311  0.00  0.00    +0.000 A 
ATOM     15  C   UNL     1      -0.675  11.150  22.418  0.00  0.00    +0.000 A 
ATOM     16  C   UNL     1      -0.860  11.261  21.028  0.00  0.00    +0.000 A 
ATOM     17  C   UNL     1      -1.971  11.960  20.562  0.00  0.00    +0.000 A 
ATOM     18  C   UNL     1      -2.772  12.680  21.451  0.00  0.00    +0.000 A 
ENDBRANCH   1  16
BRANCH   6  19
ATOM     19  O   UNL     1       3.844   6.164  17.571  0.00  0.00    +0.000 OA
BRANCH  19  20
ATOM     20  C   UNL     1       4.654   5.151  18.177  0.00  0.00    +0.000 C 
BRANCH  20  21
ATOM     21  C   UNL     1       4.268   3.853  17.483  0.00  0.00    +0.000 C 
BRANCH  21  22
ATOM     22  C   UNL     1       2.759   3.614  17.398  0.00  0.00    +0.000 C 
BRANCH  22  23
ATOM     23  N   UNL     1       2.407   2.341  18.042  0.00  0.00    +0.000 NA
ATOM     24  C   UNL     1       1.044   2.301  18.611  0.00  0.00    +0.000 C 
ATOM     25  C   UNL     1       0.900   3.020  19.962  0.00  0.00    +0.000 C 
ATOM     26  O   UNL     1       1.825   2.501  20.922  0.00  0.00    +0.000 OA
ATOM     27  C   UNL     1       3.169   2.635  20.448  0.00  0.00    +0.000 C 
ATOM     28  C   UNL     1       3.368   1.940  19.090  0.00  0.00    +0.000 C 
ENDBRANCH  22  23
ENDBRANCH  21  22
ENDBRANCH  20  21
ENDBRANCH  19  20
ENDBRANCH   6  19
BRANCH  11  29
ATOM     29  C   UNL     1       0.433  12.493  18.541  0.00  0.00    +0.000 C 
BRANCH  29  30
ATOM     30  C   UNL     1       1.133  13.708  19.156  0.00  0.00    +0.000 C 
ATOM     31  O   UNL     1       0.576  14.800  19.216  0.00  0.00    +0.000 OA
ATOM     32  N   UNL     1       2.458  13.527  19.479  0.00  0.00    +0.000 N 
ATOM     33  H   UNL     1       2.877  12.612  19.375  0.00  0.00    +0.000 HD
BRANCH  32  34
ATOM     34  C   UNL     1       3.300  14.629  19.888  0.00  0.00    +0.000 C 
BRANCH  34  35
ATOM     35  C   UNL     1       4.203  15.048  18.773  0.00  0.00    +0.000 C 
ATOM     36  C   UNL     1       3.663  15.573  17.466  0.00  0.00    +0.000 C 
ATOM     37  C   UNL     1       4.337  16.511  18.427  0.00  0.00    +0.000 C 
ENDBRANCH  34  35
ENDBRANCH  32  34
ENDBRANCH  29  30
ENDBRANCH  11  29
TORSDOF 10
ENDMDL
