MODEL 1
REMARK VINA RESULT:      -7.2      0.000      0.000
REMARK  Name = 
REMARK  10 active torsions:
REMARK  status: ('A' for Active; 'I' for Inactive)
REMARK    1  A    between atoms: C_1  and  C_2
REMARK    2  A    between atoms: C_13  and  O_14
REMARK    3  A    between atoms: C_16  and  C_17
REMARK    4  A    between atoms: C_21  and  O_22
REMARK    5  A    between atoms: C_21  and  C_23
REMARK    6  A    between atoms: C_23  and  C_25
REMARK    7  A    between atoms: C_25  and  O_26
REMARK    8  A    between atoms: O_26  and  P_27
REMARK    9  A    between atoms: P_27  and  O_29
REMARK   10  A    between atoms: P_27  and  O_30
REMARK                            x       y       z     vdW  Elec       q    Type
REMARK                         _______ _______ _______ _____ _____    ______ ____
ROOT
ATOM      1  C   UNL     1       9.122  15.310  19.172  0.00  0.00    +0.000 C 
ATOM      2  C   UNL     1      10.176  14.286  19.662  0.00  0.00    +0.000 C 
ATOM      3  C   UNL     1      11.579  14.843  19.261  0.00  0.00    +0.000 C 
ATOM      4  C   UNL     1      11.780  14.911  17.742  0.00  0.00    +0.000 C 
ATOM      5  C   UNL     1      11.604  13.553  17.124  0.00  0.00    +0.000 C 
ATOM      6  O   UNL     1      12.222  13.182  16.131  0.00  0.00    +0.000 OA
ATOM      7  C   UNL     1      10.629  12.644  17.742  0.00  0.00    +0.000 C 
ATOM      8  C   UNL     1      10.010  12.931  18.906  0.00  0.00    +0.000 C 
ATOM      9  C   UNL     1       9.235  11.786  19.513  0.00  0.00    +0.000 C 
ATOM     10  C   UNL     1       9.610  11.643  20.981  0.00  0.00    +0.000 C 
ATOM     11  C   UNL     1       9.153  12.935  21.627  0.00  0.00    +0.000 C 
ATOM     12  C   UNL     1      10.091  14.126  21.256  0.00  0.00    +0.000 C 
ATOM     13  C   UNL     1       9.748  15.446  22.098  0.00  0.00    +0.000 C 
ATOM     14  C   UNL     1       9.076  15.264  23.517  0.00  0.00    +0.000 C 
ATOM     15  C   UNL     1       8.051  14.101  23.511  0.00  0.00    +0.000 C 
ATOM     16  C   UNL     1       6.920  14.509  22.524  0.00  0.00    +0.000 C 
ATOM     17  C   UNL     1       8.993  12.920  23.120  0.00  0.00    +0.000 C 
ATOM     18  C   UNL     1       8.559  11.709  23.917  0.00  0.00    +0.000 C 
ATOM     19  C   UNL     1       8.200  12.372  25.253  0.00  0.00    +0.000 C 
ATOM     20  C   UNL     1       7.377  13.615  24.840  0.00  0.00    +0.000 C 
ENDROOT
BRANCH  13  21
ATOM     21  O   UNL     1      10.945  16.208  22.255  0.00  0.00    +0.000 OA
ATOM     22  H   UNL     1      11.696  15.587  22.268  0.00  0.00    +0.000 HD
ENDBRANCH  13  21
BRANCH  20  23
ATOM     23  O   UNL     1       7.421  14.625  25.828  0.00  0.00    +0.000 OA
ATOM     24  H   UNL     1       6.531  15.010  25.929  0.00  0.00    +0.000 HD
ENDBRANCH  20  23
BRANCH  20  25
ATOM     25  C   UNL     1       5.891  13.106  24.700  0.00  0.00    +0.000 C 
ATOM     26  O   UNL     1       5.032  13.738  24.071  0.00  0.00    +0.000 OA
BRANCH  25  27
ATOM     27  C   UNL     1       5.508  11.768  25.343  0.00  0.00    +0.000 C 
BRANCH  27  28
ATOM     28  O   UNL     1       4.638  11.953  26.469  0.00  0.00    +0.000 OA
BRANCH  28  29
ATOM     29  P   UNL     1       4.295  10.413  27.179  0.00  0.00    +0.000 P 
ATOM     30  O   UNL     1       3.753   9.859  25.865  0.00  0.00    +0.000 OA
BRANCH  29  31
ATOM     31  O   UNL     1       5.877  10.047  27.255  0.00  0.00    +0.000 OA
ATOM     32  H   UNL     1       6.049   9.204  26.800  0.00  0.00    +0.000 HD
ENDBRANCH  29  31
BRANCH  29  33
ATOM     33  O   UNL     1       3.952   8.872  27.888  0.00  0.00    +0.000 OA
ATOM     34  H   UNL     1       4.181   8.267  27.151  0.00  0.00    +0.000 HD
ENDBRANCH  29  33
ENDBRANCH  28  29
ENDBRANCH  27  28
ENDBRANCH  25  27
ENDBRANCH  20  25
TORSDOF 8
ENDMDL
MODEL 2
REMARK VINA RESULT:      -7.1      9.129     10.710
REMARK  Name = 
REMARK  10 active torsions:
REMARK  status: ('A' for Active; 'I' for Inactive)
REMARK    1  A    between atoms: C_1  and  C_2
REMARK    2  A    between atoms: C_13  and  O_14
REMARK    3  A    between atoms: C_16  and  C_17
REMARK    4  A    between atoms: C_21  and  O_22
REMARK    5  A    between atoms: C_21  and  C_23
REMARK    6  A    between atoms: C_23  and  C_25
REMARK    7  A    between atoms: C_25  and  O_26
REMARK    8  A    between atoms: O_26  and  P_27
REMARK    9  A    between atoms: P_27  and  O_29
REMARK   10  A    between atoms: P_27  and  O_30
REMARK                            x       y       z     vdW  Elec       q    Type
REMARK                         _______ _______ _______ _____ _____    ______ ____
ROOT
ATOM      1  C   UNL     1      -0.319   9.623  18.060  0.00  0.00    +0.000 C 
ATOM      2  C   UNL     1       0.743   9.952  19.139  0.00  0.00    +0.000 C 
ATOM      3  C   UNL     1       2.144   9.813  18.462  0.00  0.00    +0.000 C 
ATOM      4  C   UNL     1       2.457   8.373  18.035  0.00  0.00    +0.000 C 
ATOM      5  C   UNL     1       2.395   7.446  19.216  0.00  0.00    +0.000 C 
ATOM      6  O   UNL     1       3.104   6.451  19.326  0.00  0.00    +0.000 OA
ATOM      7  C   UNL     1       1.420   7.751  20.272  0.00  0.00    +0.000 C 
ATOM      8  C   UNL     1       0.701   8.893  20.284  0.00  0.00    +0.000 C 
ATOM      9  C   UNL     1      -0.062   9.150  21.561  0.00  0.00    +0.000 C 
ATOM     10  C   UNL     1       0.206  10.572  22.033  0.00  0.00    +0.000 C 
ATOM     11  C   UNL     1      -0.362  11.457  20.941  0.00  0.00    +0.000 C 
ATOM     12  C   UNL     1       0.544  11.453  19.669  0.00  0.00    +0.000 C 
ATOM     13  C   UNL     1       0.073  12.544  18.594  0.00  0.00    +0.000 C 
ATOM     14  C   UNL     1      -0.695  13.819  19.122  0.00  0.00    +0.000 C 
ATOM     15  C   UNL     1      -1.660  13.457  20.281  0.00  0.00    +0.000 C 
ATOM     16  C   UNL     1      -2.730  12.498  19.687  0.00  0.00    +0.000 C 
ATOM     17  C   UNL     1      -0.635  12.887  21.310  0.00  0.00    +0.000 C 
ATOM     18  C   UNL     1      -1.069  13.343  22.685  0.00  0.00    +0.000 C 
ATOM     19  C   UNL     1      -1.561  14.760  22.364  0.00  0.00    +0.000 C 
ATOM     20  C   UNL     1      -2.410  14.575  21.084  0.00  0.00    +0.000 C 
ENDROOT
BRANCH  13  21
ATOM     21  O   UNL     1       1.216  12.974  17.855  0.00  0.00    +0.000 OA
ATOM     22  H   UNL     1       1.988  12.476  18.180  0.00  0.00    +0.000 HD
ENDBRANCH  13  21
BRANCH  20  23
ATOM     23  O   UNL     1      -2.491  15.770  20.332  0.00  0.00    +0.000 OA
ATOM     24  H   UNL     1      -3.193  16.334  20.706  0.00  0.00    +0.000 HD
ENDBRANCH  20  23
BRANCH  20  25
ATOM     25  C   UNL     1      -3.854  14.195  21.590  0.00  0.00    +0.000 C 
ATOM     26  O   UNL     1      -4.860  14.328  20.879  0.00  0.00    +0.000 OA
BRANCH  25  27
ATOM     27  C   UNL     1      -4.011  13.614  23.000  0.00  0.00    +0.000 C 
BRANCH  27  28
ATOM     28  O   UNL     1      -5.196  14.103  23.643  0.00  0.00    +0.000 OA
BRANCH  28  29
ATOM     29  P   UNL     1      -6.339  12.810  23.782  0.00  0.00    +0.000 P 
ATOM     30  O   UNL     1      -5.402  11.996  24.668  0.00  0.00    +0.000 OA
BRANCH  29  31
ATOM     31  O   UNL     1      -7.291  13.700  24.754  0.00  0.00    +0.000 OA
ATOM     32  H   UNL     1      -7.781  14.359  24.232  0.00  0.00    +0.000 HD
ENDBRANCH  29  31
BRANCH  29  33
ATOM     33  O   UNL     1      -7.481  11.518  23.921  0.00  0.00    +0.000 OA
ATOM     34  H   UNL     1      -8.039  11.671  23.129  0.00  0.00    +0.000 HD
ENDBRANCH  29  33
ENDBRANCH  28  29
ENDBRANCH  27  28
ENDBRANCH  25  27
ENDBRANCH  20  25
TORSDOF 8
ENDMDL
MODEL 3
REMARK VINA RESULT:      -6.8      7.893      9.397
REMARK  Name = 
REMARK  10 active torsions:
REMARK  status: ('A' for Active; 'I' for Inactive)
REMARK    1  A    between atoms: C_1  and  C_2
REMARK    2  A    between atoms: C_13  and  O_14
REMARK    3  A    between atoms: C_16  and  C_17
REMARK    4  A    between atoms: C_21  and  O_22
REMARK    5  A    between atoms: C_21  and  C_23
REMARK    6  A    between atoms: C_23  and  C_25
REMARK    7  A    between atoms: C_25  and  O_26
REMARK    8  A    between atoms: O_26  and  P_27
REMARK    9  A    between atoms: P_27  and  O_29
REMARK   10  A    between atoms: P_27  and  O_30
REMARK                            x       y       z     vdW  Elec       q    Type
REMARK                         _______ _______ _______ _____ _____    ______ ____
ROOT
ATOM      1  C   UNL     1       1.755  16.345  19.266  0.00  0.00    +0.000 C 
ATOM      2  C   UNL     1       2.488  15.118  19.864  0.00  0.00    +0.000 C 
ATOM      3  C   UNL     1       3.871  15.620  20.387  0.00  0.00    +0.000 C 
ATOM      4  C   UNL     1       4.790  16.111  19.261  0.00  0.00    +0.000 C 
ATOM      5  C   UNL     1       5.019  15.020  18.253  0.00  0.00    +0.000 C 
ATOM      6  O   UNL     1       6.067  14.895  17.626  0.00  0.00    +0.000 OA
ATOM      7  C   UNL     1       3.921  14.076  18.008  0.00  0.00    +0.000 C 
ATOM      8  C   UNL     1       2.793  14.070  18.749  0.00  0.00    +0.000 C 
ATOM      9  C   UNL     1       1.887  12.885  18.519  0.00  0.00    +0.000 C 
ATOM     10  C   UNL     1       1.498  12.278  19.860  0.00  0.00    +0.000 C 
ATOM     11  C   UNL     1       0.708  13.364  20.563  0.00  0.00    +0.000 C 
ATOM     12  C   UNL     1       1.638  14.507  21.080  0.00  0.00    +0.000 C 
ATOM     13  C   UNL     1       0.849  15.548  22.007  0.00  0.00    +0.000 C 
ATOM     14  C   UNL     1      -0.423  15.029  22.788  0.00  0.00    +0.000 C 
ATOM     15  C   UNL     1      -1.244  14.032  21.929  0.00  0.00    +0.000 C 
ATOM     16  C   UNL     1      -1.763  14.827  20.698  0.00  0.00    +0.000 C 
ATOM     17  C   UNL     1      -0.165  12.926  21.703  0.00  0.00    +0.000 C 
ATOM     18  C   UNL     1      -0.865  11.587  21.775  0.00  0.00    +0.000 C 
ATOM     19  C   UNL     1      -1.873  11.862  22.898  0.00  0.00    +0.000 C 
ATOM     20  C   UNL     1      -2.456  13.249  22.541  0.00  0.00    +0.000 C 
ENDROOT
BRANCH  13  21
ATOM     21  O   UNL     1       1.767  16.102  22.949  0.00  0.00    +0.000 OA
ATOM     22  H   UNL     1       2.557  15.532  22.969  0.00  0.00    +0.000 HD
ENDBRANCH  13  21
BRANCH  20  23
ATOM     23  O   UNL     1      -2.962  13.914  23.682  0.00  0.00    +0.000 OA
ATOM     24  H   UNL     1      -2.229  14.366  24.138  0.00  0.00    +0.000 HD
ENDBRANCH  20  23
BRANCH  20  25
ATOM     25  C   UNL     1      -3.647  12.961  21.550  0.00  0.00    +0.000 C 
ATOM     26  O   UNL     1      -3.494  12.322  20.500  0.00  0.00    +0.000 OA
BRANCH  25  27
ATOM     27  C   UNL     1      -5.048  13.466  21.917  0.00  0.00    +0.000 C 
BRANCH  27  28
ATOM     28  O   UNL     1      -5.913  12.388  22.303  0.00  0.00    +0.000 OA
BRANCH  28  29
ATOM     29  P   UNL     1      -6.915  12.909  23.615  0.00  0.00    +0.000 P 
ATOM     30  O   UNL     1      -7.334  11.479  23.942  0.00  0.00    +0.000 OA
BRANCH  29  31
ATOM     31  O   UNL     1      -5.615  13.263  24.523  0.00  0.00    +0.000 OA
ATOM     32  H   UNL     1      -5.884  13.761  25.315  0.00  0.00    +0.000 HD
ENDBRANCH  29  31
BRANCH  29  33
ATOM     33  O   UNL     1      -7.916  13.428  24.926  0.00  0.00    +0.000 OA
ATOM     34  H   UNL     1      -7.994  14.388  24.739  0.00  0.00    +0.000 HD
ENDBRANCH  29  33
ENDBRANCH  28  29
ENDBRANCH  27  28
ENDBRANCH  25  27
ENDBRANCH  20  25
TORSDOF 8
ENDMDL
MODEL 4
REMARK VINA RESULT:      -6.8      9.093     12.890
REMARK  Name = 
REMARK  10 active torsions:
REMARK  status: ('A' for Active; 'I' for Inactive)
REMARK    1  A    between atoms: C_1  and  C_2
REMARK    2  A    between atoms: C_13  and  O_14
REMARK    3  A    between atoms: C_16  and  C_17
REMARK    4  A    between atoms: C_21  and  O_22
REMARK    5  A    between atoms: C_21  and  C_23
REMARK    6  A    between atoms: C_23  and  C_25
REMARK    7  A    between atoms: C_25  and  O_26
REMARK    8  A    between atoms: O_26  and  P_27
REMARK    9  A    between atoms: P_27  and  O_29
REMARK   10  A    between atoms: P_27  and  O_30
REMARK                            x       y       z     vdW  Elec       q    Type
REMARK                         _______ _______ _______ _____ _____    ______ ____
ROOT
ATOM      1  C   UNL     1      -4.687  14.533  21.011  0.00  0.00    +0.000 C 
ATOM      2  C   UNL     1      -4.626  13.073  21.526  0.00  0.00    +0.000 C 
ATOM      3  C   UNL     1      -5.984  12.398  21.153  0.00  0.00    +0.000 C 
ATOM      4  C   UNL     1      -7.179  13.020  21.888  0.00  0.00    +0.000 C 
ATOM      5  C   UNL     1      -6.987  12.935  23.376  0.00  0.00    +0.000 C 
ATOM      6  O   UNL     1      -7.917  12.802  24.166  0.00  0.00    +0.000 OA
ATOM      7  C   UNL     1      -5.615  13.034  23.894  0.00  0.00    +0.000 C 
ATOM      8  C   UNL     1      -4.536  13.050  23.084  0.00  0.00    +0.000 C 
ATOM      9  C   UNL     1      -3.210  12.907  23.789  0.00  0.00    +0.000 C 
ATOM     10  C   UNL     1      -2.381  11.833  23.098  0.00  0.00    +0.000 C 
ATOM     11  C   UNL     1      -2.134  12.372  21.704  0.00  0.00    +0.000 C 
ATOM     12  C   UNL     1      -3.418  12.288  20.819  0.00  0.00    +0.000 C 
ATOM     13  C   UNL     1      -3.117  12.651  19.288  0.00  0.00    +0.000 C 
ATOM     14  C   UNL     1      -1.656  12.400  18.742  0.00  0.00    +0.000 C 
ATOM     15  C   UNL     1      -0.587  12.748  19.809  0.00  0.00    +0.000 C 
ATOM     16  C   UNL     1      -0.711  14.274  20.084  0.00  0.00    +0.000 C 
ATOM     17  C   UNL     1      -1.003  11.751  20.935  0.00  0.00    +0.000 C 
ATOM     18  C   UNL     1       0.266  11.223  21.567  0.00  0.00    +0.000 C 
ATOM     19  C   UNL     1       1.161  11.099  20.327  0.00  0.00    +0.000 C 
ATOM     20  C   UNL     1       0.928  12.426  19.568  0.00  0.00    +0.000 C 
ENDROOT
BRANCH  13  21
ATOM     21  O   UNL     1      -4.040  11.939  18.464  0.00  0.00    +0.000 OA
ATOM     22  H   UNL     1      -3.563  11.641  17.668  0.00  0.00    +0.000 HD
ENDBRANCH  13  21
BRANCH  20  23
ATOM     23  O   UNL     1       1.203  12.295  18.187  0.00  0.00    +0.000 OA
ATOM     24  H   UNL     1       1.784  11.525  18.050  0.00  0.00    +0.000 HD
ENDBRANCH  20  23
BRANCH  20  25
ATOM     25  C   UNL     1       1.948  13.452  20.194  0.00  0.00    +0.000 C 
ATOM     26  O   UNL     1       2.025  13.647  21.415  0.00  0.00    +0.000 OA
BRANCH  25  27
ATOM     27  C   UNL     1       2.896  14.211  19.258  0.00  0.00    +0.000 C 
BRANCH  27  28
ATOM     28  O   UNL     1       2.524  15.591  19.136  0.00  0.00    +0.000 OA
BRANCH  28  29
ATOM     29  P   UNL     1       3.951  16.545  18.915  0.00  0.00    +0.000 P 
ATOM     30  O   UNL     1       3.474  17.054  17.558  0.00  0.00    +0.000 OA
BRANCH  29  31
ATOM     31  O   UNL     1       3.467  17.610  20.043  0.00  0.00    +0.000 OA
ATOM     32  H   UNL     1       2.690  17.265  20.518  0.00  0.00    +0.000 HD
ENDBRANCH  29  31
BRANCH  29  33
ATOM     33  O   UNL     1       5.378  17.498  18.692  0.00  0.00    +0.000 OA
ATOM     34  H   UNL     1       5.704  17.572  19.615  0.00  0.00    +0.000 HD
ENDBRANCH  29  33
ENDBRANCH  28  29
ENDBRANCH  27  28
ENDBRANCH  25  27
ENDBRANCH  20  25
TORSDOF 8
ENDMDL
MODEL 5
REMARK VINA RESULT:      -6.7      8.102      9.728
REMARK  Name = 
REMARK  10 active torsions:
REMARK  status: ('A' for Active; 'I' for Inactive)
REMARK    1  A    between atoms: C_1  and  C_2
REMARK    2  A    between atoms: C_13  and  O_14
REMARK    3  A    between atoms: C_16  and  C_17
REMARK    4  A    between atoms: C_21  and  O_22
REMARK    5  A    between atoms: C_21  and  C_23
REMARK    6  A    between atoms: C_23  and  C_25
REMARK    7  A    between atoms: C_25  and  O_26
REMARK    8  A    between atoms: O_26  and  P_27
REMARK    9  A    between atoms: P_27  and  O_29
REMARK   10  A    between atoms: P_27  and  O_30
REMARK                            x       y       z     vdW  Elec       q    Type
REMARK                         _______ _______ _______ _____ _____    ______ ____
ROOT
ATOM      1  C   UNL     1       1.405  16.332  19.608  0.00  0.00    +0.000 C 
ATOM      2  C   UNL     1       2.047  15.034  20.160  0.00  0.00    +0.000 C 
ATOM      3  C   UNL     1       3.500  15.395  20.605  0.00  0.00    +0.000 C 
ATOM      4  C   UNL     1       4.397  15.803  19.429  0.00  0.00    +0.000 C 
ATOM      5  C   UNL     1       4.461  14.703  18.407  0.00  0.00    +0.000 C 
ATOM      6  O   UNL     1       5.454  14.482  17.720  0.00  0.00    +0.000 OA
ATOM      7  C   UNL     1       3.263  13.873  18.222  0.00  0.00    +0.000 C 
ATOM      8  C   UNL     1       2.184  13.971  19.026  0.00  0.00    +0.000 C 
ATOM      9  C   UNL     1       1.155  12.882  18.846  0.00  0.00    +0.000 C 
ATOM     10  C   UNL     1       0.785  12.304  20.204  0.00  0.00    +0.000 C 
ATOM     11  C   UNL     1       0.147  13.456  20.954  0.00  0.00    +0.000 C 
ATOM     12  C   UNL     1       1.211  14.499  21.421  0.00  0.00    +0.000 C 
ATOM     13  C   UNL     1       0.582  15.605  22.394  0.00  0.00    +0.000 C 
ATOM     14  C   UNL     1      -0.689  15.205  23.245  0.00  0.00    +0.000 C 
ATOM     15  C   UNL     1      -1.650  14.300  22.432  0.00  0.00    +0.000 C 
ATOM     16  C   UNL     1      -2.158  15.152  21.234  0.00  0.00    +0.000 C 
ATOM     17  C   UNL     1      -0.700  13.097  22.142  0.00  0.00    +0.000 C 
ATOM     18  C   UNL     1      -1.521  11.832  22.249  0.00  0.00    +0.000 C 
ATOM     19  C   UNL     1      -2.433  12.194  23.429  0.00  0.00    +0.000 C 
ATOM     20  C   UNL     1      -2.896  13.634  23.110  0.00  0.00    +0.000 C 
ENDROOT
BRANCH  13  21
ATOM     21  O   UNL     1       1.601  16.058  23.284  0.00  0.00    +0.000 OA
ATOM     22  H   UNL     1       1.694  15.398  23.995  0.00  0.00    +0.000 HD
ENDBRANCH  13  21
BRANCH  20  23
ATOM     23  O   UNL     1      -3.270  14.336  24.279  0.00  0.00    +0.000 OA
ATOM     24  H   UNL     1      -4.172  14.687  24.165  0.00  0.00    +0.000 HD
ENDBRANCH  20  23
BRANCH  20  25
ATOM     25  C   UNL     1      -4.165  13.472  22.188  0.00  0.00    +0.000 C 
ATOM     26  O   UNL     1      -4.202  12.662  21.251  0.00  0.00    +0.000 OA
BRANCH  25  27
ATOM     27  C   UNL     1      -5.402  14.327  22.482  0.00  0.00    +0.000 C 
BRANCH  27  28
ATOM     28  O   UNL     1      -5.896  14.103  23.811  0.00  0.00    +0.000 OA
BRANCH  28  29
ATOM     29  P   UNL     1      -6.901  12.695  23.812  0.00  0.00    +0.000 P 
ATOM     30  O   UNL     1      -5.864  11.879  24.576  0.00  0.00    +0.000 OA
BRANCH  29  31
ATOM     31  O   UNL     1      -7.908  13.361  24.901  0.00  0.00    +0.000 OA
ATOM     32  H   UNL     1      -7.831  14.331  24.878  0.00  0.00    +0.000 HD
ENDBRANCH  29  31
BRANCH  29  33
ATOM     33  O   UNL     1      -7.906  11.286  23.813  0.00  0.00    +0.000 OA
ATOM     34  H   UNL     1      -8.768  11.666  23.537  0.00  0.00    +0.000 HD
ENDBRANCH  29  33
ENDBRANCH  28  29
ENDBRANCH  27  28
ENDBRANCH  25  27
ENDBRANCH  20  25
TORSDOF 8
ENDMDL
MODEL 6
REMARK VINA RESULT:      -6.7      9.304     11.215
REMARK  Name = 
REMARK  10 active torsions:
REMARK  status: ('A' for Active; 'I' for Inactive)
REMARK    1  A    between atoms: C_1  and  C_2
REMARK    2  A    between atoms: C_13  and  O_14
REMARK    3  A    between atoms: C_16  and  C_17
REMARK    4  A    between atoms: C_21  and  O_22
REMARK    5  A    between atoms: C_21  and  C_23
REMARK    6  A    between atoms: C_23  and  C_25
REMARK    7  A    between atoms: C_25  and  O_26
REMARK    8  A    between atoms: O_26  and  P_27
REMARK    9  A    between atoms: P_27  and  O_29
REMARK   10  A    between atoms: P_27  and  O_30
REMARK                            x       y       z     vdW  Elec       q    Type
REMARK                         _______ _______ _______ _____ _____    ______ ____
ROOT
ATOM      1  C   UNL     1      -0.295   9.506  17.926  0.00  0.00    +0.000 C 
ATOM      2  C   UNL     1       0.773   9.851  18.994  0.00  0.00    +0.000 C 
ATOM      3  C   UNL     1       2.158   9.861  18.272  0.00  0.00    +0.000 C 
ATOM      4  C   UNL     1       2.566   8.478  17.748  0.00  0.00    +0.000 C 
ATOM      5  C   UNL     1       2.611   7.480  18.870  0.00  0.00    +0.000 C 
ATOM      6  O   UNL     1       3.397   6.537  18.899  0.00  0.00    +0.000 OA
ATOM      7  C   UNL     1       1.650   7.645  19.970  0.00  0.00    +0.000 C 
ATOM      8  C   UNL     1       0.847   8.725  20.072  0.00  0.00    +0.000 C 
ATOM      9  C   UNL     1       0.109   8.846  21.383  0.00  0.00    +0.000 C 
ATOM     10  C   UNL     1       0.283  10.253  21.935  0.00  0.00    +0.000 C 
ATOM     11  C   UNL     1      -0.384  11.155  20.916  0.00  0.00    +0.000 C 
ATOM     12  C   UNL     1       0.479  11.298  19.622  0.00  0.00    +0.000 C 
ATOM     13  C   UNL     1      -0.107  12.411  18.630  0.00  0.00    +0.000 C 
ATOM     14  C   UNL     1      -0.953  13.590  19.257  0.00  0.00    +0.000 C 
ATOM     15  C   UNL     1      -1.850  13.085  20.417  0.00  0.00    +0.000 C 
ATOM     16  C   UNL     1      -2.863  12.084  19.794  0.00  0.00    +0.000 C 
ATOM     17  C   UNL     1      -0.752  12.535  21.381  0.00  0.00    +0.000 C 
ATOM     18  C   UNL     1      -1.175  12.872  22.793  0.00  0.00    +0.000 C 
ATOM     19  C   UNL     1      -1.783  14.264  22.574  0.00  0.00    +0.000 C 
ATOM     20  C   UNL     1      -2.656  14.092  21.309  0.00  0.00    +0.000 C 
ENDROOT
BRANCH  13  21
ATOM     21  O   UNL     1       0.976  12.972  17.889  0.00  0.00    +0.000 OA
ATOM     22  H   UNL     1       1.585  13.396  18.521  0.00  0.00    +0.000 HD
ENDBRANCH  13  21
BRANCH  20  23
ATOM     23  O   UNL     1      -2.850  15.320  20.635  0.00  0.00    +0.000 OA
ATOM     24  H   UNL     1      -3.630  15.244  20.055  0.00  0.00    +0.000 HD
ENDBRANCH  20  23
BRANCH  20  25
ATOM     25  C   UNL     1      -4.050  13.571  21.829  0.00  0.00    +0.000 C 
ATOM     26  O   UNL     1      -4.178  12.477  22.396  0.00  0.00    +0.000 OA
BRANCH  25  27
ATOM     27  C   UNL     1      -5.282  14.465  21.648  0.00  0.00    +0.000 C 
BRANCH  27  28
ATOM     28  O   UNL     1      -6.391  13.733  21.106  0.00  0.00    +0.000 OA
BRANCH  28  29
ATOM     29  P   UNL     1      -6.249  13.685  19.382  0.00  0.00    +0.000 P 
ATOM     30  O   UNL     1      -7.762  13.729  19.195  0.00  0.00    +0.000 OA
BRANCH  29  31
ATOM     31  O   UNL     1      -5.701  15.215  19.342  0.00  0.00    +0.000 OA
ATOM     32  H   UNL     1      -5.100  15.336  18.585  0.00  0.00    +0.000 HD
ENDBRANCH  29  31
BRANCH  29  33
ATOM     33  O   UNL     1      -6.108  13.637  17.659  0.00  0.00    +0.000 OA
ATOM     34  H   UNL     1      -7.033  13.816  17.386  0.00  0.00    +0.000 HD
ENDBRANCH  29  33
ENDBRANCH  28  29
ENDBRANCH  27  28
ENDBRANCH  25  27
ENDBRANCH  20  25
TORSDOF 8
ENDMDL
MODEL 7
REMARK VINA RESULT:      -6.7      9.281     10.881
REMARK  Name = 
REMARK  10 active torsions:
REMARK  status: ('A' for Active; 'I' for Inactive)
REMARK    1  A    between atoms: C_1  and  C_2
REMARK    2  A    between atoms: C_13  and  O_14
REMARK    3  A    between atoms: C_16  and  C_17
REMARK    4  A    between atoms: C_21  and  O_22
REMARK    5  A    between atoms: C_21  and  C_23
REMARK    6  A    between atoms: C_23  and  C_25
REMARK    7  A    between atoms: C_25  and  O_26
REMARK    8  A    between atoms: O_26  and  P_27
REMARK    9  A    between atoms: P_27  and  O_29
REMARK   10  A    between atoms: P_27  and  O_30
REMARK                            x       y       z     vdW  Elec       q    Type
REMARK                         _______ _______ _______ _____ _____    ______ ____
ROOT
ATOM      1  C   UNL     1      -0.464   9.617  18.052  0.00  0.00    +0.000 C 
ATOM      2  C   UNL     1       0.681   9.990  19.027  0.00  0.00    +0.000 C 
ATOM      3  C   UNL     1       2.012   9.941  18.212  0.00  0.00    +0.000 C 
ATOM      4  C   UNL     1       2.361   8.529  17.726  0.00  0.00    +0.000 C 
ATOM      5  C   UNL     1       2.468   7.582  18.888  0.00  0.00    +0.000 C 
ATOM      6  O   UNL     1       3.240   6.627  18.907  0.00  0.00    +0.000 OA
ATOM      7  C   UNL     1       1.589   7.815  20.042  0.00  0.00    +0.000 C 
ATOM      8  C   UNL     1       0.811   8.913  20.148  0.00  0.00    +0.000 C 
ATOM      9  C   UNL     1       0.167   9.107  21.500  0.00  0.00    +0.000 C 
ATOM     10  C   UNL     1       0.401  10.535  21.972  0.00  0.00    +0.000 C 
ATOM     11  C   UNL     1      -0.321  11.401  20.960  0.00  0.00    +0.000 C 
ATOM     12  C   UNL     1       0.452  11.469  19.605  0.00  0.00    +0.000 C 
ATOM     13  C   UNL     1      -0.183  12.547  18.605  0.00  0.00    +0.000 C 
ATOM     14  C   UNL     1      -0.965  13.768  19.232  0.00  0.00    +0.000 C 
ATOM     15  C   UNL     1      -1.788  13.334  20.473  0.00  0.00    +0.000 C 
ATOM     16  C   UNL     1      -2.857  12.324  19.969  0.00  0.00    +0.000 C 
ATOM     17  C   UNL     1      -0.635  12.808  21.384  0.00  0.00    +0.000 C 
ATOM     18  C   UNL     1      -0.954  13.217  22.805  0.00  0.00    +0.000 C 
ATOM     19  C   UNL     1      -1.554  14.608  22.563  0.00  0.00    +0.000 C 
ATOM     20  C   UNL     1      -2.514  14.395  21.370  0.00  0.00    +0.000 C 
ENDROOT
BRANCH  13  21
ATOM     21  O   UNL     1       0.854  13.053  17.766  0.00  0.00    +0.000 OA
ATOM     22  H   UNL     1       1.559  12.382  17.722  0.00  0.00    +0.000 HD
ENDBRANCH  13  21
BRANCH  20  23
ATOM     23  O   UNL     1      -2.736  15.594  20.654  0.00  0.00    +0.000 OA
ATOM     24  H   UNL     1      -2.164  15.604  19.865  0.00  0.00    +0.000 HD
ENDBRANCH  20  23
BRANCH  20  25
ATOM     25  C   UNL     1      -3.877  13.925  22.007  0.00  0.00    +0.000 C 
ATOM     26  O   UNL     1      -3.989  13.670  23.215  0.00  0.00    +0.000 OA
BRANCH  25  27
ATOM     27  C   UNL     1      -5.110  13.807  21.104  0.00  0.00    +0.000 C 
BRANCH  27  28
ATOM     28  O   UNL     1      -6.327  13.965  21.849  0.00  0.00    +0.000 OA
BRANCH  28  29
ATOM     29  P   UNL     1      -7.122  12.432  21.966  0.00  0.00    +0.000 P 
ATOM     30  O   UNL     1      -6.144  11.782  20.993  0.00  0.00    +0.000 OA
BRANCH  29  31
ATOM     31  O   UNL     1      -6.550  12.203  23.470  0.00  0.00    +0.000 OA
ATOM     32  H   UNL     1      -6.022  12.972  23.749  0.00  0.00    +0.000 HD
ENDBRANCH  29  31
BRANCH  29  33
ATOM     33  O   UNL     1      -7.916  10.900  22.083  0.00  0.00    +0.000 OA
ATOM     34  H   UNL     1      -8.249  10.927  23.006  0.00  0.00    +0.000 HD
ENDBRANCH  29  33
ENDBRANCH  28  29
ENDBRANCH  27  28
ENDBRANCH  25  27
ENDBRANCH  20  25
TORSDOF 8
ENDMDL
MODEL 8
REMARK VINA RESULT:      -6.7      9.102     10.802
REMARK  Name = 
REMARK  10 active torsions:
REMARK  status: ('A' for Active; 'I' for Inactive)
REMARK    1  A    between atoms: C_1  and  C_2
REMARK    2  A    between atoms: C_13  and  O_14
REMARK    3  A    between atoms: C_16  and  C_17
REMARK    4  A    between atoms: C_21  and  O_22
REMARK    5  A    between atoms: C_21  and  C_23
REMARK    6  A    between atoms: C_23  and  C_25
REMARK    7  A    between atoms: C_25  and  O_26
REMARK    8  A    between atoms: O_26  and  P_27
REMARK    9  A    between atoms: P_27  and  O_29
REMARK   10  A    between atoms: P_27  and  O_30
REMARK                            x       y       z     vdW  Elec       q    Type
REMARK                         _______ _______ _______ _____ _____    ______ ____
ROOT
ATOM      1  C   UNL     1       0.194   9.222  17.636  0.00  0.00    +0.000 C 
ATOM      2  C   UNL     1       1.079   9.493  18.878  0.00  0.00    +0.000 C 
ATOM      3  C   UNL     1       2.564   9.478  18.396  0.00  0.00    +0.000 C 
ATOM      4  C   UNL     1       3.013   8.101  17.892  0.00  0.00    +0.000 C 
ATOM      5  C   UNL     1       2.841   7.064  18.966  0.00  0.00    +0.000 C 
ATOM      6  O   UNL     1       3.584   6.094  19.087  0.00  0.00    +0.000 OA
ATOM      7  C   UNL     1       1.717   7.225  19.898  0.00  0.00    +0.000 C 
ATOM      8  C   UNL     1       0.940   8.329  19.908  0.00  0.00    +0.000 C 
ATOM      9  C   UNL     1      -0.003   8.431  21.083  0.00  0.00    +0.000 C 
ATOM     10  C   UNL     1       0.119   9.812  21.711  0.00  0.00    +0.000 C 
ATOM     11  C   UNL     1      -0.343  10.771  20.632  0.00  0.00    +0.000 C 
ATOM     12  C   UNL     1       0.726  10.927  19.505  0.00  0.00    +0.000 C 
ATOM     13  C   UNL     1       0.346  12.093  18.475  0.00  0.00    +0.000 C 
ATOM     14  C   UNL     1      -0.557  13.279  18.999  0.00  0.00    +0.000 C 
ATOM     15  C   UNL     1      -1.649  12.767  19.974  0.00  0.00    +0.000 C 
ATOM     16  C   UNL     1      -2.573  11.824  19.154  0.00  0.00    +0.000 C 
ATOM     17  C   UNL     1      -0.743  12.147  21.083  0.00  0.00    +0.000 C 
ATOM     18  C   UNL     1      -1.385  12.451  22.418  0.00  0.00    +0.000 C 
ATOM     19  C   UNL     1      -1.907  13.869  22.157  0.00  0.00    +0.000 C 
ATOM     20  C   UNL     1      -2.562  13.771  20.759  0.00  0.00    +0.000 C 
ENDROOT
BRANCH  13  21
ATOM     21  O   UNL     1       1.553  12.641  17.944  0.00  0.00    +0.000 OA
ATOM     22  H   UNL     1       2.010  11.936  17.449  0.00  0.00    +0.000 HD
ENDBRANCH  13  21
BRANCH  20  23
ATOM     23  O   UNL     1      -2.606  15.027  20.111  0.00  0.00    +0.000 OA
ATOM     24  H   UNL     1      -1.709  15.260  19.807  0.00  0.00    +0.000 HD
ENDBRANCH  20  23
BRANCH  20  25
ATOM     25  C   UNL     1      -4.038  13.283  21.021  0.00  0.00    +0.000 C 
ATOM     26  O   UNL     1      -4.802  12.963  20.099  0.00  0.00    +0.000 OA
BRANCH  25  27
ATOM     27  C   UNL     1      -4.531  13.175  22.468  0.00  0.00    +0.000 C 
BRANCH  27  28
ATOM     28  O   UNL     1      -5.650  12.283  22.580  0.00  0.00    +0.000 OA
BRANCH  28  29
ATOM     29  P   UNL     1      -6.755  12.905  23.757  0.00  0.00    +0.000 P 
ATOM     30  O   UNL     1      -7.509  11.581  23.839  0.00  0.00    +0.000 OA
BRANCH  29  31
ATOM     31  O   UNL     1      -5.605  12.893  24.906  0.00  0.00    +0.000 OA
ATOM     32  H   UNL     1      -4.728  12.768  24.501  0.00  0.00    +0.000 HD
ENDBRANCH  29  31
BRANCH  29  33
ATOM     33  O   UNL     1      -7.860  13.527  24.934  0.00  0.00    +0.000 OA
ATOM     34  H   UNL     1      -8.333  14.209  24.411  0.00  0.00    +0.000 HD
ENDBRANCH  29  33
ENDBRANCH  28  29
ENDBRANCH  27  28
ENDBRANCH  25  27
ENDBRANCH  20  25
TORSDOF 8
ENDMDL
MODEL 9
REMARK VINA RESULT:      -6.4      9.152     10.852
REMARK  Name = 
REMARK  10 active torsions:
REMARK  status: ('A' for Active; 'I' for Inactive)
REMARK    1  A    between atoms: C_1  and  C_2
REMARK    2  A    between atoms: C_13  and  O_14
REMARK    3  A    between atoms: C_16  and  C_17
REMARK    4  A    between atoms: C_21  and  O_22
REMARK    5  A    between atoms: C_21  and  C_23
REMARK    6  A    between atoms: C_23  and  C_25
REMARK    7  A    between atoms: C_25  and  O_26
REMARK    8  A    between atoms: O_26  and  P_27
REMARK    9  A    between atoms: P_27  and  O_29
REMARK   10  A    between atoms: P_27  and  O_30
REMARK                            x       y       z     vdW  Elec       q    Type
REMARK                         _______ _______ _______ _____ _____    ______ ____
ROOT
ATOM      1  C   UNL     1      -0.083   9.348  17.860  0.00  0.00    +0.000 C 
ATOM      2  C   UNL     1       0.946   9.682  18.969  0.00  0.00    +0.000 C 
ATOM      3  C   UNL     1       2.358   9.678  18.300  0.00  0.00    +0.000 C 
ATOM      4  C   UNL     1       2.772   8.291  17.791  0.00  0.00    +0.000 C 
ATOM      5  C   UNL     1       2.764   7.292  18.914  0.00  0.00    +0.000 C 
ATOM      6  O   UNL     1       3.539   6.342  18.972  0.00  0.00    +0.000 OA
ATOM      7  C   UNL     1       1.763   7.467  19.976  0.00  0.00    +0.000 C 
ATOM      8  C   UNL     1       0.968   8.554  20.048  0.00  0.00    +0.000 C 
ATOM      9  C   UNL     1       0.180   8.682  21.329  0.00  0.00    +0.000 C 
ATOM     10  C   UNL     1       0.348  10.088  21.888  0.00  0.00    +0.000 C 
ATOM     11  C   UNL     1      -0.271  10.996  20.845  0.00  0.00    +0.000 C 
ATOM     12  C   UNL     1       0.642  11.131  19.585  0.00  0.00    +0.000 C 
ATOM     13  C   UNL     1       0.106  12.250  18.572  0.00  0.00    +0.000 C 
ATOM     14  C   UNL     1      -0.751  13.437  19.167  0.00  0.00    +0.000 C 
ATOM     15  C   UNL     1      -1.697  12.941  20.291  0.00  0.00    +0.000 C 
ATOM     16  C   UNL     1      -2.696  11.950  19.629  0.00  0.00    +0.000 C 
ATOM     17  C   UNL     1      -0.643  12.380  21.296  0.00  0.00    +0.000 C 
ATOM     18  C   UNL     1      -1.117  12.721  22.691  0.00  0.00    +0.000 C 
ATOM     19  C   UNL     1      -1.702  14.119  22.450  0.00  0.00    +0.000 C 
ATOM     20  C   UNL     1      -2.527  13.955  21.152  0.00  0.00    +0.000 C 
ENDROOT
BRANCH  13  21
ATOM     21  O   UNL     1       1.222  12.801  17.873  0.00  0.00    +0.000 OA
ATOM     22  H   UNL     1       2.035  12.476  18.303  0.00  0.00    +0.000 HD
ENDBRANCH  13  21
BRANCH  20  23
ATOM     23  O   UNL     1      -2.683  15.185  20.472  0.00  0.00    +0.000 OA
ATOM     24  H   UNL     1      -1.983  15.268  19.798  0.00  0.00    +0.000 HD
ENDBRANCH  20  23
BRANCH  20  25
ATOM     25  C   UNL     1      -3.945  13.449  21.617  0.00  0.00    +0.000 C 
ATOM     26  O   UNL     1      -4.087  12.459  22.349  0.00  0.00    +0.000 OA
BRANCH  25  27
ATOM     27  C   UNL     1      -5.188  14.228  21.170  0.00  0.00    +0.000 C 
BRANCH  27  28
ATOM     28  O   UNL     1      -6.218  14.196  22.169  0.00  0.00    +0.000 OA
BRANCH  28  29
ATOM     29  P   UNL     1      -5.759  15.218  23.488  0.00  0.00    +0.000 P 
ATOM     30  O   UNL     1      -6.403  16.442  22.844  0.00  0.00    +0.000 OA
BRANCH  29  31
ATOM     31  O   UNL     1      -6.866  14.531  24.461  0.00  0.00    +0.000 OA
ATOM     32  H   UNL     1      -7.522  15.192  24.742  0.00  0.00    +0.000 HD
ENDBRANCH  29  31
BRANCH  29  33
ATOM     33  O   UNL     1      -5.301  16.240  24.807  0.00  0.00    +0.000 OA
ATOM     34  H   UNL     1      -5.161  15.580  25.519  0.00  0.00    +0.000 HD
ENDBRANCH  29  33
ENDBRANCH  28  29
ENDBRANCH  27  28
ENDBRANCH  25  27
ENDBRANCH  20  25
TORSDOF 8
ENDMDL
