MODEL 1
REMARK VINA RESULT:      -6.9      0.000      0.000
REMARK  Name = 
REMARK  11 active torsions:
REMARK  status: ('A' for Active; 'I' for Inactive)
REMARK    1  A    between atoms: C_1  and  C_2
REMARK    2  A    between atoms: C_2  and  N_3
REMARK    3  A    between atoms: N_3  and  C_4
REMARK    4  A    between atoms: N_3  and  C_6
REMARK    5  A    between atoms: C_4  and  C_5
REMARK    6  A    between atoms: C_6  and  C_7
REMARK    7  A    between atoms: C_7  and  C_8
REMARK    8  A    between atoms: C_8  and  N_9
REMARK    9  A    between atoms: C_10  and  C_12
REMARK   10  A    between atoms: C_12  and  C_13
REMARK   11  A    between atoms: C_13  and  C_14
REMARK                            x       y       z     vdW  Elec       q    Type
REMARK                         _______ _______ _______ _____ _____    ______ ____
ROOT
ATOM      1  N   UNL     1       7.882   7.316  18.244  0.00  0.00    +0.000 N 
ATOM      2  C   UNL     1       7.327   6.318  17.479  0.00  0.00    +0.000 C 
ATOM      3  O   UNL     1       7.065   6.452  16.285  0.00  0.00    +0.000 OA
ATOM      4  H   UNL     1       7.983   7.192  19.244  0.00  0.00    +0.000 HD
ENDROOT
BRANCH   1   5
ATOM      5  C   UNL     1       8.193   8.619  17.694  0.00  0.00    +0.000 C 
BRANCH   5   6
ATOM      6  C   UNL     1       8.843   9.542  18.720  0.00  0.00    +0.000 C 
BRANCH   6   7
ATOM      7  C   UNL     1       9.025  10.988  18.219  0.00  0.00    +0.000 C 
BRANCH   7   8
ATOM      8  N   UNL     1       9.550  11.932  19.228  0.00  0.00    +0.000 NA
BRANCH   8  10
ATOM      9  C   UNL     1       9.263  12.273  21.737  0.00  0.00    +0.000 C 
ATOM     10  C   UNL     1       9.502  11.324  20.572  0.00  0.00    +0.000 C 
ENDBRANCH   8  10
BRANCH   8  11
ATOM     11  C   UNL     1      10.887  12.435  18.857  0.00  0.00    +0.000 C 
ATOM     12  C   UNL     1      12.075  11.571  19.273  0.00  0.00    +0.000 C 
ENDBRANCH   8  11
ENDBRANCH   7   8
ENDBRANCH   6   7
ENDBRANCH   5   6
ENDBRANCH   1   5
BRANCH   2  13
ATOM     13  C   UNL     1       7.025   5.056  18.250  0.00  0.00    +0.000 C 
BRANCH  13  14
ATOM     14  C   UNL     1       5.779   5.238  19.112  0.00  0.00    +0.000 C 
BRANCH  14  15
ATOM     15  C   UNL     1       4.602   4.512  18.547  0.00  0.00    +0.000 A 
ATOM     16  C   UNL     1       4.527   3.941  17.291  0.00  0.00    +0.000 A 
ATOM     17  N   UNL     1       3.305   3.339  17.165  0.00  0.00    +0.000 N 
ATOM     18  C   UNL     1       2.565   3.518  18.308  0.00  0.00    +0.000 A 
ATOM     19  C   UNL     1       1.274   3.079  18.625  0.00  0.00    +0.000 A 
ATOM     20  C   UNL     1       0.756   3.433  19.874  0.00  0.00    +0.000 A 
ATOM     21  C   UNL     1       1.503   4.194  20.769  0.00  0.00    +0.000 A 
ATOM     22  C   UNL     1       2.799   4.614  20.444  0.00  0.00    +0.000 A 
ATOM     23  C   UNL     1       3.347   4.268  19.190  0.00  0.00    +0.000 A 
ATOM     24  H   UNL     1       2.983   2.841  16.347  0.00  0.00    +0.000 HD
ENDBRANCH  14  15
ENDBRANCH  13  14
ENDBRANCH   2  13
TORSDOF 9
ENDMDL
MODEL 2
REMARK VINA RESULT:      -6.9      1.172      1.275
REMARK  Name = 
REMARK  11 active torsions:
REMARK  status: ('A' for Active; 'I' for Inactive)
REMARK    1  A    between atoms: C_1  and  C_2
REMARK    2  A    between atoms: C_2  and  N_3
REMARK    3  A    between atoms: N_3  and  C_4
REMARK    4  A    between atoms: N_3  and  C_6
REMARK    5  A    between atoms: C_4  and  C_5
REMARK    6  A    between atoms: C_6  and  C_7
REMARK    7  A    between atoms: C_7  and  C_8
REMARK    8  A    between atoms: C_8  and  N_9
REMARK    9  A    between atoms: C_10  and  C_12
REMARK   10  A    between atoms: C_12  and  C_13
REMARK   11  A    between atoms: C_13  and  C_14
REMARK                            x       y       z     vdW  Elec       q    Type
REMARK                         _______ _______ _______ _____ _____    ______ ____
ROOT
ATOM      1  N   UNL     1       6.984   7.619  17.339  0.00  0.00    +0.000 N 
ATOM      2  C   UNL     1       6.775   6.322  16.937  0.00  0.00    +0.000 C 
ATOM      3  O   UNL     1       7.583   5.416  17.136  0.00  0.00    +0.000 OA
ATOM      4  H   UNL     1       6.338   8.348  17.062  0.00  0.00    +0.000 HD
ENDROOT
BRANCH   1   5
ATOM      5  C   UNL     1       8.193   8.020  18.028  0.00  0.00    +0.000 C 
BRANCH   5   6
ATOM      6  C   UNL     1       8.389   9.533  18.021  0.00  0.00    +0.000 C 
BRANCH   6   7
ATOM      7  C   UNL     1       9.172  10.058  19.241  0.00  0.00    +0.000 C 
BRANCH   7   8
ATOM      8  N   UNL     1       9.703  11.430  19.093  0.00  0.00    +0.000 NA
BRANCH   8  10
ATOM      9  C   UNL     1       8.977  11.578  21.531  0.00  0.00    +0.000 C 
ATOM     10  C   UNL     1       9.242  12.280  20.207  0.00  0.00    +0.000 C 
ENDBRANCH   8  10
BRANCH   8  11
ATOM     11  C   UNL     1      11.168  11.430  18.920  0.00  0.00    +0.000 C 
ATOM     12  C   UNL     1      11.909  12.668  19.420  0.00  0.00    +0.000 C 
ENDBRANCH   8  11
ENDBRANCH   7   8
ENDBRANCH   6   7
ENDBRANCH   5   6
ENDBRANCH   1   5
BRANCH   2  13
ATOM     13  C   UNL     1       5.482   6.119  16.186  0.00  0.00    +0.000 C 
BRANCH  13  14
ATOM     14  C   UNL     1       4.294   6.131  17.145  0.00  0.00    +0.000 C 
BRANCH  14  15
ATOM     15  C   UNL     1       3.920   4.754  17.584  0.00  0.00    +0.000 A 
ATOM     16  C   UNL     1       4.438   3.574  17.084  0.00  0.00    +0.000 A 
ATOM     17  N   UNL     1       3.871   2.533  17.768  0.00  0.00    +0.000 N 
ATOM     18  C   UNL     1       2.976   3.003  18.698  0.00  0.00    +0.000 A 
ATOM     19  C   UNL     1       2.177   2.309  19.613  0.00  0.00    +0.000 A 
ATOM     20  C   UNL     1       1.329   3.056  20.435  0.00  0.00    +0.000 A 
ATOM     21  C   UNL     1       1.287   4.445  20.344  0.00  0.00    +0.000 A 
ATOM     22  C   UNL     1       2.103   5.128  19.433  0.00  0.00    +0.000 A 
ATOM     23  C   UNL     1       2.970   4.397  18.593  0.00  0.00    +0.000 A 
ATOM     24  H   UNL     1       4.071   1.555  17.610  0.00  0.00    +0.000 HD
ENDBRANCH  14  15
ENDBRANCH  13  14
ENDBRANCH   2  13
TORSDOF 9
ENDMDL
MODEL 3
REMARK VINA RESULT:      -6.9      1.256      1.864
REMARK  Name = 
REMARK  11 active torsions:
REMARK  status: ('A' for Active; 'I' for Inactive)
REMARK    1  A    between atoms: C_1  and  C_2
REMARK    2  A    between atoms: C_2  and  N_3
REMARK    3  A    between atoms: N_3  and  C_4
REMARK    4  A    between atoms: N_3  and  C_6
REMARK    5  A    between atoms: C_4  and  C_5
REMARK    6  A    between atoms: C_6  and  C_7
REMARK    7  A    between atoms: C_7  and  C_8
REMARK    8  A    between atoms: C_8  and  N_9
REMARK    9  A    between atoms: C_10  and  C_12
REMARK   10  A    between atoms: C_12  and  C_13
REMARK   11  A    between atoms: C_13  and  C_14
REMARK                            x       y       z     vdW  Elec       q    Type
REMARK                         _______ _______ _______ _____ _____    ______ ____
ROOT
ATOM      1  N   UNL     1       7.258   7.847  17.336  0.00  0.00    +0.000 N 
ATOM      2  C   UNL     1       6.674   6.614  17.495  0.00  0.00    +0.000 C 
ATOM      3  O   UNL     1       7.046   5.795  18.334  0.00  0.00    +0.000 OA
ATOM      4  H   UNL     1       6.985   8.444  16.565  0.00  0.00    +0.000 HD
ENDROOT
BRANCH   1   5
ATOM      5  C   UNL     1       8.378   8.273  18.151  0.00  0.00    +0.000 C 
BRANCH   5   6
ATOM      6  C   UNL     1       8.519   9.792  18.193  0.00  0.00    +0.000 C 
BRANCH   6   7
ATOM      7  C   UNL     1       9.276  10.305  19.433  0.00  0.00    +0.000 C 
BRANCH   7   8
ATOM      8  N   UNL     1      10.442  11.164  19.136  0.00  0.00    +0.000 NA
BRANCH   8  10
ATOM      9  C   UNL     1      10.851  12.944  17.359  0.00  0.00    +0.000 C 
ATOM     10  C   UNL     1      10.470  11.511  17.703  0.00  0.00    +0.000 C 
ENDBRANCH   8  10
BRANCH   8  11
ATOM     11  C   UNL     1      10.492  12.339  20.028  0.00  0.00    +0.000 C 
ATOM     12  C   UNL     1       9.748  12.213  21.355  0.00  0.00    +0.000 C 
ENDBRANCH   8  11
ENDBRANCH   7   8
ENDBRANCH   6   7
ENDBRANCH   5   6
ENDBRANCH   1   5
BRANCH   2  13
ATOM     13  C   UNL     1       5.562   6.337  16.513  0.00  0.00    +0.000 C 
BRANCH  13  14
ATOM     14  C   UNL     1       4.203   6.404  17.206  0.00  0.00    +0.000 C 
BRANCH  14  15
ATOM     15  C   UNL     1       3.706   5.048  17.587  0.00  0.00    +0.000 A 
ATOM     16  C   UNL     1       4.015   3.861  16.950  0.00  0.00    +0.000 A 
ATOM     17  N   UNL     1       3.397   2.840  17.620  0.00  0.00    +0.000 N 
ATOM     18  C   UNL     1       2.673   3.333  18.678  0.00  0.00    +0.000 A 
ATOM     19  C   UNL     1       1.894   2.664  19.628  0.00  0.00    +0.000 A 
ATOM     20  C   UNL     1       1.240   3.435  20.593  0.00  0.00    +0.000 A 
ATOM     21  C   UNL     1       1.364   4.822  20.605  0.00  0.00    +0.000 A 
ATOM     22  C   UNL     1       2.159   5.477  19.656  0.00  0.00    +0.000 A 
ATOM     23  C   UNL     1       2.832   4.722  18.673  0.00  0.00    +0.000 A 
ATOM     24  H   UNL     1       3.455   1.863  17.373  0.00  0.00    +0.000 HD
ENDBRANCH  14  15
ENDBRANCH  13  14
ENDBRANCH   2  13
TORSDOF 9
ENDMDL
MODEL 4
REMARK VINA RESULT:      -6.8      4.361      7.429
REMARK  Name = 
REMARK  11 active torsions:
REMARK  status: ('A' for Active; 'I' for Inactive)
REMARK    1  A    between atoms: C_1  and  C_2
REMARK    2  A    between atoms: C_2  and  N_3
REMARK    3  A    between atoms: N_3  and  C_4
REMARK    4  A    between atoms: N_3  and  C_6
REMARK    5  A    between atoms: C_4  and  C_5
REMARK    6  A    between atoms: C_6  and  C_7
REMARK    7  A    between atoms: C_7  and  C_8
REMARK    8  A    between atoms: C_8  and  N_9
REMARK    9  A    between atoms: C_10  and  C_12
REMARK   10  A    between atoms: C_12  and  C_13
REMARK   11  A    between atoms: C_13  and  C_14
REMARK                            x       y       z     vdW  Elec       q    Type
REMARK                         _______ _______ _______ _____ _____    ______ ____
ROOT
ATOM      1  N   UNL     1       7.170   4.495  16.145  0.00  0.00    +0.000 N 
ATOM      2  C   UNL     1       7.397   5.493  17.062  0.00  0.00    +0.000 C 
ATOM      3  O   UNL     1       7.562   6.670  16.749  0.00  0.00    +0.000 OA
ATOM      4  H   UNL     1       7.143   3.527  16.442  0.00  0.00    +0.000 HD
ENDROOT
BRANCH   1   5
ATOM      5  C   UNL     1       7.119   4.762  14.722  0.00  0.00    +0.000 C 
BRANCH   5   6
ATOM      6  C   UNL     1       5.956   4.047  14.039  0.00  0.00    +0.000 C 
BRANCH   6   7
ATOM      7  C   UNL     1       6.265   3.612  12.594  0.00  0.00    +0.000 C 
BRANCH   7   8
ATOM      8  N   UNL     1       5.191   2.836  11.938  0.00  0.00    +0.000 NA
BRANCH   8  10
ATOM      9  C   UNL     1       3.130   3.114  10.465  0.00  0.00    +0.000 C 
ATOM     10  C   UNL     1       4.416   3.701  11.029  0.00  0.00    +0.000 C 
ENDBRANCH   8  10
BRANCH   8  11
ATOM     11  C   UNL     1       5.719   1.621  11.287  0.00  0.00    +0.000 C 
ATOM     12  C   UNL     1       7.215   1.612  10.982  0.00  0.00    +0.000 C 
ENDBRANCH   8  11
ENDBRANCH   7   8
ENDBRANCH   6   7
ENDBRANCH   5   6
ENDBRANCH   1   5
BRANCH   2  13
ATOM     13  C   UNL     1       7.471   5.003  18.488  0.00  0.00    +0.000 C 
BRANCH  13  14
ATOM     14  C   UNL     1       6.359   5.623  19.329  0.00  0.00    +0.000 C 
BRANCH  14  15
ATOM     15  C   UNL     1       5.017   5.441  18.698  0.00  0.00    +0.000 A 
ATOM     16  C   UNL     1       4.252   6.433  18.116  0.00  0.00    +0.000 A 
ATOM     17  N   UNL     1       3.112   5.861  17.620  0.00  0.00    +0.000 N 
ATOM     18  C   UNL     1       3.103   4.512  17.879  0.00  0.00    +0.000 A 
ATOM     19  C   UNL     1       2.152   3.537  17.558  0.00  0.00    +0.000 A 
ATOM     20  C   UNL     1       2.398   2.226  17.973  0.00  0.00    +0.000 A 
ATOM     21  C   UNL     1       3.553   1.905  18.681  0.00  0.00    +0.000 A 
ATOM     22  C   UNL     1       4.503   2.888  18.984  0.00  0.00    +0.000 A 
ATOM     23  C   UNL     1       4.281   4.219  18.573  0.00  0.00    +0.000 A 
ATOM     24  H   UNL     1       2.374   6.356  17.139  0.00  0.00    +0.000 HD
ENDBRANCH  14  15
ENDBRANCH  13  14
ENDBRANCH   2  13
TORSDOF 9
ENDMDL
MODEL 5
REMARK VINA RESULT:      -6.7      1.321      1.556
REMARK  Name = 
REMARK  11 active torsions:
REMARK  status: ('A' for Active; 'I' for Inactive)
REMARK    1  A    between atoms: C_1  and  C_2
REMARK    2  A    between atoms: C_2  and  N_3
REMARK    3  A    between atoms: N_3  and  C_4
REMARK    4  A    between atoms: N_3  and  C_6
REMARK    5  A    between atoms: C_4  and  C_5
REMARK    6  A    between atoms: C_6  and  C_7
REMARK    7  A    between atoms: C_7  and  C_8
REMARK    8  A    between atoms: C_8  and  N_9
REMARK    9  A    between atoms: C_10  and  C_12
REMARK   10  A    between atoms: C_12  and  C_13
REMARK   11  A    between atoms: C_13  and  C_14
REMARK                            x       y       z     vdW  Elec       q    Type
REMARK                         _______ _______ _______ _____ _____    ______ ____
ROOT
ATOM      1  N   UNL     1       6.802   7.607  17.569  0.00  0.00    +0.000 N 
ATOM      2  C   UNL     1       6.624   6.581  16.672  0.00  0.00    +0.000 C 
ATOM      3  O   UNL     1       7.548   6.066  16.046  0.00  0.00    +0.000 OA
ATOM      4  H   UNL     1       6.000   8.067  17.982  0.00  0.00    +0.000 HD
ENDROOT
BRANCH   1   5
ATOM      5  C   UNL     1       8.110   8.169  17.839  0.00  0.00    +0.000 C 
BRANCH   5   6
ATOM      6  C   UNL     1       8.074   9.688  17.965  0.00  0.00    +0.000 C 
BRANCH   6   7
ATOM      7  C   UNL     1       9.401  10.297  18.458  0.00  0.00    +0.000 C 
BRANCH   7   8
ATOM      8  N   UNL     1       9.256  11.522  19.272  0.00  0.00    +0.000 NA
BRANCH   8  10
ATOM      9  C   UNL     1       9.631  12.335  21.658  0.00  0.00    +0.000 C 
ATOM     10  C   UNL     1       9.308  11.191  20.709  0.00  0.00    +0.000 C 
ENDBRANCH   8  10
BRANCH   8  11
ATOM     11  C   UNL     1      10.227  12.559  18.872  0.00  0.00    +0.000 C 
ATOM     12  C   UNL     1      10.361  12.818  17.373  0.00  0.00    +0.000 C 
ENDBRANCH   8  11
ENDBRANCH   7   8
ENDBRANCH   6   7
ENDBRANCH   5   6
ENDBRANCH   1   5
BRANCH   2  13
ATOM     13  C   UNL     1       5.182   6.177  16.490  0.00  0.00    +0.000 C 
BRANCH  13  14
ATOM     14  C   UNL     1       4.409   6.334  17.797  0.00  0.00    +0.000 C 
BRANCH  14  15
ATOM     15  C   UNL     1       4.349   5.055  18.564  0.00  0.00    +0.000 A 
ATOM     16  C   UNL     1       5.342   4.096  18.623  0.00  0.00    +0.000 A 
ATOM     17  N   UNL     1       4.924   3.095  19.457  0.00  0.00    +0.000 N 
ATOM     18  C   UNL     1       3.666   3.367  19.936  0.00  0.00    +0.000 A 
ATOM     19  C   UNL     1       2.856   2.635  20.811  0.00  0.00    +0.000 A 
ATOM     20  C   UNL     1       1.592   3.149  21.111  0.00  0.00    +0.000 A 
ATOM     21  C   UNL     1       1.159   4.352  20.559  0.00  0.00    +0.000 A 
ATOM     22  C   UNL     1       1.987   5.081  19.696  0.00  0.00    +0.000 A 
ATOM     23  C   UNL     1       3.269   4.585  19.378  0.00  0.00    +0.000 A 
ATOM     24  H   UNL     1       5.456   2.267  19.684  0.00  0.00    +0.000 HD
ENDBRANCH  14  15
ENDBRANCH  13  14
ENDBRANCH   2  13
TORSDOF 9
ENDMDL
MODEL 6
REMARK VINA RESULT:      -6.6      4.502      7.621
REMARK  Name = 
REMARK  11 active torsions:
REMARK  status: ('A' for Active; 'I' for Inactive)
REMARK    1  A    between atoms: C_1  and  C_2
REMARK    2  A    between atoms: C_2  and  N_3
REMARK    3  A    between atoms: N_3  and  C_4
REMARK    4  A    between atoms: N_3  and  C_6
REMARK    5  A    between atoms: C_4  and  C_5
REMARK    6  A    between atoms: C_6  and  C_7
REMARK    7  A    between atoms: C_7  and  C_8
REMARK    8  A    between atoms: C_8  and  N_9
REMARK    9  A    between atoms: C_10  and  C_12
REMARK   10  A    between atoms: C_12  and  C_13
REMARK   11  A    between atoms: C_13  and  C_14
REMARK                            x       y       z     vdW  Elec       q    Type
REMARK                         _______ _______ _______ _____ _____    ______ ____
ROOT
ATOM      1  N   UNL     1       5.980   5.018  15.571  0.00  0.00    +0.000 N 
ATOM      2  C   UNL     1       6.474   6.012  16.381  0.00  0.00    +0.000 C 
ATOM      3  O   UNL     1       7.654   6.360  16.376  0.00  0.00    +0.000 OA
ATOM      4  H   UNL     1       5.027   4.697  15.685  0.00  0.00    +0.000 HD
ENDROOT
BRANCH   1   5
ATOM      5  C   UNL     1       6.828   4.291  14.649  0.00  0.00    +0.000 C 
BRANCH   5   6
ATOM      6  C   UNL     1       6.472   4.570  13.192  0.00  0.00    +0.000 C 
BRANCH   6   7
ATOM      7  C   UNL     1       6.625   3.340  12.275  0.00  0.00    +0.000 C 
BRANCH   7   8
ATOM      8  N   UNL     1       5.371   2.600  12.016  0.00  0.00    +0.000 NA
BRANCH   8  10
ATOM      9  C   UNL     1       3.522   3.372  10.442  0.00  0.00    +0.000 C 
ATOM     10  C   UNL     1       4.265   3.541  11.759  0.00  0.00    +0.000 C 
ENDBRANCH   8  10
BRANCH   8  11
ATOM     11  C   UNL     1       5.546   1.592  10.953  0.00  0.00    +0.000 C 
ATOM     12  C   UNL     1       6.316   0.331  11.337  0.00  0.00    +0.000 C 
ENDBRANCH   8  11
ENDBRANCH   7   8
ENDBRANCH   6   7
ENDBRANCH   5   6
ENDBRANCH   1   5
BRANCH   2  13
ATOM     13  C   UNL     1       5.445   6.607  17.310  0.00  0.00    +0.000 C 
BRANCH  13  14
ATOM     14  C   UNL     1       4.057   6.053  17.002  0.00  0.00    +0.000 C 
BRANCH  14  15
ATOM     15  C   UNL     1       3.259   5.831  18.245  0.00  0.00    +0.000 A 
ATOM     16  C   UNL     1       3.149   6.708  19.307  0.00  0.00    +0.000 A 
ATOM     17  N   UNL     1       2.302   6.160  20.232  0.00  0.00    +0.000 N 
ATOM     18  C   UNL     1       1.864   4.930  19.807  0.00  0.00    +0.000 A 
ATOM     19  C   UNL     1       0.994   4.021  20.419  0.00  0.00    +0.000 A 
ATOM     20  C   UNL     1       0.741   2.816  19.759  0.00  0.00    +0.000 A 
ATOM     21  C   UNL     1       1.336   2.535  18.531  0.00  0.00    +0.000 A 
ATOM     22  C   UNL     1       2.194   3.460  17.923  0.00  0.00    +0.000 A 
ATOM     23  C   UNL     1       2.464   4.685  18.568  0.00  0.00    +0.000 A 
ATOM     24  H   UNL     1       2.040   6.590  21.107  0.00  0.00    +0.000 HD
ENDBRANCH  14  15
ENDBRANCH  13  14
ENDBRANCH   2  13
TORSDOF 9
ENDMDL
MODEL 7
REMARK VINA RESULT:      -6.6      1.569      2.078
REMARK  Name = 
REMARK  11 active torsions:
REMARK  status: ('A' for Active; 'I' for Inactive)
REMARK    1  A    between atoms: C_1  and  C_2
REMARK    2  A    between atoms: C_2  and  N_3
REMARK    3  A    between atoms: N_3  and  C_4
REMARK    4  A    between atoms: N_3  and  C_6
REMARK    5  A    between atoms: C_4  and  C_5
REMARK    6  A    between atoms: C_6  and  C_7
REMARK    7  A    between atoms: C_7  and  C_8
REMARK    8  A    between atoms: C_8  and  N_9
REMARK    9  A    between atoms: C_10  and  C_12
REMARK   10  A    between atoms: C_12  and  C_13
REMARK   11  A    between atoms: C_13  and  C_14
REMARK                            x       y       z     vdW  Elec       q    Type
REMARK                         _______ _______ _______ _____ _____    ______ ____
ROOT
ATOM      1  N   UNL     1       7.042   6.748  17.997  0.00  0.00    +0.000 N 
ATOM      2  C   UNL     1       6.785   6.139  16.792  0.00  0.00    +0.000 C 
ATOM      3  O   UNL     1       7.560   6.180  15.838  0.00  0.00    +0.000 OA
ATOM      4  H   UNL     1       6.329   6.774  18.715  0.00  0.00    +0.000 HD
ENDROOT
BRANCH   1   5
ATOM      5  C   UNL     1       8.257   7.501  18.229  0.00  0.00    +0.000 C 
BRANCH   5   6
ATOM      6  C   UNL     1       8.062   8.999  18.014  0.00  0.00    +0.000 C 
BRANCH   6   7
ATOM      7  C   UNL     1       8.909   9.872  18.960  0.00  0.00    +0.000 C 
BRANCH   7   8
ATOM      8  N   UNL     1       9.183  11.237  18.464  0.00  0.00    +0.000 NA
BRANCH   8  10
ATOM      9  C   UNL     1       9.606  11.597  20.951  0.00  0.00    +0.000 C 
ATOM     10  C   UNL     1       9.260  12.186  19.591  0.00  0.00    +0.000 C 
ENDBRANCH   8  10
BRANCH   8  11
ATOM     11  C   UNL     1      10.368  11.269  17.585  0.00  0.00    +0.000 C 
ATOM     12  C   UNL     1      11.254  12.508  17.689  0.00  0.00    +0.000 C 
ENDBRANCH   8  11
ENDBRANCH   7   8
ENDBRANCH   6   7
ENDBRANCH   5   6
ENDBRANCH   1   5
BRANCH   2  13
ATOM     13  C   UNL     1       5.441   5.454  16.731  0.00  0.00    +0.000 C 
BRANCH  13  14
ATOM     14  C   UNL     1       4.315   6.454  16.981  0.00  0.00    +0.000 C 
BRANCH  14  15
ATOM     15  C   UNL     1       3.493   6.078  18.169  0.00  0.00    +0.000 A 
ATOM     16  C   UNL     1       3.329   6.832  19.315  0.00  0.00    +0.000 A 
ATOM     17  N   UNL     1       2.475   6.165  20.150  0.00  0.00    +0.000 N 
ATOM     18  C   UNL     1       2.085   4.976  19.584  0.00  0.00    +0.000 A 
ATOM     19  C   UNL     1       1.227   3.983  20.070  0.00  0.00    +0.000 A 
ATOM     20  C   UNL     1       1.028   2.850  19.277  0.00  0.00    +0.000 A 
ATOM     21  C   UNL     1       1.663   2.719  18.044  0.00  0.00    +0.000 A 
ATOM     22  C   UNL     1       2.508   3.727  17.564  0.00  0.00    +0.000 A 
ATOM     23  C   UNL     1       2.724   4.883  18.344  0.00  0.00    +0.000 A 
ATOM     24  H   UNL     1       2.176   6.491  21.059  0.00  0.00    +0.000 HD
ENDBRANCH  14  15
ENDBRANCH  13  14
ENDBRANCH   2  13
TORSDOF 9
ENDMDL
MODEL 8
REMARK VINA RESULT:      -6.5      1.240      1.952
REMARK  Name = 
REMARK  11 active torsions:
REMARK  status: ('A' for Active; 'I' for Inactive)
REMARK    1  A    between atoms: C_1  and  C_2
REMARK    2  A    between atoms: C_2  and  N_3
REMARK    3  A    between atoms: N_3  and  C_4
REMARK    4  A    between atoms: N_3  and  C_6
REMARK    5  A    between atoms: C_4  and  C_5
REMARK    6  A    between atoms: C_6  and  C_7
REMARK    7  A    between atoms: C_7  and  C_8
REMARK    8  A    between atoms: C_8  and  N_9
REMARK    9  A    between atoms: C_10  and  C_12
REMARK   10  A    between atoms: C_12  and  C_13
REMARK   11  A    between atoms: C_13  and  C_14
REMARK                            x       y       z     vdW  Elec       q    Type
REMARK                         _______ _______ _______ _____ _____    ______ ____
ROOT
ATOM      1  N   UNL     1       7.898   7.396  18.268  0.00  0.00    +0.000 N 
ATOM      2  C   UNL     1       7.272   6.504  17.431  0.00  0.00    +0.000 C 
ATOM      3  O   UNL     1       6.863   6.805  16.311  0.00  0.00    +0.000 OA
ATOM      4  H   UNL     1       8.124   7.128  19.218  0.00  0.00    +0.000 HD
ENDROOT
BRANCH   1   5
ATOM      5  C   UNL     1       8.116   8.776  17.889  0.00  0.00    +0.000 C 
BRANCH   5   6
ATOM      6  C   UNL     1       9.012   9.515  18.879  0.00  0.00    +0.000 C 
BRANCH   6   7
ATOM      7  C   UNL     1       8.805  11.042  18.875  0.00  0.00    +0.000 C 
BRANCH   7   8
ATOM      8  N   UNL     1      10.006  11.829  18.522  0.00  0.00    +0.000 NA
BRANCH   8  10
ATOM      9  C   UNL     1       8.136  13.235  17.510  0.00  0.00    +0.000 C 
ATOM     10  C   UNL     1       9.620  13.054  17.796  0.00  0.00    +0.000 C 
ENDBRANCH   8  10
BRANCH   8  11
ATOM     11  C   UNL     1      10.853  12.086  19.702  0.00  0.00    +0.000 C 
ATOM     12  C   UNL     1      12.333  11.738  19.561  0.00  0.00    +0.000 C 
ENDBRANCH   8  11
ENDBRANCH   7   8
ENDBRANCH   6   7
ENDBRANCH   5   6
ENDBRANCH   1   5
BRANCH   2  13
ATOM     13  C   UNL     1       7.090   5.131  18.031  0.00  0.00    +0.000 C 
BRANCH  13  14
ATOM     14  C   UNL     1       5.811   4.481  17.509  0.00  0.00    +0.000 C 
BRANCH  14  15
ATOM     15  C   UNL     1       4.664   4.682  18.445  0.00  0.00    +0.000 A 
ATOM     16  C   UNL     1       4.544   5.695  19.376  0.00  0.00    +0.000 A 
ATOM     17  N   UNL     1       3.339   5.557  20.009  0.00  0.00    +0.000 N 
ATOM     18  C   UNL     1       2.668   4.461  19.524  0.00  0.00    +0.000 A 
ATOM     19  C   UNL     1       1.415   3.944  19.869  0.00  0.00    +0.000 A 
ATOM     20  C   UNL     1       0.987   2.784  19.217  0.00  0.00    +0.000 A 
ATOM     21  C   UNL     1       1.784   2.169  18.255  0.00  0.00    +0.000 A 
ATOM     22  C   UNL     1       3.030   2.706  17.909  0.00  0.00    +0.000 A 
ATOM     23  C   UNL     1       3.484   3.877  18.551  0.00  0.00    +0.000 A 
ATOM     24  H   UNL     1       2.990   6.165  20.736  0.00  0.00    +0.000 HD
ENDBRANCH  14  15
ENDBRANCH  13  14
ENDBRANCH   2  13
TORSDOF 9
ENDMDL
MODEL 9
REMARK VINA RESULT:      -6.5      1.571      9.453
REMARK  Name = 
REMARK  11 active torsions:
REMARK  status: ('A' for Active; 'I' for Inactive)
REMARK    1  A    between atoms: C_1  and  C_2
REMARK    2  A    between atoms: C_2  and  N_3
REMARK    3  A    between atoms: N_3  and  C_4
REMARK    4  A    between atoms: N_3  and  C_6
REMARK    5  A    between atoms: C_4  and  C_5
REMARK    6  A    between atoms: C_6  and  C_7
REMARK    7  A    between atoms: C_7  and  C_8
REMARK    8  A    between atoms: C_8  and  N_9
REMARK    9  A    between atoms: C_10  and  C_12
REMARK   10  A    between atoms: C_12  and  C_13
REMARK   11  A    between atoms: C_13  and  C_14
REMARK                            x       y       z     vdW  Elec       q    Type
REMARK                         _______ _______ _______ _____ _____    ______ ____
ROOT
ATOM      1  N   UNL     1       6.010   7.447  17.685  0.00  0.00    +0.000 N 
ATOM      2  C   UNL     1       7.348   7.334  17.392  0.00  0.00    +0.000 C 
ATOM      3  O   UNL     1       7.778   6.657  16.460  0.00  0.00    +0.000 OA
ATOM      4  H   UNL     1       5.713   7.931  18.523  0.00  0.00    +0.000 HD
ENDROOT
BRANCH   1   5
ATOM      5  C   UNL     1       4.997   6.759  16.913  0.00  0.00    +0.000 C 
BRANCH   5   6
ATOM      6  C   UNL     1       4.684   5.374  17.470  0.00  0.00    +0.000 C 
BRANCH   6   7
ATOM      7  C   UNL     1       4.450   5.361  18.993  0.00  0.00    +0.000 C 
BRANCH   7   8
ATOM      8  N   UNL     1       3.998   4.065  19.541  0.00  0.00    +0.000 NA
BRANCH   8  10
ATOM      9  C   UNL     1       2.111   5.597  20.305  0.00  0.00    +0.000 C 
ATOM     10  C   UNL     1       2.628   4.185  20.076  0.00  0.00    +0.000 C 
ENDBRANCH   8  10
BRANCH   8  11
ATOM     11  C   UNL     1       4.153   2.976  18.557  0.00  0.00    +0.000 C 
ATOM     12  C   UNL     1       3.056   1.913  18.545  0.00  0.00    +0.000 C 
ENDBRANCH   8  11
ENDBRANCH   7   8
ENDBRANCH   6   7
ENDBRANCH   5   6
ENDBRANCH   1   5
BRANCH   2  13
ATOM     13  C   UNL     1       8.245   8.081  18.348  0.00  0.00    +0.000 C 
BRANCH  13  14
ATOM     14  C   UNL     1       8.362   9.548  17.943  0.00  0.00    +0.000 C 
BRANCH  14  15
ATOM     15  C   UNL     1       9.161  10.335  18.929  0.00  0.00    +0.000 A 
ATOM     16  C   UNL     1       9.020  10.297  20.303  0.00  0.00    +0.000 A 
ATOM     17  N   UNL     1       9.957  11.128  20.855  0.00  0.00    +0.000 N 
ATOM     18  C   UNL     1      10.703  11.726  19.869  0.00  0.00    +0.000 A 
ATOM     19  C   UNL     1      11.762  12.636  19.965  0.00  0.00    +0.000 A 
ATOM     20  C   UNL     1      12.328  13.104  18.776  0.00  0.00    +0.000 A 
ATOM     21  C   UNL     1      11.852  12.674  17.540  0.00  0.00    +0.000 A 
ATOM     22  C   UNL     1      10.801  11.752  17.459  0.00  0.00    +0.000 A 
ATOM     23  C   UNL     1      10.214  11.262  18.645  0.00  0.00    +0.000 A 
ATOM     24  H   UNL     1      10.082  11.289  21.844  0.00  0.00    +0.000 HD
ENDBRANCH  14  15
ENDBRANCH  13  14
ENDBRANCH   2  13
TORSDOF 9
ENDMDL
