MODEL 1
REMARK VINA RESULT:      -4.3      0.000      0.000
REMARK  Name = 
REMARK  2 active torsions:
REMARK  status: ('A' for Active; 'I' for Inactive)
REMARK    1  A    between atoms: S_2  and  O_4
REMARK    2  A    between atoms: S_2  and  C_5
REMARK                            x       y       z     vdW  Elec       q    Type
REMARK                         _______ _______ _______ _____ _____    ______ ____
ROOT
ATOM      1  O   UNL     1       5.226   5.467  19.203  0.00  0.00    +0.000 OA
ATOM      2  S   UNL     1       6.662   5.461  19.000  0.00  0.00    +0.000 S 
ATOM      3  O   UNL     1       7.549   5.420  20.147  0.00  0.00    +0.000 OA
ENDROOT
BRANCH   2   4
ATOM      4  C   UNL     1       7.195   6.744  17.750  0.00  0.00    +0.000 C 
ATOM      5  F   UNL     1       7.588   6.189  16.568  0.00  0.00    +0.000 F 
ATOM      6  F   UNL     1       6.192   7.619  17.455  0.00  0.00    +0.000 F 
ATOM      7  F   UNL     1       8.244   7.491  18.198  0.00  0.00    +0.000 F 
ENDBRANCH   2   4
BRANCH   2   8
ATOM      8  O   UNL     1       6.966   4.090  18.183  0.00  0.00    +0.000 OA
ATOM      9  H   UNL     1       6.305   4.006  17.464  0.00  0.00    +0.000 HD
ENDBRANCH   2   8
TORSDOF 2
ENDMDL
MODEL 2
REMARK VINA RESULT:      -4.3      3.008      3.674
REMARK  Name = 
REMARK  2 active torsions:
REMARK  status: ('A' for Active; 'I' for Inactive)
REMARK    1  A    between atoms: S_2  and  O_4
REMARK    2  A    between atoms: S_2  and  C_5
REMARK                            x       y       z     vdW  Elec       q    Type
REMARK                         _______ _______ _______ _____ _____    ______ ____
ROOT
ATOM      1  O   UNL     1       7.790   4.378  16.605  0.00  0.00    +0.000 OA
ATOM      2  S   UNL     1       6.999   4.834  15.478  0.00  0.00    +0.000 S 
ATOM      3  O   UNL     1       7.656   5.455  14.344  0.00  0.00    +0.000 OA
ENDROOT
BRANCH   2   4
ATOM      4  C   UNL     1       5.493   5.795  16.026  0.00  0.00    +0.000 C 
ATOM      5  F   UNL     1       4.999   6.597  15.040  0.00  0.00    +0.000 F 
ATOM      6  F   UNL     1       4.474   4.975  16.410  0.00  0.00    +0.000 F 
ATOM      7  F   UNL     1       5.763   6.606  17.089  0.00  0.00    +0.000 F 
ENDBRANCH   2   4
BRANCH   2   8
ATOM      8  O   UNL     1       6.306   3.492  14.880  0.00  0.00    +0.000 OA
ATOM      9  H   UNL     1       6.345   2.792  15.565  0.00  0.00    +0.000 HD
ENDBRANCH   2   8
TORSDOF 2
ENDMDL
MODEL 3
REMARK VINA RESULT:      -4.3      1.754      2.535
REMARK  Name = 
REMARK  2 active torsions:
REMARK  status: ('A' for Active; 'I' for Inactive)
REMARK    1  A    between atoms: S_2  and  O_4
REMARK    2  A    between atoms: S_2  and  C_5
REMARK                            x       y       z     vdW  Elec       q    Type
REMARK                         _______ _______ _______ _____ _____    ______ ____
ROOT
ATOM      1  O   UNL     1       7.552   4.789  15.535  0.00  0.00    +0.000 OA
ATOM      2  S   UNL     1       7.130   4.815  16.923  0.00  0.00    +0.000 S 
ATOM      3  O   UNL     1       5.897   4.158  17.311  0.00  0.00    +0.000 OA
ENDROOT
BRANCH   2   4
ATOM      4  C   UNL     1       7.274   6.525  17.663  0.00  0.00    +0.000 C 
ATOM      5  F   UNL     1       6.061   7.124  17.834  0.00  0.00    +0.000 F 
ATOM      6  F   UNL     1       7.875   6.504  18.887  0.00  0.00    +0.000 F 
ATOM      7  F   UNL     1       8.014   7.361  16.880  0.00  0.00    +0.000 F 
ENDBRANCH   2   4
BRANCH   2   8
ATOM      8  O   UNL     1       8.299   4.030  17.733  0.00  0.00    +0.000 OA
ATOM      9  H   UNL     1       7.927   3.713  18.582  0.00  0.00    +0.000 HD
ENDBRANCH   2   8
TORSDOF 2
ENDMDL
MODEL 4
REMARK VINA RESULT:      -4.3      1.717      2.383
REMARK  Name = 
REMARK  2 active torsions:
REMARK  status: ('A' for Active; 'I' for Inactive)
REMARK    1  A    between atoms: S_2  and  O_4
REMARK    2  A    between atoms: S_2  and  C_5
REMARK                            x       y       z     vdW  Elec       q    Type
REMARK                         _______ _______ _______ _____ _____    ______ ____
ROOT
ATOM      1  O   UNL     1       8.478   4.011  17.822  0.00  0.00    +0.000 OA
ATOM      2  S   UNL     1       7.455   4.749  17.105  0.00  0.00    +0.000 S 
ATOM      3  O   UNL     1       7.421   4.704  15.656  0.00  0.00    +0.000 OA
ENDROOT
BRANCH   2   4
ATOM      4  C   UNL     1       7.266   6.490  17.756  0.00  0.00    +0.000 C 
ATOM      5  F   UNL     1       7.901   7.410  16.975  0.00  0.00    +0.000 F 
ATOM      6  F   UNL     1       5.959   6.871  17.825  0.00  0.00    +0.000 F 
ATOM      7  F   UNL     1       7.778   6.625  19.013  0.00  0.00    +0.000 F 
ENDBRANCH   2   4
BRANCH   2   8
ATOM      8  O   UNL     1       6.049   4.088  17.580  0.00  0.00    +0.000 OA
ATOM      9  H   UNL     1       5.642   4.676  18.250  0.00  0.00    +0.000 HD
ENDBRANCH   2   8
TORSDOF 2
ENDMDL
MODEL 5
REMARK VINA RESULT:      -4.3      2.786      3.338
REMARK  Name = 
REMARK  2 active torsions:
REMARK  status: ('A' for Active; 'I' for Inactive)
REMARK    1  A    between atoms: S_2  and  O_4
REMARK    2  A    between atoms: S_2  and  C_5
REMARK                            x       y       z     vdW  Elec       q    Type
REMARK                         _______ _______ _______ _____ _____    ______ ____
ROOT
ATOM      1  O   UNL     1       6.178   3.588  15.034  0.00  0.00    +0.000 OA
ATOM      2  S   UNL     1       6.849   4.701  15.679  0.00  0.00    +0.000 S 
ATOM      3  O   UNL     1       7.836   4.444  16.710  0.00  0.00    +0.000 OA
ENDROOT
BRANCH   2   4
ATOM      4  C   UNL     1       5.650   6.044  16.177  0.00  0.00    +0.000 C 
ATOM      5  F   UNL     1       5.019   6.604  15.106  0.00  0.00    +0.000 F 
ATOM      6  F   UNL     1       4.672   5.577  17.006  0.00  0.00    +0.000 F 
ATOM      7  F   UNL     1       6.268   7.062  16.841  0.00  0.00    +0.000 F 
ENDBRANCH   2   4
BRANCH   2   8
ATOM      8  O   UNL     1       7.667   5.445  14.488  0.00  0.00    +0.000 OA
ATOM      9  H   UNL     1       7.158   6.236  14.212  0.00  0.00    +0.000 HD
ENDBRANCH   2   8
TORSDOF 2
ENDMDL
MODEL 6
REMARK VINA RESULT:      -4.3      2.785      3.460
REMARK  Name = 
REMARK  2 active torsions:
REMARK  status: ('A' for Active; 'I' for Inactive)
REMARK    1  A    between atoms: S_2  and  O_4
REMARK    2  A    between atoms: S_2  and  C_5
REMARK                            x       y       z     vdW  Elec       q    Type
REMARK                         _______ _______ _______ _____ _____    ______ ____
ROOT
ATOM      1  O   UNL     1       6.163   3.598  15.036  0.00  0.00    +0.000 OA
ATOM      2  S   UNL     1       6.849   4.708  15.670  0.00  0.00    +0.000 S 
ATOM      3  O   UNL     1       7.854   4.447  16.682  0.00  0.00    +0.000 OA
ENDROOT
BRANCH   2   4
ATOM      4  C   UNL     1       5.663   6.054  16.192  0.00  0.00    +0.000 C 
ATOM      5  F   UNL     1       6.288   7.076  16.844  0.00  0.00    +0.000 F 
ATOM      6  F   UNL     1       5.016   6.608  15.128  0.00  0.00    +0.000 F 
ATOM      7  F   UNL     1       4.698   5.587  17.035  0.00  0.00    +0.000 F 
ENDBRANCH   2   4
BRANCH   2   8
ATOM      8  O   UNL     1       7.648   5.452  14.466  0.00  0.00    +0.000 OA
ATOM      9  H   UNL     1       7.657   6.415  14.651  0.00  0.00    +0.000 HD
ENDBRANCH   2   8
TORSDOF 2
ENDMDL
MODEL 7
REMARK VINA RESULT:      -4.2      0.862      1.591
REMARK  Name = 
REMARK  2 active torsions:
REMARK  status: ('A' for Active; 'I' for Inactive)
REMARK    1  A    between atoms: S_2  and  O_4
REMARK    2  A    between atoms: S_2  and  C_5
REMARK                            x       y       z     vdW  Elec       q    Type
REMARK                         _______ _______ _______ _____ _____    ______ ____
ROOT
ATOM      1  O   UNL     1       6.102   4.324  18.789  0.00  0.00    +0.000 OA
ATOM      2  S   UNL     1       7.353   5.032  18.590  0.00  0.00    +0.000 S 
ATOM      3  O   UNL     1       8.187   5.351  19.732  0.00  0.00    +0.000 OA
ENDROOT
BRANCH   2   4
ATOM      4  C   UNL     1       7.151   6.493  17.442  0.00  0.00    +0.000 C 
ATOM      5  F   UNL     1       8.041   7.492  17.707  0.00  0.00    +0.000 F 
ATOM      6  F   UNL     1       7.331   6.146  16.135  0.00  0.00    +0.000 F 
ATOM      7  F   UNL     1       5.907   7.046  17.530  0.00  0.00    +0.000 F 
ENDBRANCH   2   4
BRANCH   2   8
ATOM      8  O   UNL     1       8.256   4.042  17.672  0.00  0.00    +0.000 OA
ATOM      9  H   UNL     1       8.466   4.504  16.833  0.00  0.00    +0.000 HD
ENDBRANCH   2   8
TORSDOF 2
ENDMDL
MODEL 8
REMARK VINA RESULT:      -4.2      2.879      3.647
REMARK  Name = 
REMARK  2 active torsions:
REMARK  status: ('A' for Active; 'I' for Inactive)
REMARK    1  A    between atoms: S_2  and  O_4
REMARK    2  A    between atoms: S_2  and  C_5
REMARK                            x       y       z     vdW  Elec       q    Type
REMARK                         _______ _______ _______ _____ _____    ______ ____
ROOT
ATOM      1  O   UNL     1       7.728   5.472  14.386  0.00  0.00    +0.000 OA
ATOM      2  S   UNL     1       6.851   4.820  15.340  0.00  0.00    +0.000 S 
ATOM      3  O   UNL     1       6.213   3.566  14.988  0.00  0.00    +0.000 OA
ENDROOT
BRANCH   2   4
ATOM      4  C   UNL     1       5.650   6.021  16.117  0.00  0.00    +0.000 C 
ATOM      5  F   UNL     1       4.974   6.757  15.189  0.00  0.00    +0.000 F 
ATOM      6  F   UNL     1       4.709   5.388  16.874  0.00  0.00    +0.000 F 
ATOM      7  F   UNL     1       6.276   6.912  16.939  0.00  0.00    +0.000 F 
ENDBRANCH   2   4
BRANCH   2   8
ATOM      8  O   UNL     1       7.800   4.468  16.611  0.00  0.00    +0.000 OA
ATOM      9  H   UNL     1       7.250   4.489  17.422  0.00  0.00    +0.000 HD
ENDBRANCH   2   8
TORSDOF 2
ENDMDL
MODEL 9
REMARK VINA RESULT:      -4.2      2.841      3.713
REMARK  Name = 
REMARK  2 active torsions:
REMARK  status: ('A' for Active; 'I' for Inactive)
REMARK    1  A    between atoms: S_2  and  O_4
REMARK    2  A    between atoms: S_2  and  C_5
REMARK                            x       y       z     vdW  Elec       q    Type
REMARK                         _______ _______ _______ _____ _____    ______ ____
ROOT
ATOM      1  O   UNL     1       7.707   5.453  14.408  0.00  0.00    +0.000 OA
ATOM      2  S   UNL     1       6.846   4.820  15.389  0.00  0.00    +0.000 S 
ATOM      3  O   UNL     1       6.205   3.558  15.073  0.00  0.00    +0.000 OA
ENDROOT
BRANCH   2   4
ATOM      4  C   UNL     1       5.655   6.036  16.159  0.00  0.00    +0.000 C 
ATOM      5  F   UNL     1       6.283   6.946  16.958  0.00  0.00    +0.000 F 
ATOM      6  F   UNL     1       4.970   6.748  15.220  0.00  0.00    +0.000 F 
ATOM      7  F   UNL     1       4.720   5.416  16.935  0.00  0.00    +0.000 F 
ENDBRANCH   2   4
BRANCH   2   8
ATOM      8  O   UNL     1       7.815   4.495  16.652  0.00  0.00    +0.000 OA
ATOM      9  H   UNL     1       7.738   5.230  17.296  0.00  0.00    +0.000 HD
ENDBRANCH   2   8
TORSDOF 2
ENDMDL
