MODEL 1
REMARK VINA RESULT:      -7.9      0.000      0.000
REMARK  Name = 
REMARK  7 active torsions:
REMARK  status: ('A' for Active; 'I' for Inactive)
REMARK    1  A    between atoms: CB_1  and  CA_2
REMARK    2  A    between atoms: CA_2  and  N_3
REMARK    3  A    between atoms: CA_2  and  C_24
REMARK    4  A    between atoms: C_4  and  C_6
REMARK    5  A    between atoms: C_9  and  C_10
REMARK    6  A    between atoms: C_10  and  N_11
REMARK    7  A    between atoms: C_24  and  OXT_26
REMARK                            x       y       z     vdW  Elec       q    Type
REMARK                         _______ _______ _______ _____ _____    ______ ____
ROOT
ATOM      1  C   UNK A   0       2.527   6.823  19.800  0.00  0.00    +0.000 C 
ATOM      2  C   UNK A   0       2.302   7.087  18.305  0.00  0.00    +0.000 C 
ATOM      3  C   UNK A   0       2.121   8.567  17.993  0.00  0.00    +0.000 C 
ATOM      4  C   UNK A   0       0.954   9.160  18.797  0.00  0.00    +0.000 C 
ATOM      5  C   UNK A   0       1.235   8.976  20.296  0.00  0.00    +0.000 C 
ATOM      6  C   UNK A   0       1.446   7.505  20.655  0.00  0.00    +0.000 C 
ENDROOT
BRANCH   1   8
ATOM      7  N   ALA A   1       3.069   4.562  19.048  0.00  0.00    +0.000 N 
ATOM      8  C   UNK A   0       2.525   5.317  20.068  0.00  0.00    +0.000 C 
ATOM      9  O   UNK A   0       2.117   4.813  21.107  0.00  0.00    +0.000 OA
ATOM     10  H   ALA A   1       3.016   4.947  18.109  0.00  0.00    +0.000 HD
BRANCH   7  12
ATOM     11  CB  ALA A   1       2.723   2.396  17.897  0.00  0.00    +0.000 C 
ATOM     12  CA  ALA A   1       3.155   3.098  19.175  0.00  0.00    +0.000 C 
BRANCH  12  13
ATOM     13  C   ALA A   1       4.588   2.717  19.580  0.00  0.00    +0.000 C 
ATOM     14  O   ALA A   1       4.885   1.910  20.443  0.00  0.00    +0.000 OA
BRANCH  13  15
ATOM     15  OXT ALA A   1       5.518   3.453  18.918  0.00  0.00    +0.000 OA
ATOM     16  HXT ALA A   1       5.833   2.952  18.134  0.00  0.00    +0.000 HD
ENDBRANCH  13  15
ENDBRANCH  12  13
ENDBRANCH   7  12
ENDBRANCH   1   8
BRANCH   4  17
ATOM     17  C   UNK A   0       0.706  10.645  18.466  0.00  0.00    +0.000 C 
BRANCH  17  18
ATOM     18  N   UNK A   0      -0.667  11.059  18.744  0.00  0.00    +0.000 N 
ATOM     19  C   UNK A   0      -0.928  11.900  19.801  0.00  0.00    +0.000 A 
ATOM     20  N   UNK A   0      -2.089  12.361  20.117  0.00  0.00    +0.000 NA
ATOM     21  C   UNK A   0      -3.174  11.992  19.310  0.00  0.00    +0.000 A 
ATOM     22  C   UNK A   0      -4.440  12.500  19.613  0.00  0.00    +0.000 A 
ATOM     23  C   UNK A   0      -5.544  12.182  18.816  0.00  0.00    +0.000 A 
ATOM     24  C   UNK A   0      -5.391  11.346  17.710  0.00  0.00    +0.000 A 
ATOM     25  C   UNK A   0      -4.135  10.822  17.405  0.00  0.00    +0.000 A 
ATOM     26  C   UNK A   0      -3.035  11.149  18.207  0.00  0.00    +0.000 A 
ATOM     27  C   UNK A   0      -1.685  10.631  17.902  0.00  0.00    +0.000 A 
ATOM     28  O   UNK A   0      -1.516   9.877  16.947  0.00  0.00    +0.000 OA
ENDBRANCH  17  18
ENDBRANCH   4  17
TORSDOF 6
ENDMDL
MODEL 2
REMARK VINA RESULT:      -7.8      1.723      2.408
REMARK  Name = 
REMARK  7 active torsions:
REMARK  status: ('A' for Active; 'I' for Inactive)
REMARK    1  A    between atoms: CB_1  and  CA_2
REMARK    2  A    between atoms: CA_2  and  N_3
REMARK    3  A    between atoms: CA_2  and  C_24
REMARK    4  A    between atoms: C_4  and  C_6
REMARK    5  A    between atoms: C_9  and  C_10
REMARK    6  A    between atoms: C_10  and  N_11
REMARK    7  A    between atoms: C_24  and  OXT_26
REMARK                            x       y       z     vdW  Elec       q    Type
REMARK                         _______ _______ _______ _____ _____    ______ ____
ROOT
ATOM      1  C   UNK A   0       3.107   6.536  19.407  0.00  0.00    +0.000 C 
ATOM      2  C   UNK A   0       2.897   6.958  17.947  0.00  0.00    +0.000 C 
ATOM      3  C   UNK A   0       2.594   8.445  17.806  0.00  0.00    +0.000 C 
ATOM      4  C   UNK A   0       1.360   8.834  18.634  0.00  0.00    +0.000 C 
ATOM      5  C   UNK A   0       1.618   8.495  20.109  0.00  0.00    +0.000 C 
ATOM      6  C   UNK A   0       1.950   7.015  20.298  0.00  0.00    +0.000 C 
ENDROOT
BRANCH   1   8
ATOM      7  N   ALA A   1       2.127   4.386  20.033  0.00  0.00    +0.000 N 
ATOM      8  C   UNK A   0       3.233   5.014  19.494  0.00  0.00    +0.000 C 
ATOM      9  O   UNK A   0       4.206   4.389  19.090  0.00  0.00    +0.000 OA
ATOM     10  H   ALA A   1       1.563   4.924  20.685  0.00  0.00    +0.000 HD
BRANCH   7  12
ATOM     11  CB  ALA A   1       1.497   2.482  21.487  0.00  0.00    +0.000 C 
ATOM     12  CA  ALA A   1       2.095   2.920  20.159  0.00  0.00    +0.000 C 
BRANCH  12  13
ATOM     13  C   ALA A   1       1.326   2.334  18.965  0.00  0.00    +0.000 C 
ATOM     14  O   ALA A   1       0.114   2.327  18.842  0.00  0.00    +0.000 OA
BRANCH  13  15
ATOM     15  OXT ALA A   1       2.153   1.732  18.070  0.00  0.00    +0.000 OA
ATOM     16  HXT ALA A   1       2.377   2.366  17.355  0.00  0.00    +0.000 HD
ENDBRANCH  13  15
ENDBRANCH  12  13
ENDBRANCH   7  12
ENDBRANCH   1   8
BRANCH   4  17
ATOM     17  C   UNK A   0       0.989  10.322  18.472  0.00  0.00    +0.000 C 
BRANCH  17  18
ATOM     18  N   UNK A   0      -0.447  10.527  18.302  0.00  0.00    +0.000 N 
ATOM     19  C   UNK A   0      -1.137   9.794  17.364  0.00  0.00    +0.000 A 
ATOM     20  N   UNK A   0      -2.407   9.860  17.154  0.00  0.00    +0.000 NA
ATOM     21  C   UNK A   0      -3.151  10.737  17.955  0.00  0.00    +0.000 A 
ATOM     22  C   UNK A   0      -4.534  10.808  17.768  0.00  0.00    +0.000 A 
ATOM     23  C   UNK A   0      -5.319  11.646  18.567  0.00  0.00    +0.000 A 
ATOM     24  C   UNK A   0      -4.723  12.426  19.558  0.00  0.00    +0.000 A 
ATOM     25  C   UNK A   0      -3.341  12.374  19.746  0.00  0.00    +0.000 A 
ATOM     26  C   UNK A   0      -2.565  11.529  18.944  0.00  0.00    +0.000 A 
ATOM     27  C   UNK A   0      -1.103  11.430  19.129  0.00  0.00    +0.000 A 
ATOM     28  O   UNK A   0      -0.542  12.116  19.979  0.00  0.00    +0.000 OA
ENDBRANCH  17  18
ENDBRANCH   4  17
TORSDOF 6
ENDMDL
MODEL 3
REMARK VINA RESULT:      -7.8      1.839      2.515
REMARK  Name = 
REMARK  7 active torsions:
REMARK  status: ('A' for Active; 'I' for Inactive)
REMARK    1  A    between atoms: CB_1  and  CA_2
REMARK    2  A    between atoms: CA_2  and  N_3
REMARK    3  A    between atoms: CA_2  and  C_24
REMARK    4  A    between atoms: C_4  and  C_6
REMARK    5  A    between atoms: C_9  and  C_10
REMARK    6  A    between atoms: C_10  and  N_11
REMARK    7  A    between atoms: C_24  and  OXT_26
REMARK                            x       y       z     vdW  Elec       q    Type
REMARK                         _______ _______ _______ _____ _____    ______ ____
ROOT
ATOM      1  C   UNK A   0       2.638   7.442  19.431  0.00  0.00    +0.000 C 
ATOM      2  C   UNK A   0       2.285   7.893  18.007  0.00  0.00    +0.000 C 
ATOM      3  C   UNK A   0       1.842   9.349  17.947  0.00  0.00    +0.000 C 
ATOM      4  C   UNK A   0       0.643   9.598  18.874  0.00  0.00    +0.000 C 
ATOM      5  C   UNK A   0       1.037   9.234  20.313  0.00  0.00    +0.000 C 
ATOM      6  C   UNK A   0       1.510   7.784  20.419  0.00  0.00    +0.000 C 
ENDROOT
BRANCH   1   8
ATOM      7  N   ALA A   1       1.793   5.171  19.749  0.00  0.00    +0.000 N 
ATOM      8  C   UNK A   0       2.903   5.936  19.448  0.00  0.00    +0.000 C 
ATOM      9  O   UNK A   0       3.989   5.435  19.183  0.00  0.00    +0.000 OA
ATOM     10  H   ALA A   1       1.076   5.604  20.325  0.00  0.00    +0.000 HD
BRANCH   7  12
ATOM     11  CB  ALA A   1       1.247   3.122  21.030  0.00  0.00    +0.000 C 
ATOM     12  CA  ALA A   1       1.892   3.702  19.781  0.00  0.00    +0.000 C 
BRANCH  12  13
ATOM     13  C   ALA A   1       1.266   3.134  18.497  0.00  0.00    +0.000 C 
ATOM     14  O   ALA A   1       1.513   3.512  17.366  0.00  0.00    +0.000 OA
BRANCH  13  15
ATOM     15  OXT ALA A   1       0.319   2.197  18.763  0.00  0.00    +0.000 OA
ATOM     16  HXT ALA A   1       0.560   1.713  19.583  0.00  0.00    +0.000 HD
ENDBRANCH  13  15
ENDBRANCH  12  13
ENDBRANCH   7  12
ENDBRANCH   1   8
BRANCH   4  17
ATOM     17  C   UNK A   0       0.132  11.050  18.798  0.00  0.00    +0.000 C 
BRANCH  17  18
ATOM     18  N   UNK A   0      -1.298  11.127  18.509  0.00  0.00    +0.000 N 
ATOM     19  C   UNK A   0      -1.827  10.399  17.468  0.00  0.00    +0.000 A 
ATOM     20  N   UNK A   0      -3.074  10.358  17.147  0.00  0.00    +0.000 NA
ATOM     21  C   UNK A   0      -3.970  11.100  17.928  0.00  0.00    +0.000 A 
ATOM     22  C   UNK A   0      -5.331  11.051  17.619  0.00  0.00    +0.000 A 
ATOM     23  C   UNK A   0      -6.263  11.751  18.392  0.00  0.00    +0.000 A 
ATOM     24  C   UNK A   0      -5.837  12.513  19.480  0.00  0.00    +0.000 A 
ATOM     25  C   UNK A   0      -4.479  12.580  19.792  0.00  0.00    +0.000 A 
ATOM     26  C   UNK A   0      -3.555  11.873  19.014  0.00  0.00    +0.000 A 
ATOM     27  C   UNK A   0      -2.112  11.902  19.326  0.00  0.00    +0.000 A 
ATOM     28  O   UNK A   0      -1.698  12.577  20.266  0.00  0.00    +0.000 OA
ENDBRANCH  17  18
ENDBRANCH   4  17
TORSDOF 6
ENDMDL
MODEL 4
REMARK VINA RESULT:      -7.7      2.927      9.162
REMARK  Name = 
REMARK  7 active torsions:
REMARK  status: ('A' for Active; 'I' for Inactive)
REMARK    1  A    between atoms: CB_1  and  CA_2
REMARK    2  A    between atoms: CA_2  and  N_3
REMARK    3  A    between atoms: CA_2  and  C_24
REMARK    4  A    between atoms: C_4  and  C_6
REMARK    5  A    between atoms: C_9  and  C_10
REMARK    6  A    between atoms: C_10  and  N_11
REMARK    7  A    between atoms: C_24  and  OXT_26
REMARK                            x       y       z     vdW  Elec       q    Type
REMARK                         _______ _______ _______ _____ _____    ______ ____
ROOT
ATOM      1  C   UNK A   0      -3.244  11.477  17.669  0.00  0.00    +0.000 C 
ATOM      2  C   UNK A   0      -2.809  11.969  19.056  0.00  0.00    +0.000 C 
ATOM      3  C   UNK A   0      -1.295  11.977  19.226  0.00  0.00    +0.000 C 
ATOM      4  C   UNK A   0      -0.706  10.581  18.970  0.00  0.00    +0.000 C 
ATOM      5  C   UNK A   0      -1.065  10.138  17.545  0.00  0.00    +0.000 C 
ATOM      6  C   UNK A   0      -2.578  10.136  17.320  0.00  0.00    +0.000 C 
ENDROOT
BRANCH   1   8
ATOM      7  N   ALA A   1      -5.306  10.725  18.744  0.00  0.00    +0.000 N 
ATOM      8  C   UNK A   0      -4.765  11.327  17.625  0.00  0.00    +0.000 C 
ATOM      9  O   UNK A   0      -5.461  11.734  16.702  0.00  0.00    +0.000 OA
ATOM     10  H   ALA A   1      -4.710  10.079  19.255  0.00  0.00    +0.000 HD
BRANCH   7  12
ATOM     11  CB  ALA A   1      -7.107   9.255  19.599  0.00  0.00    +0.000 C 
ATOM     12  CA  ALA A   1      -6.762  10.534  18.852  0.00  0.00    +0.000 C 
BRANCH  12  13
ATOM     13  C   ALA A   1      -7.378  11.771  19.523  0.00  0.00    +0.000 C 
ATOM     14  O   ALA A   1      -7.534  11.918  20.722  0.00  0.00    +0.000 OA
BRANCH  13  15
ATOM     15  OXT ALA A   1      -7.822  12.678  18.613  0.00  0.00    +0.000 OA
ATOM     16  HXT ALA A   1      -8.608  12.316  18.150  0.00  0.00    +0.000 HD
ENDBRANCH  13  15
ENDBRANCH  12  13
ENDBRANCH   7  12
ENDBRANCH   1   8
BRANCH   4  17
ATOM     17  C   UNK A   0       0.820  10.538  19.187  0.00  0.00    +0.000 C 
BRANCH  17  18
ATOM     18  N   UNK A   0       1.310   9.189  19.458  0.00  0.00    +0.000 N 
ATOM     19  C   UNK A   0       1.023   8.586  20.661  0.00  0.00    +0.000 A 
ATOM     20  N   UNK A   0       1.367   7.389  20.994  0.00  0.00    +0.000 NA
ATOM     21  C   UNK A   0       2.076   6.632  20.051  0.00  0.00    +0.000 A 
ATOM     22  C   UNK A   0       2.437   5.322  20.375  0.00  0.00    +0.000 A 
ATOM     23  C   UNK A   0       3.118   4.522  19.452  0.00  0.00    +0.000 A 
ATOM     24  C   UNK A   0       3.449   5.030  18.196  0.00  0.00    +0.000 A 
ATOM     25  C   UNK A   0       3.105   6.341  17.865  0.00  0.00    +0.000 A 
ATOM     26  C   UNK A   0       2.421   7.133  18.794  0.00  0.00    +0.000 A 
ATOM     27  C   UNK A   0       2.021   8.518  18.472  0.00  0.00    +0.000 A 
ATOM     28  O   UNK A   0       2.312   9.005  17.382  0.00  0.00    +0.000 OA
ENDBRANCH  17  18
ENDBRANCH   4  17
TORSDOF 6
ENDMDL
MODEL 5
REMARK VINA RESULT:      -7.7      2.129      2.670
REMARK  Name = 
REMARK  7 active torsions:
REMARK  status: ('A' for Active; 'I' for Inactive)
REMARK    1  A    between atoms: CB_1  and  CA_2
REMARK    2  A    between atoms: CA_2  and  N_3
REMARK    3  A    between atoms: CA_2  and  C_24
REMARK    4  A    between atoms: C_4  and  C_6
REMARK    5  A    between atoms: C_9  and  C_10
REMARK    6  A    between atoms: C_10  and  N_11
REMARK    7  A    between atoms: C_24  and  OXT_26
REMARK                            x       y       z     vdW  Elec       q    Type
REMARK                         _______ _______ _______ _____ _____    ______ ____
ROOT
ATOM      1  C   UNK A   0       3.234   7.321  18.462  0.00  0.00    +0.000 C 
ATOM      2  C   UNK A   0       2.652   8.235  17.377  0.00  0.00    +0.000 C 
ATOM      3  C   UNK A   0       2.054   9.514  17.948  0.00  0.00    +0.000 C 
ATOM      4  C   UNK A   0       0.967   9.197  18.987  0.00  0.00    +0.000 C 
ATOM      5  C   UNK A   0       1.584   8.363  20.118  0.00  0.00    +0.000 C 
ATOM      6  C   UNK A   0       2.217   7.076  19.589  0.00  0.00    +0.000 C 
ENDROOT
BRANCH   1   8
ATOM      7  N   ALA A   1       4.910   6.003  17.267  0.00  0.00    +0.000 N 
ATOM      8  C   UNK A   0       3.657   5.986  17.846  0.00  0.00    +0.000 C 
ATOM      9  O   UNK A   0       2.970   4.972  17.888  0.00  0.00    +0.000 OA
ATOM     10  H   ALA A   1       5.244   6.896  16.913  0.00  0.00    +0.000 HD
BRANCH   7  12
ATOM     11  CB  ALA A   1       5.546   4.905  15.140  0.00  0.00    +0.000 C 
ATOM     12  CA  ALA A   1       5.459   4.783  16.653  0.00  0.00    +0.000 C 
BRANCH  12  13
ATOM     13  C   ALA A   1       6.829   4.483  17.282  0.00  0.00    +0.000 C 
ATOM     14  O   ALA A   1       7.891   4.477  16.686  0.00  0.00    +0.000 OA
BRANCH  13  15
ATOM     15  OXT ALA A   1       6.724   4.132  18.590  0.00  0.00    +0.000 OA
ATOM     16  HXT ALA A   1       7.369   3.419  18.789  0.00  0.00    +0.000 HD
ENDBRANCH  13  15
ENDBRANCH  12  13
ENDBRANCH   7  12
ENDBRANCH   1   8
BRANCH   4  17
ATOM     17  C   UNK A   0       0.300  10.470  19.547  0.00  0.00    +0.000 C 
BRANCH  17  18
ATOM     18  N   UNK A   0      -0.989  10.749  18.920  0.00  0.00    +0.000 N 
ATOM     19  C   UNK A   0      -1.291  10.193  17.699  0.00  0.00    +0.000 A 
ATOM     20  N   UNK A   0      -2.408  10.336  17.072  0.00  0.00    +0.000 NA
ATOM     21  C   UNK A   0      -3.403  11.108  17.687  0.00  0.00    +0.000 A 
ATOM     22  C   UNK A   0      -4.633  11.257  17.043  0.00  0.00    +0.000 A 
ATOM     23  C   UNK A   0      -5.664  11.992  17.636  0.00  0.00    +0.000 A 
ATOM     24  C   UNK A   0      -5.469  12.590  18.881  0.00  0.00    +0.000 A 
ATOM     25  C   UNK A   0      -4.241  12.460  19.529  0.00  0.00    +0.000 A 
ATOM     26  C   UNK A   0      -3.217  11.719  18.928  0.00  0.00    +0.000 A 
ATOM     27  C   UNK A   0      -1.911  11.540  19.595  0.00  0.00    +0.000 A 
ATOM     28  O   UNK A   0      -1.697  12.068  20.683  0.00  0.00    +0.000 OA
ENDBRANCH  17  18
ENDBRANCH   4  17
TORSDOF 6
ENDMDL
MODEL 6
REMARK VINA RESULT:      -7.6      1.376      1.968
REMARK  Name = 
REMARK  7 active torsions:
REMARK  status: ('A' for Active; 'I' for Inactive)
REMARK    1  A    between atoms: CB_1  and  CA_2
REMARK    2  A    between atoms: CA_2  and  N_3
REMARK    3  A    between atoms: CA_2  and  C_24
REMARK    4  A    between atoms: C_4  and  C_6
REMARK    5  A    between atoms: C_9  and  C_10
REMARK    6  A    between atoms: C_10  and  N_11
REMARK    7  A    between atoms: C_24  and  OXT_26
REMARK                            x       y       z     vdW  Elec       q    Type
REMARK                         _______ _______ _______ _____ _____    ______ ____
ROOT
ATOM      1  C   UNK A   0       2.320   7.449  19.731  0.00  0.00    +0.000 C 
ATOM      2  C   UNK A   0       2.086   7.856  18.271  0.00  0.00    +0.000 C 
ATOM      3  C   UNK A   0       1.835   9.351  18.113  0.00  0.00    +0.000 C 
ATOM      4  C   UNK A   0       0.640   9.801  18.967  0.00  0.00    +0.000 C 
ATOM      5  C   UNK A   0       0.927   9.476  20.440  0.00  0.00    +0.000 C 
ATOM      6  C   UNK A   0       1.207   7.987  20.645  0.00  0.00    +0.000 C 
ENDROOT
BRANCH   1   8
ATOM      7  N   ALA A   1       3.196   5.327  18.892  0.00  0.00    +0.000 N 
ATOM      8  C   UNK A   0       2.390   5.925  19.840  0.00  0.00    +0.000 C 
ATOM      9  O   UNK A   0       1.817   5.280  20.711  0.00  0.00    +0.000 OA
ATOM     10  H   ALA A   1       3.308   5.815  18.008  0.00  0.00    +0.000 HD
BRANCH   7  12
ATOM     11  CB  ALA A   1       3.006   3.257  17.545  0.00  0.00    +0.000 C 
ATOM     12  CA  ALA A   1       3.377   3.866  18.888  0.00  0.00    +0.000 C 
BRANCH  12  13
ATOM     13  C   ALA A   1       4.827   3.543  19.281  0.00  0.00    +0.000 C 
ATOM     14  O   ALA A   1       5.765   4.317  19.210  0.00  0.00    +0.000 OA
BRANCH  13  15
ATOM     15  OXT ALA A   1       4.979   2.244  19.648  0.00  0.00    +0.000 OA
ATOM     16  HXT ALA A   1       4.133   1.765  19.510  0.00  0.00    +0.000 HD
ENDBRANCH  13  15
ENDBRANCH  12  13
ENDBRANCH   7  12
ENDBRANCH   1   8
BRANCH   4  17
ATOM     17  C   UNK A   0       0.323  11.299  18.791  0.00  0.00    +0.000 C 
BRANCH  17  18
ATOM     18  N   UNK A   0      -1.112  11.574  18.814  0.00  0.00    +0.000 N 
ATOM     19  C   UNK A   0      -1.898  11.203  17.747  0.00  0.00    +0.000 A 
ATOM     20  N   UNK A   0      -3.175  11.357  17.674  0.00  0.00    +0.000 NA
ATOM     21  C   UNK A   0      -3.822  11.936  18.775  0.00  0.00    +0.000 A 
ATOM     22  C   UNK A   0      -5.210  12.090  18.734  0.00  0.00    +0.000 A 
ATOM     23  C   UNK A   0      -5.899  12.633  19.823  0.00  0.00    +0.000 A 
ATOM     24  C   UNK A   0      -5.201  13.033  20.963  0.00  0.00    +0.000 A 
ATOM     25  C   UNK A   0      -3.813  12.897  21.011  0.00  0.00    +0.000 A 
ATOM     26  C   UNK A   0      -3.133  12.348  19.917  0.00  0.00    +0.000 A 
ATOM     27  C   UNK A   0      -1.668  12.167  19.940  0.00  0.00    +0.000 A 
ATOM     28  O   UNK A   0      -1.018  12.526  20.919  0.00  0.00    +0.000 OA
ENDBRANCH  17  18
ENDBRANCH   4  17
TORSDOF 6
ENDMDL
MODEL 7
REMARK VINA RESULT:      -7.6      2.082      2.819
REMARK  Name = 
REMARK  7 active torsions:
REMARK  status: ('A' for Active; 'I' for Inactive)
REMARK    1  A    between atoms: CB_1  and  CA_2
REMARK    2  A    between atoms: CA_2  and  N_3
REMARK    3  A    between atoms: CA_2  and  C_24
REMARK    4  A    between atoms: C_4  and  C_6
REMARK    5  A    between atoms: C_9  and  C_10
REMARK    6  A    between atoms: C_10  and  N_11
REMARK    7  A    between atoms: C_24  and  OXT_26
REMARK                            x       y       z     vdW  Elec       q    Type
REMARK                         _______ _______ _______ _____ _____    ______ ____
ROOT
ATOM      1  C   UNK A   0       2.520   7.197  19.096  0.00  0.00    +0.000 C 
ATOM      2  C   UNK A   0       2.114   7.944  17.819  0.00  0.00    +0.000 C 
ATOM      3  C   UNK A   0       2.042   9.453  18.022  0.00  0.00    +0.000 C 
ATOM      4  C   UNK A   0       1.068   9.810  19.154  0.00  0.00    +0.000 C 
ATOM      5  C   UNK A   0       1.538   9.134  20.451  0.00  0.00    +0.000 C 
ATOM      6  C   UNK A   0       1.646   7.617  20.289  0.00  0.00    +0.000 C 
ENDROOT
BRANCH   1   8
ATOM      7  N   ALA A   1       2.850   4.925  19.935  0.00  0.00    +0.000 N 
ATOM      8  C   UNK A   0       2.403   5.688  18.874  0.00  0.00    +0.000 C 
ATOM      9  O   UNK A   0       1.922   5.186  17.865  0.00  0.00    +0.000 OA
ATOM     10  H   ALA A   1       3.567   5.334  20.528  0.00  0.00    +0.000 HD
BRANCH   7  12
ATOM     11  CB  ALA A   1       4.154   2.833  19.696  0.00  0.00    +0.000 C 
ATOM     12  CA  ALA A   1       2.778   3.456  19.873  0.00  0.00    +0.000 C 
BRANCH  12  13
ATOM     13  C   ALA A   1       2.075   2.939  21.137  0.00  0.00    +0.000 C 
ATOM     14  O   ALA A   1       2.635   2.507  22.129  0.00  0.00    +0.000 OA
BRANCH  13  15
ATOM     15  OXT ALA A   1       0.722   2.932  21.002  0.00  0.00    +0.000 OA
ATOM     16  HXT ALA A   1       0.308   2.791  21.881  0.00  0.00    +0.000 HD
ENDBRANCH  13  15
ENDBRANCH  12  13
ENDBRANCH   7  12
ENDBRANCH   1   8
BRANCH   4  17
ATOM     17  C   UNK A   0       0.928  11.332  19.352  0.00  0.00    +0.000 C 
BRANCH  17  18
ATOM     18  N   UNK A   0      -0.430  11.728  19.715  0.00  0.00    +0.000 N 
ATOM     19  C   UNK A   0      -1.407  11.792  18.748  0.00  0.00    +0.000 A 
ATOM     20  N   UNK A   0      -2.643  12.088  18.957  0.00  0.00    +0.000 NA
ATOM     21  C   UNK A   0      -3.032  12.351  20.278  0.00  0.00    +0.000 A 
ATOM     22  C   UNK A   0      -4.372  12.648  20.537  0.00  0.00    +0.000 A 
ATOM     23  C   UNK A   0      -4.810  12.886  21.844  0.00  0.00    +0.000 A 
ATOM     24  C   UNK A   0      -3.904  12.835  22.904  0.00  0.00    +0.000 A 
ATOM     25  C   UNK A   0      -2.561  12.552  22.657  0.00  0.00    +0.000 A 
ATOM     26  C   UNK A   0      -2.134  12.312  21.346  0.00  0.00    +0.000 A 
ATOM     27  C   UNK A   0      -0.724  11.987  21.048  0.00  0.00    +0.000 A 
ATOM     28  O   UNK A   0       0.104  11.952  21.954  0.00  0.00    +0.000 OA
ENDBRANCH  17  18
ENDBRANCH   4  17
TORSDOF 6
ENDMDL
MODEL 8
REMARK VINA RESULT:      -7.5      1.651      2.348
REMARK  Name = 
REMARK  7 active torsions:
REMARK  status: ('A' for Active; 'I' for Inactive)
REMARK    1  A    between atoms: CB_1  and  CA_2
REMARK    2  A    between atoms: CA_2  and  N_3
REMARK    3  A    between atoms: CA_2  and  C_24
REMARK    4  A    between atoms: C_4  and  C_6
REMARK    5  A    between atoms: C_9  and  C_10
REMARK    6  A    between atoms: C_10  and  N_11
REMARK    7  A    between atoms: C_24  and  OXT_26
REMARK                            x       y       z     vdW  Elec       q    Type
REMARK                         _______ _______ _______ _____ _____    ______ ____
ROOT
ATOM      1  C   UNK A   0       2.595   7.373  19.096  0.00  0.00    +0.000 C 
ATOM      2  C   UNK A   0       2.129   8.066  17.809  0.00  0.00    +0.000 C 
ATOM      3  C   UNK A   0       1.761   9.528  18.032  0.00  0.00    +0.000 C 
ATOM      4  C   UNK A   0       0.673   9.662  19.107  0.00  0.00    +0.000 C 
ATOM      5  C   UNK A   0       1.186   9.051  20.419  0.00  0.00    +0.000 C 
ATOM      6  C   UNK A   0       1.590   7.587  20.239  0.00  0.00    +0.000 C 
ENDROOT
BRANCH   1   8
ATOM      7  N   ALA A   1       2.668   5.094  19.974  0.00  0.00    +0.000 N 
ATOM      8  C   UNK A   0       2.780   5.876  18.842  0.00  0.00    +0.000 C 
ATOM      9  O   UNK A   0       2.972   5.395  17.732  0.00  0.00    +0.000 OA
ATOM     10  H   ALA A   1       2.906   5.528  20.862  0.00  0.00    +0.000 HD
BRANCH   7  12
ATOM     11  CB  ALA A   1       4.254   3.205  19.736  0.00  0.00    +0.000 C 
ATOM     12  CA  ALA A   1       2.801   3.630  19.880  0.00  0.00    +0.000 C 
BRANCH  12  13
ATOM     13  C   ALA A   1       2.137   2.990  21.109  0.00  0.00    +0.000 C 
ATOM     14  O   ALA A   1       2.729   2.481  22.044  0.00  0.00    +0.000 OA
BRANCH  13  15
ATOM     15  OXT ALA A   1       0.782   2.974  21.007  0.00  0.00    +0.000 OA
ATOM     16  HXT ALA A   1       0.489   2.089  20.700  0.00  0.00    +0.000 HD
ENDBRANCH  13  15
ENDBRANCH  12  13
ENDBRANCH   7  12
ENDBRANCH   1   8
BRANCH   4  17
ATOM     17  C   UNK A   0       0.235  11.125  19.321  0.00  0.00    +0.000 C 
BRANCH  17  18
ATOM     18  N   UNK A   0      -1.157  11.355  18.941  0.00  0.00    +0.000 N 
ATOM     19  C   UNK A   0      -1.631  10.862  17.748  0.00  0.00    +0.000 A 
ATOM     20  N   UNK A   0      -2.845  10.968  17.329  0.00  0.00    +0.000 NA
ATOM     21  C   UNK A   0      -3.763  11.624  18.160  0.00  0.00    +0.000 A 
ATOM     22  C   UNK A   0      -5.092  11.729  17.743  0.00  0.00    +0.000 A 
ATOM     23  C   UNK A   0      -6.048  12.347  18.556  0.00  0.00    +0.000 A 
ATOM     24  C   UNK A   0      -5.678  12.872  19.794  0.00  0.00    +0.000 A 
ATOM     25  C   UNK A   0      -4.351  12.786  20.216  0.00  0.00    +0.000 A 
ATOM     26  C   UNK A   0      -3.403  12.161  19.397  0.00  0.00    +0.000 A 
ATOM     27  C   UNK A   0      -1.994  12.030  19.820  0.00  0.00    +0.000 A 
ATOM     28  O   UNK A   0      -1.628  12.498  20.895  0.00  0.00    +0.000 OA
ENDBRANCH  17  18
ENDBRANCH   4  17
TORSDOF 6
ENDMDL
MODEL 9
REMARK VINA RESULT:      -7.5      1.337      1.905
REMARK  Name = 
REMARK  7 active torsions:
REMARK  status: ('A' for Active; 'I' for Inactive)
REMARK    1  A    between atoms: CB_1  and  CA_2
REMARK    2  A    between atoms: CA_2  and  N_3
REMARK    3  A    between atoms: CA_2  and  C_24
REMARK    4  A    between atoms: C_4  and  C_6
REMARK    5  A    between atoms: C_9  and  C_10
REMARK    6  A    between atoms: C_10  and  N_11
REMARK    7  A    between atoms: C_24  and  OXT_26
REMARK                            x       y       z     vdW  Elec       q    Type
REMARK                         _______ _______ _______ _____ _____    ______ ____
ROOT
ATOM      1  C   UNK A   0       2.494   6.572  19.988  0.00  0.00    +0.000 C 
ATOM      2  C   UNK A   0       2.338   6.775  18.476  0.00  0.00    +0.000 C 
ATOM      3  C   UNK A   0       2.232   8.245  18.090  0.00  0.00    +0.000 C 
ATOM      4  C   UNK A   0       1.062   8.922  18.821  0.00  0.00    +0.000 C 
ATOM      5  C   UNK A   0       1.278   8.797  20.336  0.00  0.00    +0.000 C 
ATOM      6  C   UNK A   0       1.412   7.337  20.768  0.00  0.00    +0.000 C 
ENDROOT
BRANCH   1   8
ATOM      7  N   ALA A   1       2.495   4.251  19.222  0.00  0.00    +0.000 N 
ATOM      8  C   UNK A   0       2.418   5.081  20.323  0.00  0.00    +0.000 C 
ATOM      9  O   UNK A   0       2.335   4.646  21.465  0.00  0.00    +0.000 OA
ATOM     10  H   ALA A   1       2.169   4.627  18.336  0.00  0.00    +0.000 HD
BRANCH   7  12
ATOM     11  CB  ALA A   1       1.191   2.187  18.805  0.00  0.00    +0.000 C 
ATOM     12  CA  ALA A   1       2.457   2.789  19.393  0.00  0.00    +0.000 C 
BRANCH  12  13
ATOM     13  C   ALA A   1       3.723   2.183  18.767  0.00  0.00    +0.000 C 
ATOM     14  O   ALA A   1       3.786   1.665  17.666  0.00  0.00    +0.000 OA
BRANCH  13  15
ATOM     15  OXT ALA A   1       4.778   2.207  19.624  0.00  0.00    +0.000 OA
ATOM     16  HXT ALA A   1       4.447   2.208  20.548  0.00  0.00    +0.000 HD
ENDBRANCH  13  15
ENDBRANCH  12  13
ENDBRANCH   7  12
ENDBRANCH   1   8
BRANCH   4  17
ATOM     17  C   UNK A   0       0.891  10.399  18.413  0.00  0.00    +0.000 C 
BRANCH  17  18
ATOM     18  N   UNK A   0      -0.500  10.841  18.481  0.00  0.00    +0.000 N 
ATOM     19  C   UNK A   0      -1.427  10.320  17.608  0.00  0.00    +0.000 A 
ATOM     20  N   UNK A   0      -2.684  10.604  17.601  0.00  0.00    +0.000 NA
ATOM     21  C   UNK A   0      -3.151  11.504  18.569  0.00  0.00    +0.000 A 
ATOM     22  C   UNK A   0      -4.514  11.808  18.602  0.00  0.00    +0.000 A 
ATOM     23  C   UNK A   0      -5.028  12.676  19.571  0.00  0.00    +0.000 A 
ATOM     24  C   UNK A   0      -4.177  13.252  20.514  0.00  0.00    +0.000 A 
ATOM     25  C   UNK A   0      -2.812  12.967  20.484  0.00  0.00    +0.000 A 
ATOM     26  C   UNK A   0      -2.309  12.094  19.512  0.00  0.00    +0.000 A 
ATOM     27  C   UNK A   0      -0.873  11.750  19.463  0.00  0.00    +0.000 A 
ATOM     28  O   UNK A   0      -0.091  12.253  20.266  0.00  0.00    +0.000 OA
ENDBRANCH  17  18
ENDBRANCH   4  17
TORSDOF 6
ENDMDL
