MODEL 1
REMARK VINA RESULT:      -6.5      0.000      0.000
REMARK  Name = 
REMARK  7 active torsions:
REMARK  status: ('A' for Active; 'I' for Inactive)
REMARK    1  A    between atoms: C_1  and  C_2
REMARK    2  A    between atoms: C_6  and  O_7
REMARK    3  A    between atoms: O_7  and  C_8
REMARK    4  A    between atoms: C_8  and  C_9
REMARK    5  A    between atoms: C_9  and  C_10
REMARK    6  A    between atoms: C_10  and  C_11
REMARK    7  A    between atoms: C_11  and  N_12
REMARK                            x       y       z     vdW  Elec       q    Type
REMARK                         _______ _______ _______ _____ _____    ______ ____
ROOT
ATOM      1  C   UNL     1       3.183   2.031  17.908  0.00  0.00    +0.000 C 
ENDROOT
BRANCH   1   2
ATOM      2  C   UNL     1       1.764   1.920  18.473  0.00  0.00    +0.000 C 
BRANCH   2   3
ATOM      3  O   UNL     1       0.997   3.077  18.142  0.00  0.00    +0.000 OA
BRANCH   3   9
ATOM      4  C   UNL     1       3.093   7.584  17.780  0.00  0.00    +0.000 C 
ATOM      5  C   UNL     1       2.470   6.481  18.587  0.00  0.00    +0.000 A 
ATOM      6  C   UNL     1       2.296   6.603  19.967  0.00  0.00    +0.000 A 
ATOM      7  C   UNL     1       1.715   5.563  20.694  0.00  0.00    +0.000 A 
ATOM      8  C   UNL     1       1.302   4.397  20.047  0.00  0.00    +0.000 A 
ATOM      9  C   UNL     1       1.467   4.261  18.667  0.00  0.00    +0.000 A 
ATOM     10  C   UNL     1       2.053   5.302  17.943  0.00  0.00    +0.000 A 
ENDBRANCH   3   9
ENDBRANCH   2   3
ENDBRANCH   1   2
BRANCH   1  11
ATOM     11  C   UNL     1       4.263   1.960  19.007  0.00  0.00    +0.000 C 
BRANCH  11  12
ATOM     12  C   UNL     1       4.664   3.361  19.468  0.00  0.00    +0.000 C 
BRANCH  12  13
ATOM     13  N   UNL     1       5.665   4.096  18.734  0.00  0.00    +0.000 NA
ATOM     14  C   UNL     1       6.167   5.341  19.310  0.00  0.00    +0.000 C 
ATOM     15  C   UNL     1       7.568   5.619  18.717  0.00  0.00    +0.000 C 
ATOM     16  N   UNL     1       7.595   5.659  17.241  0.00  0.00    +0.000 NA
ATOM     17  C   UNL     1       6.903   4.480  16.680  0.00  0.00    +0.000 C 
ATOM     18  C   UNL     1       5.502   4.224  17.291  0.00  0.00    +0.000 C 
ATOM     19  H   UNL     1       8.567   5.635  16.937  0.00  0.00    +0.000 HD
ENDBRANCH  12  13
ENDBRANCH  11  12
ENDBRANCH   1  11
TORSDOF 6
ENDMDL
MODEL 2
REMARK VINA RESULT:      -6.2      3.423      6.565
REMARK  Name = 
REMARK  7 active torsions:
REMARK  status: ('A' for Active; 'I' for Inactive)
REMARK    1  A    between atoms: C_1  and  C_2
REMARK    2  A    between atoms: C_6  and  O_7
REMARK    3  A    between atoms: O_7  and  C_8
REMARK    4  A    between atoms: C_8  and  C_9
REMARK    5  A    between atoms: C_9  and  C_10
REMARK    6  A    between atoms: C_10  and  C_11
REMARK    7  A    between atoms: C_11  and  N_12
REMARK                            x       y       z     vdW  Elec       q    Type
REMARK                         _______ _______ _______ _____ _____    ______ ____
ROOT
ATOM      1  C   UNL     1       4.315   4.954  17.048  0.00  0.00    +0.000 C 
ENDROOT
BRANCH   1   2
ATOM      2  C   UNL     1       5.258   5.773  16.162  0.00  0.00    +0.000 C 
BRANCH   2   3
ATOM      3  O   UNL     1       6.448   5.037  15.878  0.00  0.00    +0.000 OA
BRANCH   3   9
ATOM      4  C   UNL     1       5.332   2.490  11.742  0.00  0.00    +0.000 C 
ATOM      5  C   UNL     1       6.145   3.515  12.480  0.00  0.00    +0.000 A 
ATOM      6  C   UNL     1       7.152   4.239  11.838  0.00  0.00    +0.000 A 
ATOM      7  C   UNL     1       7.894   5.185  12.547  0.00  0.00    +0.000 A 
ATOM      8  C   UNL     1       7.633   5.416  13.899  0.00  0.00    +0.000 A 
ATOM      9  C   UNL     1       6.627   4.703  14.554  0.00  0.00    +0.000 A 
ATOM     10  C   UNL     1       5.890   3.752  13.842  0.00  0.00    +0.000 A 
ENDBRANCH   3   9
ENDBRANCH   2   3
ENDBRANCH   1   2
BRANCH   1  11
ATOM     11  C   UNL     1       5.068   4.160  18.135  0.00  0.00    +0.000 C 
BRANCH  11  12
ATOM     12  C   UNL     1       4.326   2.867  18.477  0.00  0.00    +0.000 C 
BRANCH  12  13
ATOM     13  N   UNL     1       3.141   2.918  19.298  0.00  0.00    +0.000 NA
ATOM     14  C   UNL     1       3.293   2.742  20.739  0.00  0.00    +0.000 C 
ATOM     15  C   UNL     1       2.083   3.403  21.438  0.00  0.00    +0.000 C 
ATOM     16  N   UNL     1       0.774   2.904  20.969  0.00  0.00    +0.000 NA
ATOM     17  C   UNL     1       0.720   2.907  19.493  0.00  0.00    +0.000 C 
ATOM     18  C   UNL     1       1.944   2.238  18.818  0.00  0.00    +0.000 C 
ATOM     19  H   UNL     1       0.048   3.527  21.318  0.00  0.00    +0.000 HD
ENDBRANCH  12  13
ENDBRANCH  11  12
ENDBRANCH   1  11
TORSDOF 6
ENDMDL
MODEL 3
REMARK VINA RESULT:      -6.2      2.247      5.235
REMARK  Name = 
REMARK  7 active torsions:
REMARK  status: ('A' for Active; 'I' for Inactive)
REMARK    1  A    between atoms: C_1  and  C_2
REMARK    2  A    between atoms: C_6  and  O_7
REMARK    3  A    between atoms: O_7  and  C_8
REMARK    4  A    between atoms: C_8  and  C_9
REMARK    5  A    between atoms: C_9  and  C_10
REMARK    6  A    between atoms: C_10  and  C_11
REMARK    7  A    between atoms: C_11  and  N_12
REMARK                            x       y       z     vdW  Elec       q    Type
REMARK                         _______ _______ _______ _____ _____    ______ ____
ROOT
ATOM      1  C   UNL     1       2.771   7.503  19.071  0.00  0.00    +0.000 C 
ENDROOT
BRANCH   1   2
ATOM      2  C   UNL     1       3.125   6.975  17.678  0.00  0.00    +0.000 C 
BRANCH   2   3
ATOM      3  O   UNL     1       4.432   7.402  17.295  0.00  0.00    +0.000 OA
BRANCH   3   9
ATOM      4  C   UNL     1       6.176   3.932  14.173  0.00  0.00    +0.000 C 
ATOM      5  C   UNL     1       6.229   4.681  15.474  0.00  0.00    +0.000 A 
ATOM      6  C   UNL     1       7.212   4.408  16.426  0.00  0.00    +0.000 A 
ATOM      7  C   UNL     1       7.238   5.117  17.628  0.00  0.00    +0.000 A 
ATOM      8  C   UNL     1       6.286   6.104  17.883  0.00  0.00    +0.000 A 
ATOM      9  C   UNL     1       5.298   6.392  16.939  0.00  0.00    +0.000 A 
ATOM     10  C   UNL     1       5.272   5.676  15.740  0.00  0.00    +0.000 A 
ENDBRANCH   3   9
ENDBRANCH   2   3
ENDBRANCH   1   2
BRANCH   1  11
ATOM     11  C   UNL     1       2.145   6.417  19.971  0.00  0.00    +0.000 C 
BRANCH  11  12
ATOM     12  C   UNL     1       3.087   5.221  20.117  0.00  0.00    +0.000 C 
BRANCH  12  13
ATOM     13  N   UNL     1       2.785   3.986  19.435  0.00  0.00    +0.000 NA
ATOM     14  C   UNL     1       3.802   3.418  18.555  0.00  0.00    +0.000 C 
ATOM     15  C   UNL     1       3.539   1.899  18.428  0.00  0.00    +0.000 C 
ATOM     16  N   UNL     1       2.176   1.565  17.965  0.00  0.00    +0.000 NA
ATOM     17  C   UNL     1       1.168   2.309  18.747  0.00  0.00    +0.000 C 
ATOM     18  C   UNL     1       1.455   3.828  18.858  0.00  0.00    +0.000 C 
ATOM     19  H   UNL     1       2.023   0.569  18.110  0.00  0.00    +0.000 HD
ENDBRANCH  12  13
ENDBRANCH  11  12
ENDBRANCH   1  11
TORSDOF 6
ENDMDL
MODEL 4
REMARK VINA RESULT:      -6.2      2.232      5.227
REMARK  Name = 
REMARK  7 active torsions:
REMARK  status: ('A' for Active; 'I' for Inactive)
REMARK    1  A    between atoms: C_1  and  C_2
REMARK    2  A    between atoms: C_6  and  O_7
REMARK    3  A    between atoms: O_7  and  C_8
REMARK    4  A    between atoms: C_8  and  C_9
REMARK    5  A    between atoms: C_9  and  C_10
REMARK    6  A    between atoms: C_10  and  C_11
REMARK    7  A    between atoms: C_11  and  N_12
REMARK                            x       y       z     vdW  Elec       q    Type
REMARK                         _______ _______ _______ _____ _____    ______ ____
ROOT
ATOM      1  C   UNL     1       2.278   6.688  18.320  0.00  0.00    +0.000 C 
ENDROOT
BRANCH   1   2
ATOM      2  C   UNL     1       3.484   7.466  17.785  0.00  0.00    +0.000 C 
BRANCH   2   3
ATOM      3  O   UNL     1       4.054   6.799  16.660  0.00  0.00    +0.000 OA
BRANCH   3   9
ATOM      4  C   UNL     1       8.037   5.668  19.433  0.00  0.00    +0.000 C 
ATOM      5  C   UNL     1       7.188   5.482  18.209  0.00  0.00    +0.000 A 
ATOM      6  C   UNL     1       7.524   4.543  17.231  0.00  0.00    +0.000 A 
ATOM      7  C   UNL     1       6.718   4.390  16.102  0.00  0.00    +0.000 A 
ATOM      8  C   UNL     1       5.571   5.170  15.945  0.00  0.00    +0.000 A 
ATOM      9  C   UNL     1       5.220   6.110  16.915  0.00  0.00    +0.000 A 
ATOM     10  C   UNL     1       6.032   6.265  18.042  0.00  0.00    +0.000 A 
ENDBRANCH   3   9
ENDBRANCH   2   3
ENDBRANCH   1   2
BRANCH   1  11
ATOM     11  C   UNL     1       2.173   6.746  19.858  0.00  0.00    +0.000 C 
BRANCH  11  12
ATOM     12  C   UNL     1       2.422   5.369  20.473  0.00  0.00    +0.000 C 
BRANCH  12  13
ATOM     13  N   UNL     1       2.399   4.196  19.634  0.00  0.00    +0.000 NA
ATOM     14  C   UNL     1       1.402   3.167  19.915  0.00  0.00    +0.000 C 
ATOM     15  C   UNL     1       1.162   2.358  18.619  0.00  0.00    +0.000 C 
ATOM     16  N   UNL     1       2.390   1.776  18.041  0.00  0.00    +0.000 NA
ATOM     17  C   UNL     1       3.453   2.797  17.951  0.00  0.00    +0.000 C 
ATOM     18  C   UNL     1       3.673   3.593  19.263  0.00  0.00    +0.000 C 
ATOM     19  H   UNL     1       2.179   1.449  17.100  0.00  0.00    +0.000 HD
ENDBRANCH  12  13
ENDBRANCH  11  12
ENDBRANCH   1  11
TORSDOF 6
ENDMDL
MODEL 5
REMARK VINA RESULT:      -6.2      3.323      6.586
REMARK  Name = 
REMARK  7 active torsions:
REMARK  status: ('A' for Active; 'I' for Inactive)
REMARK    1  A    between atoms: C_1  and  C_2
REMARK    2  A    between atoms: C_6  and  O_7
REMARK    3  A    between atoms: O_7  and  C_8
REMARK    4  A    between atoms: C_8  and  C_9
REMARK    5  A    between atoms: C_9  and  C_10
REMARK    6  A    between atoms: C_10  and  C_11
REMARK    7  A    between atoms: C_11  and  N_12
REMARK                            x       y       z     vdW  Elec       q    Type
REMARK                         _______ _______ _______ _____ _____    ______ ____
ROOT
ATOM      1  C   UNL     1       6.432   5.147  18.110  0.00  0.00    +0.000 C 
ENDROOT
BRANCH   1   2
ATOM      2  C   UNL     1       6.301   4.349  16.810  0.00  0.00    +0.000 C 
BRANCH   2   3
ATOM      3  O   UNL     1       5.892   5.197  15.737  0.00  0.00    +0.000 OA
BRANCH   3   9
ATOM      4  C   UNL     1       5.288   2.469  11.611  0.00  0.00    +0.000 C 
ATOM      5  C   UNL     1       6.040   3.487  12.419  0.00  0.00    +0.000 A 
ATOM      6  C   UNL     1       7.185   4.108  11.917  0.00  0.00    +0.000 A 
ATOM      7  C   UNL     1       7.866   5.050  12.689  0.00  0.00    +0.000 A 
ATOM      8  C   UNL     1       7.406   5.380  13.965  0.00  0.00    +0.000 A 
ATOM      9  C   UNL     1       6.260   4.770  14.480  0.00  0.00    +0.000 A 
ATOM     10  C   UNL     1       5.584   3.823  13.706  0.00  0.00    +0.000 A 
ENDBRANCH   3   9
ENDBRANCH   2   3
ENDBRANCH   1   2
BRANCH   1  11
ATOM     11  C   UNL     1       5.417   4.699  19.183  0.00  0.00    +0.000 C 
BRANCH  11  12
ATOM     12  C   UNL     1       4.487   3.617  18.634  0.00  0.00    +0.000 C 
BRANCH  12  13
ATOM     13  N   UNL     1       3.166   3.459  19.192  0.00  0.00    +0.000 NA
ATOM     14  C   UNL     1       2.057   3.199  18.278  0.00  0.00    +0.000 C 
ATOM     15  C   UNL     1       0.931   2.496  19.071  0.00  0.00    +0.000 C 
ATOM     16  N   UNL     1       0.483   3.243  20.263  0.00  0.00    +0.000 NA
ATOM     17  C   UNL     1       1.643   3.667  21.073  0.00  0.00    +0.000 C 
ATOM     18  C   UNL     1       2.757   4.369  20.255  0.00  0.00    +0.000 C 
ATOM     19  H   UNL     1      -0.095   2.626  20.831  0.00  0.00    +0.000 HD
ENDBRANCH  12  13
ENDBRANCH  11  12
ENDBRANCH   1  11
TORSDOF 6
ENDMDL
MODEL 6
REMARK VINA RESULT:      -6.1      3.130      6.362
REMARK  Name = 
REMARK  7 active torsions:
REMARK  status: ('A' for Active; 'I' for Inactive)
REMARK    1  A    between atoms: C_1  and  C_2
REMARK    2  A    between atoms: C_6  and  O_7
REMARK    3  A    between atoms: O_7  and  C_8
REMARK    4  A    between atoms: C_8  and  C_9
REMARK    5  A    between atoms: C_9  and  C_10
REMARK    6  A    between atoms: C_10  and  C_11
REMARK    7  A    between atoms: C_11  and  N_12
REMARK                            x       y       z     vdW  Elec       q    Type
REMARK                         _______ _______ _______ _____ _____    ______ ____
ROOT
ATOM      1  C   UNL     1       4.865   6.378  16.259  0.00  0.00    +0.000 C 
ENDROOT
BRANCH   1   2
ATOM      2  C   UNL     1       6.276   5.874  16.578  0.00  0.00    +0.000 C 
BRANCH   2   3
ATOM      3  O   UNL     1       6.449   4.536  16.112  0.00  0.00    +0.000 OA
BRANCH   3   9
ATOM      4  C   UNL     1       5.273   2.637  11.657  0.00  0.00    +0.000 C 
ATOM      5  C   UNL     1       6.095   3.542  12.529  0.00  0.00    +0.000 A 
ATOM      6  C   UNL     1       7.091   4.358  11.988  0.00  0.00    +0.000 A 
ATOM      7  C   UNL     1       7.842   5.190  12.820  0.00  0.00    +0.000 A 
ATOM      8  C   UNL     1       7.602   5.213  14.194  0.00  0.00    +0.000 A 
ATOM      9  C   UNL     1       6.608   4.405  14.750  0.00  0.00    +0.000 A 
ATOM     10  C   UNL     1       5.861   3.570  13.915  0.00  0.00    +0.000 A 
ENDBRANCH   3   9
ENDBRANCH   2   3
ENDBRANCH   1   2
BRANCH   1  11
ATOM     11  C   UNL     1       4.193   7.057  17.470  0.00  0.00    +0.000 C 
BRANCH  11  12
ATOM     12  C   UNL     1       2.998   6.238  17.960  0.00  0.00    +0.000 C 
BRANCH  12  13
ATOM     13  N   UNL     1       3.157   4.828  18.223  0.00  0.00    +0.000 NA
ATOM     14  C   UNL     1       2.066   3.931  17.851  0.00  0.00    +0.000 C 
ATOM     15  C   UNL     1       2.651   2.512  17.658  0.00  0.00    +0.000 C 
ATOM     16  N   UNL     1       3.390   2.005  18.833  0.00  0.00    +0.000 NA
ATOM     17  C   UNL     1       4.353   3.017  19.312  0.00  0.00    +0.000 C 
ATOM     18  C   UNL     1       3.742   4.429  19.497  0.00  0.00    +0.000 C 
ATOM     19  H   UNL     1       3.909   1.176  18.552  0.00  0.00    +0.000 HD
ENDBRANCH  12  13
ENDBRANCH  11  12
ENDBRANCH   1  11
TORSDOF 6
ENDMDL
MODEL 7
REMARK VINA RESULT:      -6.1      2.201      5.280
REMARK  Name = 
REMARK  7 active torsions:
REMARK  status: ('A' for Active; 'I' for Inactive)
REMARK    1  A    between atoms: C_1  and  C_2
REMARK    2  A    between atoms: C_6  and  O_7
REMARK    3  A    between atoms: O_7  and  C_8
REMARK    4  A    between atoms: C_8  and  C_9
REMARK    5  A    between atoms: C_9  and  C_10
REMARK    6  A    between atoms: C_10  and  C_11
REMARK    7  A    between atoms: C_11  and  N_12
REMARK                            x       y       z     vdW  Elec       q    Type
REMARK                         _______ _______ _______ _____ _____    ______ ____
ROOT
ATOM      1  C   UNL     1       2.496   6.783  17.990  0.00  0.00    +0.000 C 
ENDROOT
BRANCH   1   2
ATOM      2  C   UNL     1       3.518   7.790  17.455  0.00  0.00    +0.000 C 
BRANCH   2   3
ATOM      3  O   UNL     1       4.201   7.257  16.320  0.00  0.00    +0.000 OA
BRANCH   3   9
ATOM      4  C   UNL     1       8.013   5.714  19.135  0.00  0.00    +0.000 C 
ATOM      5  C   UNL     1       7.127   5.584  17.929  0.00  0.00    +0.000 A 
ATOM      6  C   UNL     1       7.307   4.550  17.009  0.00  0.00    +0.000 A 
ATOM      7  C   UNL     1       6.471   4.451  15.895  0.00  0.00    +0.000 A 
ATOM      8  C   UNL     1       5.450   5.382  15.697  0.00  0.00    +0.000 A 
ATOM      9  C   UNL     1       5.255   6.419  16.611  0.00  0.00    +0.000 A 
ATOM     10  C   UNL     1       6.098   6.518  17.721  0.00  0.00    +0.000 A 
ENDBRANCH   3   9
ENDBRANCH   2   3
ENDBRANCH   1   2
BRANCH   1  11
ATOM     11  C   UNL     1       2.602   6.589  19.517  0.00  0.00    +0.000 C 
BRANCH  11  12
ATOM     12  C   UNL     1       3.439   5.355  19.852  0.00  0.00    +0.000 C 
BRANCH  12  13
ATOM     13  N   UNL     1       2.990   4.050  19.432  0.00  0.00    +0.000 NA
ATOM     14  C   UNL     1       3.663   3.420  18.300  0.00  0.00    +0.000 C 
ATOM     15  C   UNL     1       3.462   1.891  18.406  0.00  0.00    +0.000 C 
ATOM     16  N   UNL     1       2.046   1.478  18.489  0.00  0.00    +0.000 NA
ATOM     17  C   UNL     1       1.336   2.273  19.512  0.00  0.00    +0.000 C 
ATOM     18  C   UNL     1       1.554   3.802  19.383  0.00  0.00    +0.000 C 
ATOM     19  H   UNL     1       2.012   0.498  18.764  0.00  0.00    +0.000 HD
ENDBRANCH  12  13
ENDBRANCH  11  12
ENDBRANCH   1  11
TORSDOF 6
ENDMDL
MODEL 8
REMARK VINA RESULT:      -6.1      2.069      3.226
REMARK  Name = 
REMARK  7 active torsions:
REMARK  status: ('A' for Active; 'I' for Inactive)
REMARK    1  A    between atoms: C_1  and  C_2
REMARK    2  A    between atoms: C_6  and  O_7
REMARK    3  A    between atoms: O_7  and  C_8
REMARK    4  A    between atoms: C_8  and  C_9
REMARK    5  A    between atoms: C_9  and  C_10
REMARK    6  A    between atoms: C_10  and  C_11
REMARK    7  A    between atoms: C_11  and  N_12
REMARK                            x       y       z     vdW  Elec       q    Type
REMARK                         _______ _______ _______ _____ _____    ______ ____
ROOT
ATOM      1  C   UNL     1       2.248   3.919  18.943  0.00  0.00    +0.000 C 
ENDROOT
BRANCH   1   2
ATOM      2  C   UNL     1       2.423   4.873  20.128  0.00  0.00    +0.000 C 
BRANCH   2   3
ATOM      3  O   UNL     1       3.211   6.002  19.752  0.00  0.00    +0.000 OA
BRANCH   3   9
ATOM      4  C   UNL     1       0.224   9.797  20.984  0.00  0.00    +0.000 C 
ATOM      5  C   UNL     1       1.054   9.043  19.985  0.00  0.00    +0.000 A 
ATOM      6  C   UNL     1       1.181   9.488  18.667  0.00  0.00    +0.000 A 
ATOM      7  C   UNL     1       1.957   8.769  17.757  0.00  0.00    +0.000 A 
ATOM      8  C   UNL     1       2.613   7.604  18.158  0.00  0.00    +0.000 A 
ATOM      9  C   UNL     1       2.498   7.147  19.472  0.00  0.00    +0.000 A 
ATOM     10  C   UNL     1       1.716   7.867  20.379  0.00  0.00    +0.000 A 
ENDBRANCH   3   9
ENDBRANCH   2   3
ENDBRANCH   1   2
BRANCH   1  11
ATOM     11  C   UNL     1       3.579   3.277  18.500  0.00  0.00    +0.000 C 
BRANCH  11  12
ATOM     12  C   UNL     1       3.849   3.550  17.020  0.00  0.00    +0.000 C 
BRANCH  12  13
ATOM     13  N   UNL     1       4.999   4.331  16.634  0.00  0.00    +0.000 NA
ATOM     14  C   UNL     1       5.905   3.777  15.632  0.00  0.00    +0.000 C 
ATOM     15  C   UNL     1       6.659   4.948  14.961  0.00  0.00    +0.000 C 
ATOM     16  N   UNL     1       7.377   5.821  15.912  0.00  0.00    +0.000 NA
ATOM     17  C   UNL     1       6.489   6.209  17.028  0.00  0.00    +0.000 C 
ATOM     18  C   UNL     1       5.745   5.017  17.682  0.00  0.00    +0.000 C 
ATOM     19  H   UNL     1       7.663   6.666  15.421  0.00  0.00    +0.000 HD
ENDBRANCH  12  13
ENDBRANCH  11  12
ENDBRANCH   1  11
TORSDOF 6
ENDMDL
MODEL 9
REMARK VINA RESULT:      -6.1      3.249      6.460
REMARK  Name = 
REMARK  7 active torsions:
REMARK  status: ('A' for Active; 'I' for Inactive)
REMARK    1  A    between atoms: C_1  and  C_2
REMARK    2  A    between atoms: C_6  and  O_7
REMARK    3  A    between atoms: O_7  and  C_8
REMARK    4  A    between atoms: C_8  and  C_9
REMARK    5  A    between atoms: C_9  and  C_10
REMARK    6  A    between atoms: C_10  and  C_11
REMARK    7  A    between atoms: C_11  and  N_12
REMARK                            x       y       z     vdW  Elec       q    Type
REMARK                         _______ _______ _______ _____ _____    ______ ____
ROOT
ATOM      1  C   UNL     1       5.624   6.013  17.707  0.00  0.00    +0.000 C 
ENDROOT
BRANCH   1   2
ATOM      2  C   UNL     1       4.941   5.414  16.474  0.00  0.00    +0.000 C 
BRANCH   2   3
ATOM      3  O   UNL     1       5.581   4.200  16.084  0.00  0.00    +0.000 OA
BRANCH   3   9
ATOM      4  C   UNL     1       5.085   2.712  11.354  0.00  0.00    +0.000 C 
ATOM      5  C   UNL     1       5.806   3.476  12.426  0.00  0.00    +0.000 A 
ATOM      6  C   UNL     1       6.947   4.227  12.137  0.00  0.00    +0.000 A 
ATOM      7  C   UNL     1       7.600   4.928  13.152  0.00  0.00    +0.000 A 
ATOM      8  C   UNL     1       7.116   4.886  14.460  0.00  0.00    +0.000 A 
ATOM      9  C   UNL     1       5.974   4.142  14.765  0.00  0.00    +0.000 A 
ATOM     10  C   UNL     1       5.327   3.438  13.748  0.00  0.00    +0.000 A 
ENDBRANCH   3   9
ENDBRANCH   2   3
ENDBRANCH   1   2
BRANCH   1  11
ATOM     11  C   UNL     1       5.139   5.370  19.022  0.00  0.00    +0.000 C 
BRANCH  11  12
ATOM     12  C   UNL     1       3.709   5.801  19.345  0.00  0.00    +0.000 C 
BRANCH  12  13
ATOM     13  N   UNL     1       2.684   4.803  19.525  0.00  0.00    +0.000 NA
ATOM     14  C   UNL     1       1.844   4.462  18.379  0.00  0.00    +0.000 C 
ATOM     15  C   UNL     1       1.276   3.041  18.600  0.00  0.00    +0.000 C 
ATOM     16  N   UNL     1       0.543   2.881  19.873  0.00  0.00    +0.000 NA
ATOM     17  C   UNL     1       1.337   3.417  20.997  0.00  0.00    +0.000 C 
ATOM     18  C   UNL     1       1.894   4.842  20.750  0.00  0.00    +0.000 C 
ATOM     19  H   UNL     1       0.390   1.887  20.033  0.00  0.00    +0.000 HD
ENDBRANCH  12  13
ENDBRANCH  11  12
ENDBRANCH   1  11
TORSDOF 6
ENDMDL
