MODEL 1
REMARK VINA RESULT:      -8.0      0.000      0.000
REMARK  Name = 
REMARK  7 active torsions:
REMARK  status: ('A' for Active; 'I' for Inactive)
REMARK    1  A    between atoms: C_2  and  OXT_3
REMARK    2  A    between atoms: C_2  and  CA_4
REMARK    3  A    between atoms: CA_4  and  N_20
REMARK    4  A    between atoms: C_5  and  C_6
REMARK    5  A    between atoms: C_9  and  O_10
REMARK    6  A    between atoms: O_10  and  C_11
REMARK    7  A    between atoms: C_21  and  C_23
REMARK                            x       y       z     vdW  Elec       q    Type
REMARK                         _______ _______ _______ _____ _____    ______ ____
ROOT
ATOM      1  C   UNL     1       2.671   6.610  19.158  0.00  0.00    +0.000 A 
ATOM      2  C   UNL     1       2.825   7.309  17.951  0.00  0.00    +0.000 A 
ATOM      3  C   UNL     1       2.323   8.602  17.801  0.00  0.00    +0.000 A 
ATOM      4  C   UNL     1       1.618   9.197  18.841  0.00  0.00    +0.000 A 
ATOM      5  C   UNL     1       1.510   8.540  20.070  0.00  0.00    +0.000 A 
ATOM      6  C   UNL     1       2.012   7.244  20.218  0.00  0.00    +0.000 A 
ENDROOT
BRANCH   1   8
ATOM      7  CA  UNL     1       4.088   4.546  18.727  0.00  0.00    +0.000 C 
ATOM      8  C   UNL     1       3.039   5.187  19.278  0.00  0.00    +0.000 C 
BRANCH   7   9
ATOM      9  N   UNL     1       5.167   5.134  18.090  0.00  0.00    +0.000 N 
ATOM     10  C   UNL     1       6.333   5.509  18.732  0.00  0.00    +0.000 C 
ATOM     11  O   UNL     1       6.629   5.216  19.883  0.00  0.00    +0.000 OA
ATOM     12  H   UNL     1       5.181   5.106  17.076  0.00  0.00    +0.000 HD
BRANCH  10  13
ATOM     13  C   UNL     1       7.309   6.205  17.847  0.00  0.00    +0.000 C 
ATOM     14  C   UNL     1       7.066   7.633  17.412  0.00  0.00    +0.000 C 
ATOM     15  C   UNL     1       8.148   7.330  18.406  0.00  0.00    +0.000 C 
ENDBRANCH  10  13
ENDBRANCH   7   9
BRANCH   7  17
ATOM     16  O   UNL     1       3.252   2.353  18.132  0.00  0.00    +0.000 OA
ATOM     17  C   UNL     1       4.038   3.047  18.753  0.00  0.00    +0.000 C 
BRANCH  17  18
ATOM     18  OXT UNL     1       5.024   2.543  19.533  0.00  0.00    +0.000 OA
ATOM     19  HXT UNL     1       4.777   1.669  19.894  0.00  0.00    +0.000 HD
ENDBRANCH  17  18
ENDBRANCH   7  17
ENDBRANCH   1   8
BRANCH   4  20
ATOM     20  O   UNL     1       1.077  10.432  18.576  0.00  0.00    +0.000 OA
BRANCH  20  21
ATOM     21  C   UNL     1      -0.287  10.551  18.394  0.00  0.00    +0.000 A 
ATOM     22  C   UNL     1      -1.003   9.772  17.474  0.00  0.00    +0.000 A 
ATOM     23  C   UNL     1      -2.391   9.879  17.382  0.00  0.00    +0.000 A 
ATOM     24  C   UNL     1      -3.071  10.805  18.170  0.00  0.00    +0.000 A 
ATOM     25  C   UNL     1      -2.360  11.645  19.026  0.00  0.00    +0.000 A 
ATOM     26  C   UNL     1      -0.969  11.527  19.132  0.00  0.00    +0.000 A 
ATOM     27  I   UNL     1       0.032  12.864  20.397  0.00  0.00    +0.000 I 
ENDBRANCH  20  21
ENDBRANCH   4  20
TORSDOF 7
ENDMDL
MODEL 2
REMARK VINA RESULT:      -7.9      0.987      1.049
REMARK  Name = 
REMARK  7 active torsions:
REMARK  status: ('A' for Active; 'I' for Inactive)
REMARK    1  A    between atoms: C_2  and  OXT_3
REMARK    2  A    between atoms: C_2  and  CA_4
REMARK    3  A    between atoms: CA_4  and  N_20
REMARK    4  A    between atoms: C_5  and  C_6
REMARK    5  A    between atoms: C_9  and  O_10
REMARK    6  A    between atoms: O_10  and  C_11
REMARK    7  A    between atoms: C_21  and  C_23
REMARK                            x       y       z     vdW  Elec       q    Type
REMARK                         _______ _______ _______ _____ _____    ______ ____
ROOT
ATOM      1  C   UNL     1       2.579   6.111  19.134  0.00  0.00    +0.000 A 
ATOM      2  C   UNL     1       2.814   6.825  17.948  0.00  0.00    +0.000 A 
ATOM      3  C   UNL     1       2.473   8.174  17.843  0.00  0.00    +0.000 A 
ATOM      4  C   UNL     1       1.849   8.816  18.906  0.00  0.00    +0.000 A 
ATOM      5  C   UNL     1       1.664   8.138  20.114  0.00  0.00    +0.000 A 
ATOM      6  C   UNL     1       2.005   6.786  20.217  0.00  0.00    +0.000 A 
ENDROOT
BRANCH   1   8
ATOM      7  CA  UNL     1       3.909   3.948  19.046  0.00  0.00    +0.000 C 
ATOM      8  C   UNL     1       2.770   4.651  19.206  0.00  0.00    +0.000 C 
BRANCH   7   9
ATOM      9  N   UNL     1       5.190   4.467  18.979  0.00  0.00    +0.000 N 
ATOM     10  C   UNL     1       5.882   4.666  17.798  0.00  0.00    +0.000 C 
ATOM     11  O   UNL     1       5.401   4.578  16.676  0.00  0.00    +0.000 OA
ATOM     12  H   UNL     1       5.560   4.907  19.815  0.00  0.00    +0.000 HD
BRANCH  10  13
ATOM     13  C   UNL     1       7.278   5.150  17.994  0.00  0.00    +0.000 C 
ATOM     14  C   UNL     1       7.572   6.632  18.064  0.00  0.00    +0.000 C 
ATOM     15  C   UNL     1       7.664   5.793  19.305  0.00  0.00    +0.000 C 
ENDBRANCH  10  13
ENDBRANCH   7   9
BRANCH   7  17
ATOM     16  O   UNL     1       2.946   1.929  18.120  0.00  0.00    +0.000 OA
ATOM     17  C   UNL     1       3.755   2.469  18.855  0.00  0.00    +0.000 C 
BRANCH  17  18
ATOM     18  OXT UNL     1       4.675   1.788  19.581  0.00  0.00    +0.000 OA
ATOM     19  HXT UNL     1       5.576   1.929  19.230  0.00  0.00    +0.000 HD
ENDBRANCH  17  18
ENDBRANCH   7  17
ENDBRANCH   1   8
BRANCH   4  20
ATOM     20  O   UNL     1       1.462  10.116  18.684  0.00  0.00    +0.000 OA
BRANCH  20  21
ATOM     21  C   UNL     1       0.120  10.411  18.547  0.00  0.00    +0.000 A 
ATOM     22  C   UNL     1      -0.710   9.769  17.617  0.00  0.00    +0.000 A 
ATOM     23  C   UNL     1      -2.076  10.051  17.570  0.00  0.00    +0.000 A 
ATOM     24  C   UNL     1      -2.616  11.016  18.415  0.00  0.00    +0.000 A 
ATOM     25  C   UNL     1      -1.785  11.723  19.285  0.00  0.00    +0.000 A 
ATOM     26  C   UNL     1      -0.418  11.429  19.345  0.00  0.00    +0.000 A 
ATOM     27  I   UNL     1       0.772  12.573  20.635  0.00  0.00    +0.000 I 
ENDBRANCH  20  21
ENDBRANCH   4  20
TORSDOF 7
ENDMDL
MODEL 3
REMARK VINA RESULT:      -7.8      0.736      1.213
REMARK  Name = 
REMARK  7 active torsions:
REMARK  status: ('A' for Active; 'I' for Inactive)
REMARK    1  A    between atoms: C_2  and  OXT_3
REMARK    2  A    between atoms: C_2  and  CA_4
REMARK    3  A    between atoms: CA_4  and  N_20
REMARK    4  A    between atoms: C_5  and  C_6
REMARK    5  A    between atoms: C_9  and  O_10
REMARK    6  A    between atoms: O_10  and  C_11
REMARK    7  A    between atoms: C_21  and  C_23
REMARK                            x       y       z     vdW  Elec       q    Type
REMARK                         _______ _______ _______ _____ _____    ______ ____
ROOT
ATOM      1  C   UNL     1       2.404   5.987  19.478  0.00  0.00    +0.000 A 
ATOM      2  C   UNL     1       1.860   6.749  20.524  0.00  0.00    +0.000 A 
ATOM      3  C   UNL     1       1.533   8.093  20.340  0.00  0.00    +0.000 A 
ATOM      4  C   UNL     1       1.789   8.707  19.119  0.00  0.00    +0.000 A 
ATOM      5  C   UNL     1       2.271   7.948  18.049  0.00  0.00    +0.000 A 
ATOM      6  C   UNL     1       2.601   6.602  18.236  0.00  0.00    +0.000 A 
ENDROOT
BRANCH   1   8
ATOM      7  CA  UNL     1       3.960   4.013  19.108  0.00  0.00    +0.000 C 
ATOM      8  C   UNL     1       2.915   4.623  19.703  0.00  0.00    +0.000 C 
BRANCH   7   9
ATOM      9  N   UNL     1       4.908   4.615  18.299  0.00  0.00    +0.000 N 
ATOM     10  C   UNL     1       6.070   5.197  18.772  0.00  0.00    +0.000 C 
ATOM     11  O   UNL     1       6.490   5.103  19.918  0.00  0.00    +0.000 OA
ATOM     12  H   UNL     1       4.844   4.444  17.301  0.00  0.00    +0.000 HD
BRANCH  10  13
ATOM     13  C   UNL     1       6.884   5.858  17.713  0.00  0.00    +0.000 C 
ATOM     14  C   UNL     1       6.578   7.276  17.284  0.00  0.00    +0.000 C 
ATOM     15  C   UNL     1       7.813   6.989  18.088  0.00  0.00    +0.000 C 
ENDBRANCH  10  13
ENDBRANCH   7   9
BRANCH   7  17
ATOM     16  O   UNL     1       3.269   1.707  18.854  0.00  0.00    +0.000 OA
ATOM     17  C   UNL     1       4.055   2.529  19.293  0.00  0.00    +0.000 C 
BRANCH  17  18
ATOM     18  OXT UNL     1       5.172   2.197  19.986  0.00  0.00    +0.000 OA
ATOM     19  HXT UNL     1       5.544   2.973  20.447  0.00  0.00    +0.000 HD
ENDBRANCH  17  18
ENDBRANCH   7  17
ENDBRANCH   1   8
BRANCH   4  20
ATOM     20  O   UNL     1       1.525  10.054  19.053  0.00  0.00    +0.000 OA
BRANCH  20  21
ATOM     21  C   UNL     1       0.287  10.482  18.618  0.00  0.00    +0.000 A 
ATOM     22  C   UNL     1      -0.554   9.695  17.819  0.00  0.00    +0.000 A 
ATOM     23  C   UNL     1      -1.827  10.146  17.468  0.00  0.00    +0.000 A 
ATOM     24  C   UNL     1      -2.251  11.411  17.867  0.00  0.00    +0.000 A 
ATOM     25  C   UNL     1      -1.391  12.238  18.590  0.00  0.00    +0.000 A 
ATOM     26  C   UNL     1      -0.120  11.780  18.957  0.00  0.00    +0.000 A 
ATOM     27  I   UNL     1       1.134  13.102  19.991  0.00  0.00    +0.000 I 
ENDBRANCH  20  21
ENDBRANCH   4  20
TORSDOF 7
ENDMDL
MODEL 4
REMARK VINA RESULT:      -7.7      3.770      8.494
REMARK  Name = 
REMARK  7 active torsions:
REMARK  status: ('A' for Active; 'I' for Inactive)
REMARK    1  A    between atoms: C_2  and  OXT_3
REMARK    2  A    between atoms: C_2  and  CA_4
REMARK    3  A    between atoms: CA_4  and  N_20
REMARK    4  A    between atoms: C_5  and  C_6
REMARK    5  A    between atoms: C_9  and  O_10
REMARK    6  A    between atoms: O_10  and  C_11
REMARK    7  A    between atoms: C_21  and  C_23
REMARK                            x       y       z     vdW  Elec       q    Type
REMARK                         _______ _______ _______ _____ _____    ______ ____
ROOT
ATOM      1  C   UNL     1       0.893   9.859  19.520  0.00  0.00    +0.000 A 
ATOM      2  C   UNL     1       1.567   9.313  18.417  0.00  0.00    +0.000 A 
ATOM      3  C   UNL     1       2.204   8.075  18.504  0.00  0.00    +0.000 A 
ATOM      4  C   UNL     1       2.214   7.384  19.711  0.00  0.00    +0.000 A 
ATOM      5  C   UNL     1       1.495   7.883  20.801  0.00  0.00    +0.000 A 
ATOM      6  C   UNL     1       0.860   9.125  20.712  0.00  0.00    +0.000 A 
ENDROOT
BRANCH   1   8
ATOM      7  CA  UNL     1      -0.539  11.772  18.658  0.00  0.00    +0.000 C 
ATOM      8  C   UNL     1       0.367  11.236  19.500  0.00  0.00    +0.000 C 
BRANCH   7   9
ATOM      9  N   UNL     1      -1.324  11.083  17.751  0.00  0.00    +0.000 N 
ATOM     10  C   UNL     1      -2.684  10.883  17.903  0.00  0.00    +0.000 C 
ATOM     11  O   UNL     1      -3.387  11.426  18.746  0.00  0.00    +0.000 OA
ATOM     12  H   UNL     1      -0.923  10.891  16.839  0.00  0.00    +0.000 HD
BRANCH  10  13
ATOM     13  C   UNL     1      -3.288  10.033  16.838  0.00  0.00    +0.000 C 
ATOM     14  C   UNL     1      -3.751  10.648  15.536  0.00  0.00    +0.000 C 
ATOM     15  C   UNL     1      -2.522   9.787  15.560  0.00  0.00    +0.000 C 
ENDBRANCH  10  13
ENDBRANCH   7   9
BRANCH   7  17
ATOM     16  O   UNL     1       0.046  14.033  18.017  0.00  0.00    +0.000 OA
ATOM     17  C   UNL     1      -0.647  13.268  18.666  0.00  0.00    +0.000 C 
BRANCH  17  18
ATOM     18  OXT UNL     1      -1.662  13.676  19.466  0.00  0.00    +0.000 OA
ATOM     19  HXT UNL     1      -2.502  13.243  19.219  0.00  0.00    +0.000 HD
ENDBRANCH  17  18
ENDBRANCH   7  17
ENDBRANCH   1   8
BRANCH   4  20
ATOM     20  O   UNL     1       2.943   6.220  19.735  0.00  0.00    +0.000 OA
BRANCH  20  21
ATOM     21  C   UNL     1       2.315   5.020  19.465  0.00  0.00    +0.000 A 
ATOM     22  C   UNL     1       1.294   4.497  20.272  0.00  0.00    +0.000 A 
ATOM     23  C   UNL     1       0.641   3.317  19.915  0.00  0.00    +0.000 A 
ATOM     24  C   UNL     1       1.038   2.620  18.777  0.00  0.00    +0.000 A 
ATOM     25  C   UNL     1       2.110   3.084  18.014  0.00  0.00    +0.000 A 
ATOM     26  C   UNL     1       2.754   4.277  18.362  0.00  0.00    +0.000 A 
ATOM     27  I   UNL     1       4.391   4.877  17.200  0.00  0.00    +0.000 I 
ENDBRANCH  20  21
ENDBRANCH   4  20
TORSDOF 7
ENDMDL
MODEL 5
REMARK VINA RESULT:      -7.6      1.136      1.671
REMARK  Name = 
REMARK  7 active torsions:
REMARK  status: ('A' for Active; 'I' for Inactive)
REMARK    1  A    between atoms: C_2  and  OXT_3
REMARK    2  A    between atoms: C_2  and  CA_4
REMARK    3  A    between atoms: CA_4  and  N_20
REMARK    4  A    between atoms: C_5  and  C_6
REMARK    5  A    between atoms: C_9  and  O_10
REMARK    6  A    between atoms: O_10  and  C_11
REMARK    7  A    between atoms: C_21  and  C_23
REMARK                            x       y       z     vdW  Elec       q    Type
REMARK                         _______ _______ _______ _____ _____    ______ ____
ROOT
ATOM      1  C   UNL     1       2.462   6.101  19.375  0.00  0.00    +0.000 A 
ATOM      2  C   UNL     1       1.927   6.880  20.412  0.00  0.00    +0.000 A 
ATOM      3  C   UNL     1       1.558   8.209  20.196  0.00  0.00    +0.000 A 
ATOM      4  C   UNL     1       1.764   8.791  18.949  0.00  0.00    +0.000 A 
ATOM      5  C   UNL     1       2.237   8.011  17.890  0.00  0.00    +0.000 A 
ATOM      6  C   UNL     1       2.608   6.681  18.110  0.00  0.00    +0.000 A 
ENDROOT
BRANCH   1   8
ATOM      7  CA  UNL     1       3.888   4.059  18.873  0.00  0.00    +0.000 C 
ATOM      8  C   UNL     1       3.017   4.758  19.627  0.00  0.00    +0.000 C 
BRANCH   7   9
ATOM      9  N   UNL     1       4.609   4.540  17.795  0.00  0.00    +0.000 N 
ATOM     10  C   UNL     1       5.942   4.904  17.858  0.00  0.00    +0.000 C 
ATOM     11  O   UNL     1       6.688   4.688  18.804  0.00  0.00    +0.000 OA
ATOM     12  H   UNL     1       4.199   4.432  16.873  0.00  0.00    +0.000 HD
BRANCH  10  13
ATOM     13  C   UNL     1       6.469   5.478  16.587  0.00  0.00    +0.000 C 
ATOM     14  C   UNL     1       6.846   4.573  15.436  0.00  0.00    +0.000 C 
ATOM     15  C   UNL     1       5.616   5.429  15.341  0.00  0.00    +0.000 C 
ENDBRANCH  10  13
ENDBRANCH   7   9
BRANCH   7  17
ATOM     16  O   UNL     1       3.286   1.714  18.823  0.00  0.00    +0.000 OA
ATOM     17  C   UNL     1       4.030   2.603  19.202  0.00  0.00    +0.000 C 
BRANCH  17  18
ATOM     18  OXT UNL     1       5.137   2.380  19.950  0.00  0.00    +0.000 OA
ATOM     19  HXT UNL     1       4.953   1.748  20.672  0.00  0.00    +0.000 HD
ENDBRANCH  17  18
ENDBRANCH   7  17
ENDBRANCH   1   8
BRANCH   4  20
ATOM     20  O   UNL     1       1.461  10.127  18.850  0.00  0.00    +0.000 OA
BRANCH  20  21
ATOM     21  C   UNL     1       0.147  10.515  18.679  0.00  0.00    +0.000 A 
ATOM     22  C   UNL     1      -0.728   9.871  17.793  0.00  0.00    +0.000 A 
ATOM     23  C   UNL     1      -2.067  10.255  17.713  0.00  0.00    +0.000 A 
ATOM     24  C   UNL     1      -2.531  11.322  18.478  0.00  0.00    +0.000 A 
ATOM     25  C   UNL     1      -1.650  12.026  19.299  0.00  0.00    +0.000 A 
ATOM     26  C   UNL     1      -0.310  11.630  19.393  0.00  0.00    +0.000 A 
ATOM     27  I   UNL     1       0.962  12.773  20.603  0.00  0.00    +0.000 I 
ENDBRANCH  20  21
ENDBRANCH   4  20
TORSDOF 7
ENDMDL
MODEL 6
REMARK VINA RESULT:      -7.6      1.701      2.338
REMARK  Name = 
REMARK  7 active torsions:
REMARK  status: ('A' for Active; 'I' for Inactive)
REMARK    1  A    between atoms: C_2  and  OXT_3
REMARK    2  A    between atoms: C_2  and  CA_4
REMARK    3  A    between atoms: CA_4  and  N_20
REMARK    4  A    between atoms: C_5  and  C_6
REMARK    5  A    between atoms: C_9  and  O_10
REMARK    6  A    between atoms: O_10  and  C_11
REMARK    7  A    between atoms: C_21  and  C_23
REMARK                            x       y       z     vdW  Elec       q    Type
REMARK                         _______ _______ _______ _____ _____    ______ ____
ROOT
ATOM      1  C   UNL     1       2.651   6.633  19.158  0.00  0.00    +0.000 A 
ATOM      2  C   UNL     1       2.630   7.294  17.920  0.00  0.00    +0.000 A 
ATOM      3  C   UNL     1       2.030   8.546  17.785  0.00  0.00    +0.000 A 
ATOM      4  C   UNL     1       1.400   9.135  18.876  0.00  0.00    +0.000 A 
ATOM      5  C   UNL     1       1.466   8.520  20.129  0.00  0.00    +0.000 A 
ATOM      6  C   UNL     1       2.067   7.264  20.263  0.00  0.00    +0.000 A 
ENDROOT
BRANCH   1   8
ATOM      7  CA  UNL     1       4.213   4.676  18.725  0.00  0.00    +0.000 C 
ATOM      8  C   UNL     1       3.124   5.242  19.282  0.00  0.00    +0.000 C 
BRANCH   7   9
ATOM      9  N   UNL     1       5.238   5.338  18.075  0.00  0.00    +0.000 N 
ATOM     10  C   UNL     1       6.437   5.683  18.673  0.00  0.00    +0.000 C 
ATOM     11  O   UNL     1       6.811   5.301  19.774  0.00  0.00    +0.000 OA
ATOM     12  H   UNL     1       5.189   5.395  17.063  0.00  0.00    +0.000 HD
BRANCH  10  13
ATOM     13  C   UNL     1       7.344   6.471  17.791  0.00  0.00    +0.000 C 
ATOM     14  C   UNL     1       7.061   7.929  17.508  0.00  0.00    +0.000 C 
ATOM     15  C   UNL     1       8.213   7.550  18.393  0.00  0.00    +0.000 C 
ENDBRANCH  10  13
ENDBRANCH   7   9
BRANCH   7  17
ATOM     16  O   UNL     1       3.663   2.426  18.019  0.00  0.00    +0.000 OA
ATOM     17  C   UNL     1       4.273   3.178  18.760  0.00  0.00    +0.000 C 
BRANCH  17  18
ATOM     18  OXT UNL     1       5.142   2.750  19.706  0.00  0.00    +0.000 OA
ATOM     19  HXT UNL     1       4.912   1.853  20.017  0.00  0.00    +0.000 HD
ENDBRANCH  17  18
ENDBRANCH   7  17
ENDBRANCH   1   8
BRANCH   4  20
ATOM     20  O   UNL     1       0.753  10.322  18.632  0.00  0.00    +0.000 OA
BRANCH  20  21
ATOM     21  C   UNL     1       1.405  11.514  18.878  0.00  0.00    +0.000 A 
ATOM     22  C   UNL     1       2.457  11.985  18.079  0.00  0.00    +0.000 A 
ATOM     23  C   UNL     1       3.034  13.231  18.327  0.00  0.00    +0.000 A 
ATOM     24  C   UNL     1       2.602  13.995  19.408  0.00  0.00    +0.000 A 
ATOM     25  C   UNL     1       1.615  13.499  20.261  0.00  0.00    +0.000 A 
ATOM     26  C   UNL     1       1.024  12.256  20.003  0.00  0.00    +0.000 A 
ATOM     27  I   UNL     1      -0.408  11.555  21.362  0.00  0.00    +0.000 I 
ENDBRANCH  20  21
ENDBRANCH   4  20
TORSDOF 7
ENDMDL
MODEL 7
REMARK VINA RESULT:      -7.6      3.702      8.393
REMARK  Name = 
REMARK  7 active torsions:
REMARK  status: ('A' for Active; 'I' for Inactive)
REMARK    1  A    between atoms: C_2  and  OXT_3
REMARK    2  A    between atoms: C_2  and  CA_4
REMARK    3  A    between atoms: CA_4  and  N_20
REMARK    4  A    between atoms: C_5  and  C_6
REMARK    5  A    between atoms: C_9  and  O_10
REMARK    6  A    between atoms: O_10  and  C_11
REMARK    7  A    between atoms: C_21  and  C_23
REMARK                            x       y       z     vdW  Elec       q    Type
REMARK                         _______ _______ _______ _____ _____    ______ ____
ROOT
ATOM      1  C   UNL     1       1.094   9.343  18.703  0.00  0.00    +0.000 A 
ATOM      2  C   UNL     1       1.054   8.919  20.041  0.00  0.00    +0.000 A 
ATOM      3  C   UNL     1       1.752   7.785  20.457  0.00  0.00    +0.000 A 
ATOM      4  C   UNL     1       2.463   7.030  19.530  0.00  0.00    +0.000 A 
ATOM      5  C   UNL     1       2.564   7.472  18.208  0.00  0.00    +0.000 A 
ATOM      6  C   UNL     1       1.863   8.608  17.793  0.00  0.00    +0.000 A 
ENDROOT
BRANCH   1   8
ATOM      7  CA  UNL     1      -0.666  11.164  18.903  0.00  0.00    +0.000 C 
ATOM      8  C   UNL     1       0.229  10.431  18.212  0.00  0.00    +0.000 C 
BRANCH   7   9
ATOM      9  N   UNL     1      -0.820  11.186  20.278  0.00  0.00    +0.000 N 
ATOM     10  C   UNL     1      -0.543  12.287  21.068  0.00  0.00    +0.000 C 
ATOM     11  O   UNL     1      -0.301  13.412  20.650  0.00  0.00    +0.000 OA
ATOM     12  H   UNL     1      -1.349  10.430  20.700  0.00  0.00    +0.000 HD
BRANCH  10  13
ATOM     13  C   UNL     1      -0.702  12.033  22.528  0.00  0.00    +0.000 C 
ATOM     14  C   UNL     1      -2.069  11.761  23.114  0.00  0.00    +0.000 C 
ATOM     15  C   UNL     1      -1.068  10.647  23.006  0.00  0.00    +0.000 C 
ENDBRANCH  10  13
ENDBRANCH   7   9
BRANCH   7  17
ATOM     16  O   UNL     1      -2.806  11.717  17.915  0.00  0.00    +0.000 OA
ATOM     17  C   UNL     1      -1.627  11.977  18.089  0.00  0.00    +0.000 C 
BRANCH  17  18
ATOM     18  OXT UNL     1      -1.026  13.085  17.594  0.00  0.00    +0.000 OA
ATOM     19  HXT UNL     1      -1.646  13.611  17.051  0.00  0.00    +0.000 HD
ENDBRANCH  17  18
ENDBRANCH   7  17
ENDBRANCH   1   8
BRANCH   4  20
ATOM     20  O   UNL     1       3.041   5.878  20.006  0.00  0.00    +0.000 OA
BRANCH  20  21
ATOM     21  C   UNL     1       2.514   4.654  19.644  0.00  0.00    +0.000 A 
ATOM     22  C   UNL     1       1.318   4.152  20.177  0.00  0.00    +0.000 A 
ATOM     23  C   UNL     1       0.790   2.943  19.723  0.00  0.00    +0.000 A 
ATOM     24  C   UNL     1       1.480   2.198  18.770  0.00  0.00    +0.000 A 
ATOM     25  C   UNL     1       2.713   2.645  18.295  0.00  0.00    +0.000 A 
ATOM     26  C   UNL     1       3.235   3.866  18.738  0.00  0.00    +0.000 A 
ATOM     27  I   UNL     1       5.118   4.440  18.021  0.00  0.00    +0.000 I 
ENDBRANCH  20  21
ENDBRANCH   4  20
TORSDOF 7
ENDMDL
MODEL 8
REMARK VINA RESULT:      -7.6      1.528      2.027
REMARK  Name = 
REMARK  7 active torsions:
REMARK  status: ('A' for Active; 'I' for Inactive)
REMARK    1  A    between atoms: C_2  and  OXT_3
REMARK    2  A    between atoms: C_2  and  CA_4
REMARK    3  A    between atoms: CA_4  and  N_20
REMARK    4  A    between atoms: C_5  and  C_6
REMARK    5  A    between atoms: C_9  and  O_10
REMARK    6  A    between atoms: O_10  and  C_11
REMARK    7  A    between atoms: C_21  and  C_23
REMARK                            x       y       z     vdW  Elec       q    Type
REMARK                         _______ _______ _______ _____ _____    ______ ____
ROOT
ATOM      1  C   UNL     1       2.598   6.332  19.355  0.00  0.00    +0.000 A 
ATOM      2  C   UNL     1       2.791   6.923  18.096  0.00  0.00    +0.000 A 
ATOM      3  C   UNL     1       2.346   8.219  17.835  0.00  0.00    +0.000 A 
ATOM      4  C   UNL     1       1.659   8.927  18.815  0.00  0.00    +0.000 A 
ATOM      5  C   UNL     1       1.512   8.378  20.092  0.00  0.00    +0.000 A 
ATOM      6  C   UNL     1       1.957   7.079  20.352  0.00  0.00    +0.000 A 
ENDROOT
BRANCH   1   8
ATOM      7  CA  UNL     1       4.052   4.250  19.353  0.00  0.00    +0.000 C 
ATOM      8  C   UNL     1       2.903   4.910  19.595  0.00  0.00    +0.000 C 
BRANCH   7   9
ATOM      9  N   UNL     1       5.267   4.816  19.011  0.00  0.00    +0.000 N 
ATOM     10  C   UNL     1       5.772   4.842  17.723  0.00  0.00    +0.000 C 
ATOM     11  O   UNL     1       5.148   4.535  16.715  0.00  0.00    +0.000 OA
ATOM     12  H   UNL     1       5.713   5.414  19.699  0.00  0.00    +0.000 HD
BRANCH  10  13
ATOM     13  C   UNL     1       7.139   5.427  17.626  0.00  0.00    +0.000 C 
ATOM     14  C   UNL     1       7.328   6.925  17.542  0.00  0.00    +0.000 C 
ATOM     15  C   UNL     1       7.704   6.194  18.799  0.00  0.00    +0.000 C 
ENDBRANCH  10  13
ENDBRANCH   7   9
BRANCH   7  17
ATOM     16  O   UNL     1       3.086   2.073  18.916  0.00  0.00    +0.000 OA
ATOM     17  C   UNL     1       3.978   2.753  19.394  0.00  0.00    +0.000 C 
BRANCH  17  18
ATOM     18  OXT UNL     1       5.070   2.230  20.002  0.00  0.00    +0.000 OA
ATOM     19  HXT UNL     1       5.417   1.464  19.505  0.00  0.00    +0.000 HD
ENDBRANCH  17  18
ENDBRANCH   7  17
ENDBRANCH   1   8
BRANCH   4  20
ATOM     20  O   UNL     1       1.173  10.158  18.443  0.00  0.00    +0.000 OA
BRANCH  20  21
ATOM     21  C   UNL     1       0.427  10.893  19.342  0.00  0.00    +0.000 A 
ATOM     22  C   UNL     1       0.971  11.445  20.511  0.00  0.00    +0.000 A 
ATOM     23  C   UNL     1       0.191  12.243  21.349  0.00  0.00    +0.000 A 
ATOM     24  C   UNL     1      -1.154  12.451  21.056  0.00  0.00    +0.000 A 
ATOM     25  C   UNL     1      -1.728  11.837  19.943  0.00  0.00    +0.000 A 
ATOM     26  C   UNL     1      -0.942  11.050  19.092  0.00  0.00    +0.000 A 
ATOM     27  I   UNL     1      -1.890  10.115  17.475  0.00  0.00    +0.000 I 
ENDBRANCH  20  21
ENDBRANCH   4  20
TORSDOF 7
ENDMDL
MODEL 9
REMARK VINA RESULT:      -7.5      1.724      3.563
REMARK  Name = 
REMARK  7 active torsions:
REMARK  status: ('A' for Active; 'I' for Inactive)
REMARK    1  A    between atoms: C_2  and  OXT_3
REMARK    2  A    between atoms: C_2  and  CA_4
REMARK    3  A    between atoms: CA_4  and  N_20
REMARK    4  A    between atoms: C_5  and  C_6
REMARK    5  A    between atoms: C_9  and  O_10
REMARK    6  A    between atoms: O_10  and  C_11
REMARK    7  A    between atoms: C_21  and  C_23
REMARK                            x       y       z     vdW  Elec       q    Type
REMARK                         _______ _______ _______ _____ _____    ______ ____
ROOT
ATOM      1  C   UNL     1       3.214   7.026  18.130  0.00  0.00    +0.000 A 
ATOM      2  C   UNL     1       2.723   6.809  19.427  0.00  0.00    +0.000 A 
ATOM      3  C   UNL     1       1.838   7.710  20.020  0.00  0.00    +0.000 A 
ATOM      4  C   UNL     1       1.468   8.867  19.343  0.00  0.00    +0.000 A 
ATOM      5  C   UNL     1       1.898   9.067  18.028  0.00  0.00    +0.000 A 
ATOM      6  C   UNL     1       2.785   8.164  17.435  0.00  0.00    +0.000 A 
ENDROOT
BRANCH   1   8
ATOM      7  CA  UNL     1       4.570   4.897  17.841  0.00  0.00    +0.000 C 
ATOM      8  C   UNL     1       4.277   6.182  17.556  0.00  0.00    +0.000 C 
BRANCH   7   9
ATOM      9  N   UNL     1       3.801   4.029  18.594  0.00  0.00    +0.000 N 
ATOM     10  C   UNL     1       2.723   3.321  18.095  0.00  0.00    +0.000 C 
ATOM     11  O   UNL     1       2.423   3.235  16.911  0.00  0.00    +0.000 OA
ATOM     12  H   UNL     1       4.166   3.746  19.498  0.00  0.00    +0.000 HD
BRANCH  10  13
ATOM     13  C   UNL     1       2.000   2.522  19.125  0.00  0.00    +0.000 C 
ATOM     14  C   UNL     1       1.029   3.191  20.072  0.00  0.00    +0.000 C 
ATOM     15  C   UNL     1       0.513   2.297  18.982  0.00  0.00    +0.000 C 
ENDBRANCH  10  13
ENDBRANCH   7   9
BRANCH   7  17
ATOM     16  O   UNL     1       6.205   4.250  16.176  0.00  0.00    +0.000 OA
ATOM     17  C   UNL     1       5.893   4.394  17.346  0.00  0.00    +0.000 C 
BRANCH  17  18
ATOM     18  OXT UNL     1       6.737   4.154  18.378  0.00  0.00    +0.000 OA
ATOM     19  HXT UNL     1       6.487   4.673  19.167  0.00  0.00    +0.000 HD
ENDBRANCH  17  18
ENDBRANCH   7  17
ENDBRANCH   1   8
BRANCH   4  20
ATOM     20  O   UNL     1       0.671   9.745  20.037  0.00  0.00    +0.000 OA
BRANCH  20  21
ATOM     21  C   UNL     1      -0.298  10.460  19.362  0.00  0.00    +0.000 A 
ATOM     22  C   UNL     1      -1.364   9.848  18.686  0.00  0.00    +0.000 A 
ATOM     23  C   UNL     1      -2.358  10.619  18.083  0.00  0.00    +0.000 A 
ATOM     24  C   UNL     1      -2.267  12.009  18.101  0.00  0.00    +0.000 A 
ATOM     25  C   UNL     1      -1.167  12.627  18.695  0.00  0.00    +0.000 A 
ATOM     26  C   UNL     1      -0.178  11.855  19.316  0.00  0.00    +0.000 A 
ATOM     27  I   UNL     1       1.471  12.855  20.135  0.00  0.00    +0.000 I 
ENDBRANCH  20  21
ENDBRANCH   4  20
TORSDOF 7
ENDMDL
