MODEL 1
REMARK VINA RESULT:      -8.3      0.000      0.000
REMARK  Name = 
REMARK  6 active torsions:
REMARK  status: ('A' for Active; 'I' for Inactive)
REMARK    1  A    between atoms: C_1  and  C_2
REMARK    2  A    between atoms: C_2  and  C_3
REMARK    3  A    between atoms: C_5  and  C_6
REMARK    4  A    between atoms: C_12  and  C_13
REMARK    5  A    between atoms: C_16  and  S_17
REMARK    6  A    between atoms: S_17  and  C_18
REMARK                            x       y       z     vdW  Elec       q    Type
REMARK                         _______ _______ _______ _____ _____    ______ ____
ROOT
ATOM      1  C   UNL     1       5.808   4.614  15.425  0.00  0.00    +0.000 A 
ATOM      2  C   UNL     1       4.911   3.920  16.130  0.00  0.00    +0.000 A 
ATOM      3  C   UNL     1       4.085   4.577  17.120  0.00  0.00    +0.000 A 
ATOM      4  C   UNL     1       4.259   5.892  17.377  0.00  0.00    +0.000 A 
ATOM      5  C   UNL     1       5.321   6.651  16.642  0.00  0.00    +0.000 A 
ATOM      6  O   UNL     1       5.544   7.837  16.883  0.00  0.00    +0.000 OA
ATOM      7  O   UNL     1       6.018   5.988  15.667  0.00  0.00    +0.000 OA
ENDROOT
BRANCH   3   8
ATOM      8  C   UNL     1       2.997   3.807  17.767  0.00  0.00    +0.000 A 
ATOM      9  C   UNL     1       3.321   2.752  18.631  0.00  0.00    +0.000 A 
ATOM     10  C   UNL     1       2.313   1.997  19.228  0.00  0.00    +0.000 A 
ATOM     11  C   UNL     1       0.977   2.307  18.985  0.00  0.00    +0.000 A 
ATOM     12  C   UNL     1       0.646   3.375  18.152  0.00  0.00    +0.000 A 
ATOM     13  C   UNL     1       1.654   4.128  17.543  0.00  0.00    +0.000 A 
ENDBRANCH   3   8
BRANCH   4  14
ATOM     14  C   UNL     1       3.388   6.638  18.317  0.00  0.00    +0.000 A 
ATOM     15  C   UNL     1       3.189   6.193  19.633  0.00  0.00    +0.000 A 
ATOM     16  C   UNL     1       2.346   6.899  20.499  0.00  0.00    +0.000 A 
ATOM     17  C   UNL     1       1.717   8.064  20.051  0.00  0.00    +0.000 A 
ATOM     18  C   UNL     1       1.888   8.506  18.738  0.00  0.00    +0.000 A 
ATOM     19  C   UNL     1       2.731   7.797  17.879  0.00  0.00    +0.000 A 
BRANCH  17  20
ATOM     20  S   UNL     1       0.683   8.996  21.159  0.00  0.00    +0.000 S 
ATOM     21  C   UNL     1       0.072  10.312  20.135  0.00  0.00    +0.000 C 
ATOM     22  O   UNL     1      -0.439   8.152  21.525  0.00  0.00    +0.000 OA
ATOM     23  O   UNL     1       1.537   9.578  22.177  0.00  0.00    +0.000 OA
ENDBRANCH  17  20
ENDBRANCH   4  14
BRANCH   1  25
ATOM     24  C   UNL     1       5.780   3.681  13.087  0.00  0.00    +0.000 C 
ATOM     25  C   UNL     1       6.619   4.023  14.307  0.00  0.00    +0.000 C 
ENDBRANCH   1  25
TORSDOF 4
ENDMDL
MODEL 2
REMARK VINA RESULT:      -8.2      0.255      1.002
REMARK  Name = 
REMARK  6 active torsions:
REMARK  status: ('A' for Active; 'I' for Inactive)
REMARK    1  A    between atoms: C_1  and  C_2
REMARK    2  A    between atoms: C_2  and  C_3
REMARK    3  A    between atoms: C_5  and  C_6
REMARK    4  A    between atoms: C_12  and  C_13
REMARK    5  A    between atoms: C_16  and  S_17
REMARK    6  A    between atoms: S_17  and  C_18
REMARK                            x       y       z     vdW  Elec       q    Type
REMARK                         _______ _______ _______ _____ _____    ______ ____
ROOT
ATOM      1  C   UNL     1       5.713   4.594  15.636  0.00  0.00    +0.000 A 
ATOM      2  C   UNL     1       4.828   3.911  16.365  0.00  0.00    +0.000 A 
ATOM      3  C   UNL     1       3.971   4.591  17.312  0.00  0.00    +0.000 A 
ATOM      4  C   UNL     1       4.105   5.922  17.504  0.00  0.00    +0.000 A 
ATOM      5  C   UNL     1       5.154   6.675  16.744  0.00  0.00    +0.000 A 
ATOM      6  O   UNL     1       5.341   7.876  16.927  0.00  0.00    +0.000 OA
ATOM      7  O   UNL     1       5.882   5.984  15.811  0.00  0.00    +0.000 OA
ENDROOT
BRANCH   3   8
ATOM      8  C   UNL     1       2.898   3.824  17.985  0.00  0.00    +0.000 A 
ATOM      9  C   UNL     1       3.237   2.884  18.967  0.00  0.00    +0.000 A 
ATOM     10  C   UNL     1       2.245   2.131  19.593  0.00  0.00    +0.000 A 
ATOM     11  C   UNL     1       0.907   2.330  19.258  0.00  0.00    +0.000 A 
ATOM     12  C   UNL     1       0.559   3.286  18.305  0.00  0.00    +0.000 A 
ATOM     13  C   UNL     1       1.552   4.036  17.668  0.00  0.00    +0.000 A 
ENDBRANCH   3   8
BRANCH   4  14
ATOM     14  C   UNL     1       3.202   6.689  18.396  0.00  0.00    +0.000 A 
ATOM     15  C   UNL     1       2.514   7.822  17.935  0.00  0.00    +0.000 A 
ATOM     16  C   UNL     1       1.683   8.546  18.797  0.00  0.00    +0.000 A 
ATOM     17  C   UNL     1       1.525   8.121  20.120  0.00  0.00    +0.000 A 
ATOM     18  C   UNL     1       2.220   7.010  20.599  0.00  0.00    +0.000 A 
ATOM     19  C   UNL     1       3.048   6.292  19.732  0.00  0.00    +0.000 A 
BRANCH  17  20
ATOM     20  S   UNL     1       0.433   9.006  21.211  0.00  0.00    +0.000 S 
ATOM     21  C   UNL     1      -0.353  10.179  20.136  0.00  0.00    +0.000 C 
ATOM     22  O   UNL     1      -0.575   8.072  21.674  0.00  0.00    +0.000 OA
ATOM     23  O   UNL     1       1.254   9.741  22.156  0.00  0.00    +0.000 OA
ENDBRANCH  17  20
ENDBRANCH   4  14
BRANCH   1  25
ATOM     24  C   UNL     1       5.806   3.810  13.246  0.00  0.00    +0.000 C 
ATOM     25  C   UNL     1       6.555   3.971  14.558  0.00  0.00    +0.000 C 
ENDBRANCH   1  25
TORSDOF 4
ENDMDL
MODEL 3
REMARK VINA RESULT:      -8.1      1.065      1.256
REMARK  Name = 
REMARK  6 active torsions:
REMARK  status: ('A' for Active; 'I' for Inactive)
REMARK    1  A    between atoms: C_1  and  C_2
REMARK    2  A    between atoms: C_2  and  C_3
REMARK    3  A    between atoms: C_5  and  C_6
REMARK    4  A    between atoms: C_12  and  C_13
REMARK    5  A    between atoms: C_16  and  S_17
REMARK    6  A    between atoms: S_17  and  C_18
REMARK                            x       y       z     vdW  Elec       q    Type
REMARK                         _______ _______ _______ _____ _____    ______ ____
ROOT
ATOM      1  C   UNL     1       5.492   4.362  15.920  0.00  0.00    +0.000 A 
ATOM      2  C   UNL     1       4.642   3.810  16.788  0.00  0.00    +0.000 A 
ATOM      3  C   UNL     1       3.810   4.639  17.633  0.00  0.00    +0.000 A 
ATOM      4  C   UNL     1       3.932   5.984  17.587  0.00  0.00    +0.000 A 
ATOM      5  C   UNL     1       4.944   6.600  16.669  0.00  0.00    +0.000 A 
ATOM      6  O   UNL     1       5.121   7.816  16.634  0.00  0.00    +0.000 OA
ATOM      7  O   UNL     1       5.648   5.762  15.844  0.00  0.00    +0.000 OA
ENDROOT
BRANCH   3   8
ATOM      8  C   UNL     1       2.772   3.993  18.469  0.00  0.00    +0.000 A 
ATOM      9  C   UNL     1       3.107   3.535  19.751  0.00  0.00    +0.000 A 
ATOM     10  C   UNL     1       2.151   2.899  20.542  0.00  0.00    +0.000 A 
ATOM     11  C   UNL     1       0.852   2.738  20.068  0.00  0.00    +0.000 A 
ATOM     12  C   UNL     1       0.502   3.219  18.806  0.00  0.00    +0.000 A 
ATOM     13  C   UNL     1       1.460   3.847  18.006  0.00  0.00    +0.000 A 
ENDBRANCH   3   8
BRANCH   4  14
ATOM     14  C   UNL     1       3.051   6.888  18.364  0.00  0.00    +0.000 A 
ATOM     15  C   UNL     1       2.795   6.660  19.726  0.00  0.00    +0.000 A 
ATOM     16  C   UNL     1       1.943   7.512  20.438  0.00  0.00    +0.000 A 
ATOM     17  C   UNL     1       1.362   8.605  19.789  0.00  0.00    +0.000 A 
ATOM     18  C   UNL     1       1.589   8.831  18.431  0.00  0.00    +0.000 A 
ATOM     19  C   UNL     1       2.441   7.977  17.726  0.00  0.00    +0.000 A 
BRANCH  17  20
ATOM     20  S   UNL     1       0.316   9.722  20.697  0.00  0.00    +0.000 S 
ATOM     21  C   UNL     1      -0.417   8.679  21.933  0.00  0.00    +0.000 C 
ATOM     22  O   UNL     1       1.175  10.679  21.367  0.00  0.00    +0.000 OA
ATOM     23  O   UNL     1      -0.736  10.167  19.803  0.00  0.00    +0.000 OA
ENDBRANCH  17  20
ENDBRANCH   4  14
BRANCH   1  25
ATOM     24  C   UNL     1       5.988   3.920  13.491  0.00  0.00    +0.000 C 
ATOM     25  C   UNL     1       6.304   3.567  14.935  0.00  0.00    +0.000 C 
ENDBRANCH   1  25
TORSDOF 4
ENDMDL
MODEL 4
REMARK VINA RESULT:      -8.0      1.198      1.652
REMARK  Name = 
REMARK  6 active torsions:
REMARK  status: ('A' for Active; 'I' for Inactive)
REMARK    1  A    between atoms: C_1  and  C_2
REMARK    2  A    between atoms: C_2  and  C_3
REMARK    3  A    between atoms: C_5  and  C_6
REMARK    4  A    between atoms: C_12  and  C_13
REMARK    5  A    between atoms: C_16  and  S_17
REMARK    6  A    between atoms: S_17  and  C_18
REMARK                            x       y       z     vdW  Elec       q    Type
REMARK                         _______ _______ _______ _____ _____    ______ ____
ROOT
ATOM      1  C   UNL     1       5.335   4.337  16.038  0.00  0.00    +0.000 A 
ATOM      2  C   UNL     1       4.537   3.811  16.970  0.00  0.00    +0.000 A 
ATOM      3  C   UNL     1       3.724   4.664  17.810  0.00  0.00    +0.000 A 
ATOM      4  C   UNL     1       3.813   6.007  17.692  0.00  0.00    +0.000 A 
ATOM      5  C   UNL     1       4.769   6.598  16.700  0.00  0.00    +0.000 A 
ATOM      6  O   UNL     1       4.916   7.814  16.597  0.00  0.00    +0.000 OA
ATOM      7  O   UNL     1       5.455   5.735  15.886  0.00  0.00    +0.000 OA
ENDROOT
BRANCH   3   8
ATOM      8  C   UNL     1       2.739   4.040  18.723  0.00  0.00    +0.000 A 
ATOM      9  C   UNL     1       1.441   3.781  18.261  0.00  0.00    +0.000 A 
ATOM     10  C   UNL     1       0.491   3.220  19.113  0.00  0.00    +0.000 A 
ATOM     11  C   UNL     1       0.837   2.893  20.421  0.00  0.00    +0.000 A 
ATOM     12  C   UNL     1       2.136   3.118  20.879  0.00  0.00    +0.000 A 
ATOM     13  C   UNL     1       3.088   3.690  20.032  0.00  0.00    +0.000 A 
ENDBRANCH   3   8
BRANCH   4  14
ATOM     14  C   UNL     1       2.946   6.931  18.463  0.00  0.00    +0.000 A 
ATOM     15  C   UNL     1       2.729   6.747  19.838  0.00  0.00    +0.000 A 
ATOM     16  C   UNL     1       1.890   7.616  20.544  0.00  0.00    +0.000 A 
ATOM     17  C   UNL     1       1.283   8.683  19.876  0.00  0.00    +0.000 A 
ATOM     18  C   UNL     1       1.472   8.865  18.505  0.00  0.00    +0.000 A 
ATOM     19  C   UNL     1       2.311   7.994  17.806  0.00  0.00    +0.000 A 
BRANCH  17  20
ATOM     20  S   UNL     1       0.254   9.823  20.775  0.00  0.00    +0.000 S 
ATOM     21  C   UNL     1      -0.416   8.823  22.080  0.00  0.00    +0.000 C 
ATOM     22  O   UNL     1       1.121  10.820  21.371  0.00  0.00    +0.000 OA
ATOM     23  O   UNL     1      -0.838  10.214  19.903  0.00  0.00    +0.000 OA
ENDBRANCH  17  20
ENDBRANCH   4  14
BRANCH   1  25
ATOM     24  C   UNL     1       6.547   4.300  13.832  0.00  0.00    +0.000 C 
ATOM     25  C   UNL     1       6.120   3.511  15.058  0.00  0.00    +0.000 C 
ENDBRANCH   1  25
TORSDOF 4
ENDMDL
MODEL 5
REMARK VINA RESULT:      -8.0      1.226      1.713
REMARK  Name = 
REMARK  6 active torsions:
REMARK  status: ('A' for Active; 'I' for Inactive)
REMARK    1  A    between atoms: C_1  and  C_2
REMARK    2  A    between atoms: C_2  and  C_3
REMARK    3  A    between atoms: C_5  and  C_6
REMARK    4  A    between atoms: C_12  and  C_13
REMARK    5  A    between atoms: C_16  and  S_17
REMARK    6  A    between atoms: S_17  and  C_18
REMARK                            x       y       z     vdW  Elec       q    Type
REMARK                         _______ _______ _______ _____ _____    ______ ____
ROOT
ATOM      1  C   UNL     1       5.356   4.295  16.084  0.00  0.00    +0.000 A 
ATOM      2  C   UNL     1       4.557   3.792  17.027  0.00  0.00    +0.000 A 
ATOM      3  C   UNL     1       3.731   4.663  17.836  0.00  0.00    +0.000 A 
ATOM      4  C   UNL     1       3.810   6.002  17.677  0.00  0.00    +0.000 A 
ATOM      5  C   UNL     1       4.767   6.570  16.673  0.00  0.00    +0.000 A 
ATOM      6  O   UNL     1       4.905   7.784  16.534  0.00  0.00    +0.000 OA
ATOM      7  O   UNL     1       5.466   5.689  15.891  0.00  0.00    +0.000 OA
ENDROOT
BRANCH   3   8
ATOM      8  C   UNL     1       2.746   4.058  18.761  0.00  0.00    +0.000 A 
ATOM      9  C   UNL     1       3.125   3.772  20.079  0.00  0.00    +0.000 A 
ATOM     10  C   UNL     1       2.221   3.176  20.957  0.00  0.00    +0.000 A 
ATOM     11  C   UNL     1       0.927   2.886  20.531  0.00  0.00    +0.000 A 
ATOM     12  C   UNL     1       0.532   3.197  19.230  0.00  0.00    +0.000 A 
ATOM     13  C   UNL     1       1.438   3.784  18.344  0.00  0.00    +0.000 A 
ENDBRANCH   3   8
BRANCH   4  14
ATOM     14  C   UNL     1       2.931   6.942  18.414  0.00  0.00    +0.000 A 
ATOM     15  C   UNL     1       2.316   8.024  17.766  0.00  0.00    +0.000 A 
ATOM     16  C   UNL     1       1.507   8.913  18.483  0.00  0.00    +0.000 A 
ATOM     17  C   UNL     1       1.297   8.704  19.849  0.00  0.00    +0.000 A 
ATOM     18  C   UNL     1       1.920   7.645  20.512  0.00  0.00    +0.000 A 
ATOM     19  C   UNL     1       2.726   6.762  19.790  0.00  0.00    +0.000 A 
BRANCH  17  20
ATOM     20  S   UNL     1       0.231   9.799  20.760  0.00  0.00    +0.000 S 
ATOM     21  C   UNL     1      -0.420   8.759  22.042  0.00  0.00    +0.000 C 
ATOM     22  O   UNL     1       1.068  10.809  21.380  0.00  0.00    +0.000 OA
ATOM     23  O   UNL     1      -0.865  10.176  19.887  0.00  0.00    +0.000 OA
ENDBRANCH  17  20
ENDBRANCH   4  14
BRANCH   1  25
ATOM     24  C   UNL     1       6.236   4.041  13.739  0.00  0.00    +0.000 C 
ATOM     25  C   UNL     1       6.155   3.446  15.135  0.00  0.00    +0.000 C 
ENDBRANCH   1  25
TORSDOF 4
ENDMDL
MODEL 6
REMARK VINA RESULT:      -7.8      1.125      1.747
REMARK  Name = 
REMARK  6 active torsions:
REMARK  status: ('A' for Active; 'I' for Inactive)
REMARK    1  A    between atoms: C_1  and  C_2
REMARK    2  A    between atoms: C_2  and  C_3
REMARK    3  A    between atoms: C_5  and  C_6
REMARK    4  A    between atoms: C_12  and  C_13
REMARK    5  A    between atoms: C_16  and  S_17
REMARK    6  A    between atoms: S_17  and  C_18
REMARK                            x       y       z     vdW  Elec       q    Type
REMARK                         _______ _______ _______ _____ _____    ______ ____
ROOT
ATOM      1  C   UNL     1       5.511   4.405  16.127  0.00  0.00    +0.000 A 
ATOM      2  C   UNL     1       4.667   3.879  17.016  0.00  0.00    +0.000 A 
ATOM      3  C   UNL     1       3.781   4.729  17.783  0.00  0.00    +0.000 A 
ATOM      4  C   UNL     1       3.847   6.071  17.642  0.00  0.00    +0.000 A 
ATOM      5  C   UNL     1       4.852   6.664  16.702  0.00  0.00    +0.000 A 
ATOM      6  O   UNL     1       4.978   7.882  16.583  0.00  0.00    +0.000 OA
ATOM      7  O   UNL     1       5.610   5.802  15.953  0.00  0.00    +0.000 OA
ENDROOT
BRANCH   3   8
ATOM      8  C   UNL     1       2.753   4.100  18.643  0.00  0.00    +0.000 A 
ATOM      9  C   UNL     1       1.494   3.800  18.104  0.00  0.00    +0.000 A 
ATOM     10  C   UNL     1       0.503   3.234  18.904  0.00  0.00    +0.000 A 
ATOM     11  C   UNL     1       0.770   2.942  20.239  0.00  0.00    +0.000 A 
ATOM     12  C   UNL     1       2.031   3.207  20.775  0.00  0.00    +0.000 A 
ATOM     13  C   UNL     1       3.023   3.784  19.979  0.00  0.00    +0.000 A 
ENDBRANCH   3   8
BRANCH   4  14
ATOM     14  C   UNL     1       2.911   6.989  18.335  0.00  0.00    +0.000 A 
ATOM     15  C   UNL     1       2.237   8.004  17.639  0.00  0.00    +0.000 A 
ATOM     16  C   UNL     1       1.374   8.874  18.314  0.00  0.00    +0.000 A 
ATOM     17  C   UNL     1       1.171   8.714  19.688  0.00  0.00    +0.000 A 
ATOM     18  C   UNL     1       1.852   7.724  20.398  0.00  0.00    +0.000 A 
ATOM     19  C   UNL     1       2.711   6.858  19.718  0.00  0.00    +0.000 A 
BRANCH  17  20
ATOM     20  S   UNL     1       0.039   9.784  20.548  0.00  0.00    +0.000 S 
ATOM     21  C   UNL     1       1.023  11.219  20.900  0.00  0.00    +0.000 C 
ATOM     22  O   UNL     1      -0.998  10.168  19.610  0.00  0.00    +0.000 OA
ATOM     23  O   UNL     1      -0.297   9.149  21.808  0.00  0.00    +0.000 OA
ENDBRANCH  17  20
ENDBRANCH   4  14
BRANCH   1  25
ATOM     24  C   UNL     1       6.154   3.890  13.748  0.00  0.00    +0.000 C 
ATOM     25  C   UNL     1       6.378   3.579  15.218  0.00  0.00    +0.000 C 
ENDBRANCH   1  25
TORSDOF 4
ENDMDL
MODEL 7
REMARK VINA RESULT:      -7.3      2.590      6.489
REMARK  Name = 
REMARK  6 active torsions:
REMARK  status: ('A' for Active; 'I' for Inactive)
REMARK    1  A    between atoms: C_1  and  C_2
REMARK    2  A    between atoms: C_2  and  C_3
REMARK    3  A    between atoms: C_5  and  C_6
REMARK    4  A    between atoms: C_12  and  C_13
REMARK    5  A    between atoms: C_16  and  S_17
REMARK    6  A    between atoms: S_17  and  C_18
REMARK                            x       y       z     vdW  Elec       q    Type
REMARK                         _______ _______ _______ _____ _____    ______ ____
ROOT
ATOM      1  C   UNL     1       0.373   8.226  20.961  0.00  0.00    +0.000 A 
ATOM      2  C   UNL     1       0.528   6.900  20.948  0.00  0.00    +0.000 A 
ATOM      3  C   UNL     1       1.573   6.288  20.156  0.00  0.00    +0.000 A 
ATOM      4  C   UNL     1       2.365   7.056  19.377  0.00  0.00    +0.000 A 
ATOM      5  C   UNL     1       2.138   8.537  19.330  0.00  0.00    +0.000 A 
ATOM      6  O   UNL     1       2.803   9.265  18.596  0.00  0.00    +0.000 OA
ATOM      7  O   UNL     1       1.180   9.060  20.159  0.00  0.00    +0.000 OA
ENDROOT
BRANCH   3   8
ATOM      8  C   UNL     1       1.811   4.832  20.289  0.00  0.00    +0.000 A 
ATOM      9  C   UNL     1       1.505   3.984  19.217  0.00  0.00    +0.000 A 
ATOM     10  C   UNL     1       1.695   2.607  19.332  0.00  0.00    +0.000 A 
ATOM     11  C   UNL     1       2.213   2.074  20.509  0.00  0.00    +0.000 A 
ATOM     12  C   UNL     1       2.551   2.915  21.570  0.00  0.00    +0.000 A 
ATOM     13  C   UNL     1       2.352   4.293  21.462  0.00  0.00    +0.000 A 
ENDBRANCH   3   8
BRANCH   4  14
ATOM     14  C   UNL     1       3.504   6.499  18.609  0.00  0.00    +0.000 A 
ATOM     15  C   UNL     1       4.620   5.948  19.259  0.00  0.00    +0.000 A 
ATOM     16  C   UNL     1       5.695   5.446  18.518  0.00  0.00    +0.000 A 
ATOM     17  C   UNL     1       5.644   5.478  17.122  0.00  0.00    +0.000 A 
ATOM     18  C   UNL     1       4.552   6.044  16.462  0.00  0.00    +0.000 A 
ATOM     19  C   UNL     1       3.481   6.542  17.207  0.00  0.00    +0.000 A 
BRANCH  17  20
ATOM     20  S   UNL     1       6.984   4.799  16.169  0.00  0.00    +0.000 S 
ATOM     21  C   UNL     1       6.194   3.545  15.192  0.00  0.00    +0.000 C 
ATOM     22  O   UNL     1       7.456   5.837  15.273  0.00  0.00    +0.000 OA
ATOM     23  O   UNL     1       7.894   4.144  17.091  0.00  0.00    +0.000 OA
ENDBRANCH  17  20
ENDBRANCH   4  14
BRANCH   1  25
ATOM     24  C   UNL     1       0.022   9.506  23.100  0.00  0.00    +0.000 C 
ATOM     25  C   UNL     1      -0.615   8.936  21.843  0.00  0.00    +0.000 C 
ENDBRANCH   1  25
TORSDOF 4
ENDMDL
MODEL 8
REMARK VINA RESULT:      -6.7      7.004      9.021
REMARK  Name = 
REMARK  6 active torsions:
REMARK  status: ('A' for Active; 'I' for Inactive)
REMARK    1  A    between atoms: C_1  and  C_2
REMARK    2  A    between atoms: C_2  and  C_3
REMARK    3  A    between atoms: C_5  and  C_6
REMARK    4  A    between atoms: C_12  and  C_13
REMARK    5  A    between atoms: C_16  and  S_17
REMARK    6  A    between atoms: S_17  and  C_18
REMARK                            x       y       z     vdW  Elec       q    Type
REMARK                         _______ _______ _______ _____ _____    ______ ____
ROOT
ATOM      1  C   UNL     1       2.405  14.171  19.883  0.00  0.00    +0.000 A 
ATOM      2  C   UNL     1       2.014  13.096  20.571  0.00  0.00    +0.000 A 
ATOM      3  C   UNL     1       0.629  12.676  20.558  0.00  0.00    +0.000 A 
ATOM      4  C   UNL     1      -0.290  13.408  19.891  0.00  0.00    +0.000 A 
ATOM      5  C   UNL     1       0.137  14.659  19.185  0.00  0.00    +0.000 A 
ATOM      6  O   UNL     1      -0.677  15.379  18.608  0.00  0.00    +0.000 OA
ATOM      7  O   UNL     1       1.473  14.960  19.176  0.00  0.00    +0.000 OA
ENDROOT
BRANCH   3   8
ATOM      8  C   UNL     1       0.265  11.394  21.205  0.00  0.00    +0.000 A 
ATOM      9  C   UNL     1       0.600  10.187  20.577  0.00  0.00    +0.000 A 
ATOM     10  C   UNL     1       0.241   8.970  21.155  0.00  0.00    +0.000 A 
ATOM     11  C   UNL     1      -0.434   8.952  22.372  0.00  0.00    +0.000 A 
ATOM     12  C   UNL     1      -0.744  10.148  23.019  0.00  0.00    +0.000 A 
ATOM     13  C   UNL     1      -0.395  11.370  22.439  0.00  0.00    +0.000 A 
ENDBRANCH   3   8
BRANCH   4  14
ATOM     14  C   UNL     1      -1.706  12.984  19.770  0.00  0.00    +0.000 A 
ATOM     15  C   UNL     1      -2.114  12.086  18.771  0.00  0.00    +0.000 A 
ATOM     16  C   UNL     1      -3.458  11.715  18.659  0.00  0.00    +0.000 A 
ATOM     17  C   UNL     1      -4.393  12.229  19.563  0.00  0.00    +0.000 A 
ATOM     18  C   UNL     1      -4.005  13.141  20.547  0.00  0.00    +0.000 A 
ATOM     19  C   UNL     1      -2.662  13.507  20.653  0.00  0.00    +0.000 A 
BRANCH  17  20
ATOM     20  S   UNL     1      -6.096  11.726  19.460  0.00  0.00    +0.000 S 
ATOM     21  C   UNL     1      -6.941  13.232  19.047  0.00  0.00    +0.000 C 
ATOM     22  O   UNL     1      -6.218  10.818  18.336  0.00  0.00    +0.000 OA
ATOM     23  O   UNL     1      -6.519  11.324  20.788  0.00  0.00    +0.000 OA
ENDBRANCH  17  20
ENDBRANCH   4  14
BRANCH   1  25
ATOM     24  C   UNL     1       4.371  14.482  18.342  0.00  0.00    +0.000 C 
ATOM     25  C   UNL     1       3.840  14.600  19.761  0.00  0.00    +0.000 C 
ENDBRANCH   1  25
TORSDOF 4
ENDMDL
MODEL 9
REMARK VINA RESULT:      -6.6      7.063      9.078
REMARK  Name = 
REMARK  6 active torsions:
REMARK  status: ('A' for Active; 'I' for Inactive)
REMARK    1  A    between atoms: C_1  and  C_2
REMARK    2  A    between atoms: C_2  and  C_3
REMARK    3  A    between atoms: C_5  and  C_6
REMARK    4  A    between atoms: C_12  and  C_13
REMARK    5  A    between atoms: C_16  and  S_17
REMARK    6  A    between atoms: S_17  and  C_18
REMARK                            x       y       z     vdW  Elec       q    Type
REMARK                         _______ _______ _______ _____ _____    ______ ____
ROOT
ATOM      1  C   UNL     1       2.412  14.042  19.694  0.00  0.00    +0.000 A 
ATOM      2  C   UNL     1       2.010  12.991  20.411  0.00  0.00    +0.000 A 
ATOM      3  C   UNL     1       0.608  12.641  20.484  0.00  0.00    +0.000 A 
ATOM      4  C   UNL     1      -0.312  13.416  19.867  0.00  0.00    +0.000 A 
ATOM      5  C   UNL     1       0.134  14.641  19.129  0.00  0.00    +0.000 A 
ATOM      6  O   UNL     1      -0.675  15.400  18.597  0.00  0.00    +0.000 OA
ATOM      7  O   UNL     1       1.481  14.875  19.038  0.00  0.00    +0.000 OA
ENDROOT
BRANCH   3   8
ATOM      8  C   UNL     1       0.218  11.382  21.159  0.00  0.00    +0.000 A 
ATOM      9  C   UNL     1      -0.421  11.438  22.404  0.00  0.00    +0.000 A 
ATOM     10  C   UNL     1      -0.770  10.264  23.070  0.00  0.00    +0.000 A 
ATOM     11  C   UNL     1      -0.503   9.028  22.485  0.00  0.00    +0.000 A 
ATOM     12  C   UNL     1       0.104   8.964  21.231  0.00  0.00    +0.000 A 
ATOM     13  C   UNL     1       0.465  10.139  20.566  0.00  0.00    +0.000 A 
ENDBRANCH   3   8
BRANCH   4  14
ATOM     14  C   UNL     1      -1.752  13.064  19.834  0.00  0.00    +0.000 A 
ATOM     15  C   UNL     1      -2.253  12.137  18.906  0.00  0.00    +0.000 A 
ATOM     16  C   UNL     1      -3.619  11.833  18.875  0.00  0.00    +0.000 A 
ATOM     17  C   UNL     1      -4.481  12.446  19.789  0.00  0.00    +0.000 A 
ATOM     18  C   UNL     1      -4.001  13.387  20.702  0.00  0.00    +0.000 A 
ATOM     19  C   UNL     1      -2.637  13.684  20.728  0.00  0.00    +0.000 A 
BRANCH  17  20
ATOM     20  S   UNL     1      -6.211  12.031  19.791  0.00  0.00    +0.000 S 
ATOM     21  C   UNL     1      -6.317  10.723  18.595  0.00  0.00    +0.000 C 
ATOM     22  O   UNL     1      -6.528  11.478  21.093  0.00  0.00    +0.000 OA
ATOM     23  O   UNL     1      -6.940  13.174  19.272  0.00  0.00    +0.000 OA
ENDBRANCH  17  20
ENDBRANCH   4  14
BRANCH   1  25
ATOM     24  C   UNL     1       4.108  15.079  18.149  0.00  0.00    +0.000 C 
ATOM     25  C   UNL     1       3.857  14.397  19.484  0.00  0.00    +0.000 C 
ENDBRANCH   1  25
TORSDOF 4
ENDMDL
