MODEL 1
REMARK VINA RESULT:      -6.4      0.000      0.000
REMARK  Name = 
REMARK  5 active torsions:
REMARK  status: ('A' for Active; 'I' for Inactive)
REMARK    1  A    between atoms: C_1  and  C_2
REMARK    2  A    between atoms: N_8  and  C_9
REMARK    3  A    between atoms: C_9  and  C_10
REMARK    4  A    between atoms: C_10  and  C_11
REMARK    5  A    between atoms: C_10  and  N_12
REMARK                            x       y       z     vdW  Elec       q    Type
REMARK                         _______ _______ _______ _____ _____    ______ ____
ROOT
ATOM      1  C   UNL     1       1.048   3.670  20.610  0.00  0.00    +0.000 C 
ATOM      2  C   UNL     1       1.979   3.697  19.431  0.00  0.00    +0.000 A 
ATOM      3  C   UNL     1       1.678   2.970  18.278  0.00  0.00    +0.000 A 
ATOM      4  C   UNL     1       2.565   2.944  17.197  0.00  0.00    +0.000 A 
ATOM      5  C   UNL     1       3.795   3.619  17.289  0.00  0.00    +0.000 A 
ATOM      6  C   UNL     1       4.893   3.764  16.400  0.00  0.00    +0.000 A 
ATOM      7  C   UNL     1       5.851   4.517  17.041  0.00  0.00    +0.000 A 
ATOM      8  N   UNL     1       5.381   4.832  18.294  0.00  0.00    +0.000 N 
ATOM      9  C   UNL     1       4.097   4.336  18.455  0.00  0.00    +0.000 A 
ATOM     10  C   UNL     1       3.182   4.420  19.516  0.00  0.00    +0.000 A 
ENDROOT
BRANCH   8  11
ATOM     11  C   UNL     1       6.165   5.565  19.278  0.00  0.00    +0.000 C 
BRANCH  11  12
ATOM     12  C   UNL     1       7.673   5.687  18.970  0.00  0.00    +0.000 C 
ATOM     13  C   UNL     1       8.079   7.069  18.457  0.00  0.00    +0.000 C 
BRANCH  12  14
ATOM     14  N   UNL     1       8.467   5.372  20.174  0.00  0.00    +0.000 NA
ATOM     15  H   UNL     1       7.903   4.824  20.825  0.00  0.00    +0.000 HD
ATOM     16  H   UNL     1       8.688   6.237  20.668  0.00  0.00    +0.000 HD
ENDBRANCH  12  14
ENDBRANCH  11  12
ENDBRANCH   8  11
TORSDOF 3
ENDMDL
MODEL 2
REMARK VINA RESULT:      -6.3      1.899      5.372
REMARK  Name = 
REMARK  5 active torsions:
REMARK  status: ('A' for Active; 'I' for Inactive)
REMARK    1  A    between atoms: C_1  and  C_2
REMARK    2  A    between atoms: N_8  and  C_9
REMARK    3  A    between atoms: C_9  and  C_10
REMARK    4  A    between atoms: C_10  and  C_11
REMARK    5  A    between atoms: C_10  and  N_12
REMARK                            x       y       z     vdW  Elec       q    Type
REMARK                         _______ _______ _______ _____ _____    ______ ____
ROOT
ATOM      1  C   UNL     1       5.988   3.843  13.702  0.00  0.00    +0.000 C 
ATOM      2  C   UNL     1       5.995   4.278  15.140  0.00  0.00    +0.000 A 
ATOM      3  C   UNL     1       7.186   4.673  15.751  0.00  0.00    +0.000 A 
ATOM      4  C   UNL     1       7.213   5.026  17.104  0.00  0.00    +0.000 A 
ATOM      5  C   UNL     1       6.036   4.938  17.871  0.00  0.00    +0.000 A 
ATOM      6  C   UNL     1       5.744   5.197  19.236  0.00  0.00    +0.000 A 
ATOM      7  C   UNL     1       4.415   4.904  19.440  0.00  0.00    +0.000 A 
ATOM      8  N   UNL     1       3.884   4.468  18.248  0.00  0.00    +0.000 N 
ATOM      9  C   UNL     1       4.846   4.528  17.253  0.00  0.00    +0.000 A 
ATOM     10  C   UNL     1       4.801   4.236  15.881  0.00  0.00    +0.000 A 
ENDROOT
BRANCH   8  11
ATOM     11  C   UNL     1       2.511   4.004  18.110  0.00  0.00    +0.000 C 
BRANCH  11  12
ATOM     12  C   UNL     1       2.016   3.051  19.219  0.00  0.00    +0.000 C 
ATOM     13  C   UNL     1       0.922   3.657  20.099  0.00  0.00    +0.000 C 
BRANCH  12  14
ATOM     14  N   UNL     1       1.512   1.797  18.626  0.00  0.00    +0.000 NA
ATOM     15  H   UNL     1       1.582   1.843  17.609  0.00  0.00    +0.000 HD
ATOM     16  H   UNL     1       0.514   1.708  18.824  0.00  0.00    +0.000 HD
ENDBRANCH  12  14
ENDBRANCH  11  12
ENDBRANCH   8  11
TORSDOF 3
ENDMDL
MODEL 3
REMARK VINA RESULT:      -6.1      2.110      3.203
REMARK  Name = 
REMARK  5 active torsions:
REMARK  status: ('A' for Active; 'I' for Inactive)
REMARK    1  A    between atoms: C_1  and  C_2
REMARK    2  A    between atoms: N_8  and  C_9
REMARK    3  A    between atoms: C_9  and  C_10
REMARK    4  A    between atoms: C_10  and  C_11
REMARK    5  A    between atoms: C_10  and  N_12
REMARK                            x       y       z     vdW  Elec       q    Type
REMARK                         _______ _______ _______ _____ _____    ______ ____
ROOT
ATOM      1  C   UNL     1       2.437   1.884  18.702  0.00  0.00    +0.000 C 
ATOM      2  C   UNL     1       2.861   3.296  18.413  0.00  0.00    +0.000 A 
ATOM      3  C   UNL     1       1.953   4.348  18.555  0.00  0.00    +0.000 A 
ATOM      4  C   UNL     1       2.322   5.659  18.235  0.00  0.00    +0.000 A 
ATOM      5  C   UNL     1       3.605   5.916  17.720  0.00  0.00    +0.000 A 
ATOM      6  C   UNL     1       4.261   7.099  17.290  0.00  0.00    +0.000 A 
ATOM      7  C   UNL     1       5.514   6.744  16.846  0.00  0.00    +0.000 A 
ATOM      8  N   UNL     1       5.647   5.382  16.984  0.00  0.00    +0.000 N 
ATOM      9  C   UNL     1       4.507   4.853  17.567  0.00  0.00    +0.000 A 
ATOM     10  C   UNL     1       4.164   3.547  17.948  0.00  0.00    +0.000 A 
ENDROOT
BRANCH   8  11
ATOM     11  C   UNL     1       6.827   4.648  16.547  0.00  0.00    +0.000 C 
BRANCH  11  12
ATOM     12  C   UNL     1       6.923   4.385  15.029  0.00  0.00    +0.000 C 
ATOM     13  C   UNL     1       5.560   4.263  14.346  0.00  0.00    +0.000 C 
BRANCH  12  14
ATOM     14  N   UNL     1       7.692   5.460  14.372  0.00  0.00    +0.000 NA
ATOM     15  H   UNL     1       7.068   6.027  13.795  0.00  0.00    +0.000 HD
ATOM     16  H   UNL     1       8.361   5.046  13.721  0.00  0.00    +0.000 HD
ENDBRANCH  12  14
ENDBRANCH  11  12
ENDBRANCH   8  11
TORSDOF 3
ENDMDL
MODEL 4
REMARK VINA RESULT:      -6.1      2.564      5.301
REMARK  Name = 
REMARK  5 active torsions:
REMARK  status: ('A' for Active; 'I' for Inactive)
REMARK    1  A    between atoms: C_1  and  C_2
REMARK    2  A    between atoms: N_8  and  C_9
REMARK    3  A    between atoms: C_9  and  C_10
REMARK    4  A    between atoms: C_10  and  C_11
REMARK    5  A    between atoms: C_10  and  N_12
REMARK                            x       y       z     vdW  Elec       q    Type
REMARK                         _______ _______ _______ _____ _____    ______ ____
ROOT
ATOM      1  C   UNL     1       6.067   3.719  15.064  0.00  0.00    +0.000 C 
ATOM      2  C   UNL     1       5.251   4.702  15.854  0.00  0.00    +0.000 A 
ATOM      3  C   UNL     1       5.328   6.068  15.575  0.00  0.00    +0.000 A 
ATOM      4  C   UNL     1       4.616   6.996  16.341  0.00  0.00    +0.000 A 
ATOM      5  C   UNL     1       3.850   6.555  17.435  0.00  0.00    +0.000 A 
ATOM      6  C   UNL     1       3.050   7.228  18.396  0.00  0.00    +0.000 A 
ATOM      7  C   UNL     1       2.556   6.280  19.264  0.00  0.00    +0.000 A 
ATOM      8  N   UNL     1       3.031   5.051  18.872  0.00  0.00    +0.000 N 
ATOM      9  C   UNL     1       3.788   5.183  17.719  0.00  0.00    +0.000 A 
ATOM     10  C   UNL     1       4.448   4.242  16.913  0.00  0.00    +0.000 A 
ENDROOT
BRANCH   8  11
ATOM     11  C   UNL     1       2.765   3.822  19.606  0.00  0.00    +0.000 C 
BRANCH  11  12
ATOM     12  C   UNL     1       1.281   3.400  19.682  0.00  0.00    +0.000 C 
ATOM     13  C   UNL     1       0.918   2.275  18.712  0.00  0.00    +0.000 C 
BRANCH  12  14
ATOM     14  N   UNL     1       0.939   2.977  21.054  0.00  0.00    +0.000 NA
ATOM     15  H   UNL     1       1.514   3.489  21.725  0.00  0.00    +0.000 HD
ATOM     16  H   UNL     1       1.190   1.995  21.176  0.00  0.00    +0.000 HD
ENDBRANCH  12  14
ENDBRANCH  11  12
ENDBRANCH   8  11
TORSDOF 3
ENDMDL
MODEL 5
REMARK VINA RESULT:      -6.1      2.497      5.173
REMARK  Name = 
REMARK  5 active torsions:
REMARK  status: ('A' for Active; 'I' for Inactive)
REMARK    1  A    between atoms: C_1  and  C_2
REMARK    2  A    between atoms: N_8  and  C_9
REMARK    3  A    between atoms: C_9  and  C_10
REMARK    4  A    between atoms: C_10  and  C_11
REMARK    5  A    between atoms: C_10  and  N_12
REMARK                            x       y       z     vdW  Elec       q    Type
REMARK                         _______ _______ _______ _____ _____    ______ ____
ROOT
ATOM      1  C   UNL     1       6.160   4.094  14.932  0.00  0.00    +0.000 C 
ATOM      2  C   UNL     1       5.309   4.794  15.954  0.00  0.00    +0.000 A 
ATOM      3  C   UNL     1       5.181   6.184  15.932  0.00  0.00    +0.000 A 
ATOM      4  C   UNL     1       4.437   6.849  16.911  0.00  0.00    +0.000 A 
ATOM      5  C   UNL     1       3.849   6.116  17.958  0.00  0.00    +0.000 A 
ATOM      6  C   UNL     1       3.072   6.486  19.087  0.00  0.00    +0.000 A 
ATOM      7  C   UNL     1       2.796   5.339  19.796  0.00  0.00    +0.000 A 
ATOM      8  N   UNL     1       3.382   4.280  19.144  0.00  0.00    +0.000 N 
ATOM      9  C   UNL     1       3.994   4.721  17.982  0.00  0.00    +0.000 A 
ATOM     10  C   UNL     1       4.684   4.043  16.965  0.00  0.00    +0.000 A 
ENDROOT
BRANCH   8  11
ATOM     11  C   UNL     1       3.353   2.915  19.652  0.00  0.00    +0.000 C 
BRANCH  11  12
ATOM     12  C   UNL     1       2.153   2.060  19.191  0.00  0.00    +0.000 C 
ATOM     13  C   UNL     1       0.806   2.764  19.352  0.00  0.00    +0.000 C 
BRANCH  12  14
ATOM     14  N   UNL     1       2.321   1.666  17.778  0.00  0.00    +0.000 NA
ATOM     15  H   UNL     1       2.471   2.497  17.204  0.00  0.00    +0.000 HD
ATOM     16  H   UNL     1       1.450   1.256  17.437  0.00  0.00    +0.000 HD
ENDBRANCH  12  14
ENDBRANCH  11  12
ENDBRANCH   8  11
TORSDOF 3
ENDMDL
MODEL 6
REMARK VINA RESULT:      -6.0      1.982      4.740
REMARK  Name = 
REMARK  5 active torsions:
REMARK  status: ('A' for Active; 'I' for Inactive)
REMARK    1  A    between atoms: C_1  and  C_2
REMARK    2  A    between atoms: N_8  and  C_9
REMARK    3  A    between atoms: C_9  and  C_10
REMARK    4  A    between atoms: C_10  and  C_11
REMARK    5  A    between atoms: C_10  and  N_12
REMARK                            x       y       z     vdW  Elec       q    Type
REMARK                         _______ _______ _______ _____ _____    ______ ____
ROOT
ATOM      1  C   UNL     1       7.555   5.927  18.734  0.00  0.00    +0.000 C 
ATOM      2  C   UNL     1       6.358   5.207  18.180  0.00  0.00    +0.000 A 
ATOM      3  C   UNL     1       5.993   5.372  16.842  0.00  0.00    +0.000 A 
ATOM      4  C   UNL     1       4.849   4.750  16.332  0.00  0.00    +0.000 A 
ATOM      5  C   UNL     1       4.030   3.988  17.185  0.00  0.00    +0.000 A 
ATOM      6  C   UNL     1       2.823   3.267  16.986  0.00  0.00    +0.000 A 
ATOM      7  C   UNL     1       2.451   2.735  18.199  0.00  0.00    +0.000 A 
ATOM      8  N   UNL     1       3.385   3.109  19.136  0.00  0.00    +0.000 N 
ATOM      9  C   UNL     1       4.396   3.839  18.531  0.00  0.00    +0.000 A 
ATOM     10  C   UNL     1       5.577   4.406  19.032  0.00  0.00    +0.000 A 
ENDROOT
BRANCH   8  11
ATOM     11  C   UNL     1       3.272   2.779  20.550  0.00  0.00    +0.000 C 
BRANCH  11  12
ATOM     12  C   UNL     1       2.180   3.545  21.327  0.00  0.00    +0.000 C 
ATOM     13  C   UNL     1       2.030   5.002  20.889  0.00  0.00    +0.000 C 
BRANCH  12  14
ATOM     14  N   UNL     1       0.878   2.866  21.181  0.00  0.00    +0.000 NA
ATOM     15  H   UNL     1       0.140   3.560  21.053  0.00  0.00    +0.000 HD
ATOM     16  H   UNL     1       0.649   2.386  22.053  0.00  0.00    +0.000 HD
ENDBRANCH  12  14
ENDBRANCH  11  12
ENDBRANCH   8  11
TORSDOF 3
ENDMDL
MODEL 7
REMARK VINA RESULT:      -5.9      2.684      3.867
REMARK  Name = 
REMARK  5 active torsions:
REMARK  status: ('A' for Active; 'I' for Inactive)
REMARK    1  A    between atoms: C_1  and  C_2
REMARK    2  A    between atoms: N_8  and  C_9
REMARK    3  A    between atoms: C_9  and  C_10
REMARK    4  A    between atoms: C_10  and  C_11
REMARK    5  A    between atoms: C_10  and  N_12
REMARK                            x       y       z     vdW  Elec       q    Type
REMARK                         _______ _______ _______ _____ _____    ______ ____
ROOT
ATOM      1  C   UNL     1       1.825   8.979  17.911  0.00  0.00    +0.000 C 
ATOM      2  C   UNL     1       2.568   7.728  18.282  0.00  0.00    +0.000 A 
ATOM      3  C   UNL     1       2.257   7.047  19.461  0.00  0.00    +0.000 A 
ATOM      4  C   UNL     1       2.981   5.913  19.844  0.00  0.00    +0.000 A 
ATOM      5  C   UNL     1       4.064   5.479  19.058  0.00  0.00    +0.000 A 
ATOM      6  C   UNL     1       4.985   4.406  19.181  0.00  0.00    +0.000 A 
ATOM      7  C   UNL     1       5.862   4.487  18.123  0.00  0.00    +0.000 A 
ATOM      8  N   UNL     1       5.513   5.576  17.360  0.00  0.00    +0.000 N 
ATOM      9  C   UNL     1       4.379   6.176  17.883  0.00  0.00    +0.000 A 
ATOM     10  C   UNL     1       3.615   7.274  17.460  0.00  0.00    +0.000 A 
ENDROOT
BRANCH   8  11
ATOM     11  C   UNL     1       6.270   6.007  16.192  0.00  0.00    +0.000 C 
BRANCH  11  12
ATOM     12  C   UNL     1       6.861   4.873  15.328  0.00  0.00    +0.000 C 
ATOM     13  C   UNL     1       5.812   4.125  14.504  0.00  0.00    +0.000 C 
BRANCH  12  14
ATOM     14  N   UNL     1       7.891   5.409  14.416  0.00  0.00    +0.000 NA
ATOM     15  H   UNL     1       7.691   6.388  14.208  0.00  0.00    +0.000 HD
ATOM     16  H   UNL     1       7.832   4.925  13.519  0.00  0.00    +0.000 HD
ENDBRANCH  12  14
ENDBRANCH  11  12
ENDBRANCH   8  11
TORSDOF 3
ENDMDL
MODEL 8
REMARK VINA RESULT:      -5.9      2.664      5.030
REMARK  Name = 
REMARK  5 active torsions:
REMARK  status: ('A' for Active; 'I' for Inactive)
REMARK    1  A    between atoms: C_1  and  C_2
REMARK    2  A    between atoms: N_8  and  C_9
REMARK    3  A    between atoms: C_9  and  C_10
REMARK    4  A    between atoms: C_10  and  C_11
REMARK    5  A    between atoms: C_10  and  N_12
REMARK                            x       y       z     vdW  Elec       q    Type
REMARK                         _______ _______ _______ _____ _____    ______ ____
ROOT
ATOM      1  C   UNL     1       5.170   6.333  16.057  0.00  0.00    +0.000 C 
ATOM      2  C   UNL     1       4.200   6.284  17.203  0.00  0.00    +0.000 A 
ATOM      3  C   UNL     1       3.503   7.431  17.587  0.00  0.00    +0.000 A 
ATOM      4  C   UNL     1       2.641   7.410  18.687  0.00  0.00    +0.000 A 
ATOM      5  C   UNL     1       2.509   6.232  19.446  0.00  0.00    +0.000 A 
ATOM      6  C   UNL     1       1.753   5.900  20.601  0.00  0.00    +0.000 A 
ATOM      7  C   UNL     1       2.044   4.596  20.929  0.00  0.00    +0.000 A 
ATOM      8  N   UNL     1       2.957   4.119  20.018  0.00  0.00    +0.000 N 
ATOM      9  C   UNL     1       3.223   5.088  19.064  0.00  0.00    +0.000 A 
ATOM     10  C   UNL     1       4.038   5.086  17.922  0.00  0.00    +0.000 A 
ENDROOT
BRANCH   8  11
ATOM     11  C   UNL     1       3.545   2.789  20.100  0.00  0.00    +0.000 C 
BRANCH  11  12
ATOM     12  C   UNL     1       3.000   1.758  19.088  0.00  0.00    +0.000 C 
ATOM     13  C   UNL     1       1.663   2.163  18.467  0.00  0.00    +0.000 C 
BRANCH  12  14
ATOM     14  N   UNL     1       3.981   1.535  18.008  0.00  0.00    +0.000 NA
ATOM     15  H   UNL     1       4.821   1.097  18.390  0.00  0.00    +0.000 HD
ATOM     16  H   UNL     1       4.289   2.436  17.641  0.00  0.00    +0.000 HD
ENDBRANCH  12  14
ENDBRANCH  11  12
ENDBRANCH   8  11
TORSDOF 3
ENDMDL
MODEL 9
REMARK VINA RESULT:      -5.9      1.896      5.387
REMARK  Name = 
REMARK  5 active torsions:
REMARK  status: ('A' for Active; 'I' for Inactive)
REMARK    1  A    between atoms: C_1  and  C_2
REMARK    2  A    between atoms: N_8  and  C_9
REMARK    3  A    between atoms: C_9  and  C_10
REMARK    4  A    between atoms: C_10  and  C_11
REMARK    5  A    between atoms: C_10  and  N_12
REMARK                            x       y       z     vdW  Elec       q    Type
REMARK                         _______ _______ _______ _____ _____    ______ ____
ROOT
ATOM      1  C   UNL     1       6.148   3.906  13.779  0.00  0.00    +0.000 C 
ATOM      2  C   UNL     1       5.929   4.359  15.195  0.00  0.00    +0.000 A 
ATOM      3  C   UNL     1       6.746   5.344  15.755  0.00  0.00    +0.000 A 
ATOM      4  C   UNL     1       6.587   5.732  17.089  0.00  0.00    +0.000 A 
ATOM      5  C   UNL     1       5.624   5.091  17.891  0.00  0.00    +0.000 A 
ATOM      6  C   UNL     1       5.241   5.235  19.250  0.00  0.00    +0.000 A 
ATOM      7  C   UNL     1       4.254   4.310  19.505  0.00  0.00    +0.000 A 
ATOM      8  N   UNL     1       4.025   3.600  18.350  0.00  0.00    +0.000 N 
ATOM      9  C   UNL     1       4.818   4.093  17.326  0.00  0.00    +0.000 A 
ATOM     10  C   UNL     1       4.929   3.747  15.971  0.00  0.00    +0.000 A 
ENDROOT
BRANCH   8  11
ATOM     11  C   UNL     1       3.088   2.487  18.271  0.00  0.00    +0.000 C 
BRANCH  11  12
ATOM     12  C   UNL     1       1.594   2.875  18.263  0.00  0.00    +0.000 C 
ATOM     13  C   UNL     1       1.004   3.052  19.662  0.00  0.00    +0.000 C 
BRANCH  12  14
ATOM     14  N   UNL     1       1.394   4.121  17.498  0.00  0.00    +0.000 NA
ATOM     15  H   UNL     1       2.298   4.501  17.215  0.00  0.00    +0.000 HD
ATOM     16  H   UNL     1       0.983   4.829  18.109  0.00  0.00    +0.000 HD
ENDBRANCH  12  14
ENDBRANCH  11  12
ENDBRANCH   8  11
TORSDOF 3
ENDMDL
