MODEL 1
REMARK VINA RESULT:      -9.2      0.000      0.000
REMARK  Name = 
REMARK  8 active torsions:
REMARK  status: ('A' for Active; 'I' for Inactive)
REMARK    1  A    between atoms: C_1  and  O_2
REMARK    2  A    between atoms: O_2  and  C_3
REMARK    3  A    between atoms: C_8  and  O_9
REMARK    4  A    between atoms: O_9  and  C_10
REMARK    5  A    between atoms: C_15  and  O_16
REMARK    6  A    between atoms: O_16  and  C_17
REMARK    7  A    between atoms: C_18  and  O_19
REMARK    8  A    between atoms: O_19  and  C_20
REMARK                            x       y       z     vdW  Elec       q    Type
REMARK                         _______ _______ _______ _____ _____    ______ ____
ROOT
ATOM      1  C   UNL     1       5.592   4.730  16.323  0.00  0.00    +0.000 A 
ATOM      2  C   UNL     1       4.394   4.102  16.722  0.00  0.00    +0.000 A 
ATOM      3  C   UNL     1       3.419   4.796  17.451  0.00  0.00    +0.000 A 
ATOM      4  C   UNL     1       3.671   6.123  17.808  0.00  0.00    +0.000 A 
ATOM      5  C   UNL     1       4.900   6.700  17.507  0.00  0.00    +0.000 A 
ATOM      6  C   UNL     1       5.873   6.023  16.773  0.00  0.00    +0.000 A 
ATOM      7  C   UNL     1       2.661   6.930  18.461  0.00  0.00    +0.000 A 
ATOM      8  C   UNL     1       2.120   8.070  17.871  0.00  0.00    +0.000 A 
ATOM      9  C   UNL     1       1.378   8.925  18.656  0.00  0.00    +0.000 A 
ATOM     10  C   UNL     1       0.577   9.865  18.053  0.00  0.00    +0.000 A 
ATOM     11  C   UNL     1      -0.277  10.553  18.886  0.00  0.00    +0.000 A 
ATOM     12  C   UNL     1       0.100  10.832  20.182  0.00  0.00    +0.000 A 
ATOM     13  C   UNL     1       0.863   9.864  20.806  0.00  0.00    +0.000 A 
ATOM     14  C   UNL     1       1.362   8.774  20.047  0.00  0.00    +0.000 A 
ATOM     15  C   UNL     1       1.790   7.538  20.561  0.00  0.00    +0.000 A 
ATOM     16  N   UNL     1       2.302   6.585  19.733  0.00  0.00    +0.000 N 
ATOM     17  C   UNL     1       2.481   5.191  20.224  0.00  0.00    +0.000 C 
ATOM     18  C   UNL     1       1.829   4.128  19.316  0.00  0.00    +0.000 C 
ATOM     19  C   UNL     1       2.097   4.178  17.805  0.00  0.00    +0.000 C 
ENDROOT
BRANCH   1  21
ATOM     20  C   UNL     1       6.147   4.034  14.137  0.00  0.00    +0.000 C 
ATOM     21  O   UNL     1       6.491   4.082  15.523  0.00  0.00    +0.000 OA
ENDBRANCH   1  21
BRANCH   6  22
ATOM     22  O   UNL     1       6.973   6.807  16.585  0.00  0.00    +0.000 OA
ATOM     23  C   UNL     1       7.623   7.392  17.700  0.00  0.00    +0.000 C 
ENDBRANCH   6  22
BRANCH  11  24
ATOM     24  O   UNL     1      -1.613  10.659  18.552  0.00  0.00    +0.000 OA
ATOM     25  C   UNL     1      -1.921  10.041  17.281  0.00  0.00    +0.000 C 
ENDBRANCH  11  24
BRANCH  12  26
ATOM     26  O   UNL     1      -0.306  11.923  20.893  0.00  0.00    +0.000 OA
ATOM     27  C   UNL     1      -0.832  11.650  22.209  0.00  0.00    +0.000 C 
ENDBRANCH  12  26
TORSDOF 4
ENDMDL
MODEL 2
REMARK VINA RESULT:      -7.6      1.575      7.729
REMARK  Name = 
REMARK  8 active torsions:
REMARK  status: ('A' for Active; 'I' for Inactive)
REMARK    1  A    between atoms: C_1  and  O_2
REMARK    2  A    between atoms: O_2  and  C_3
REMARK    3  A    between atoms: C_8  and  O_9
REMARK    4  A    between atoms: O_9  and  C_10
REMARK    5  A    between atoms: C_15  and  O_16
REMARK    6  A    between atoms: O_16  and  C_17
REMARK    7  A    between atoms: C_18  and  O_19
REMARK    8  A    between atoms: O_19  and  C_20
REMARK                            x       y       z     vdW  Elec       q    Type
REMARK                         _______ _______ _______ _____ _____    ______ ____
ROOT
ATOM      1  C   UNL     1       0.713   9.122  20.677  0.00  0.00    +0.000 A 
ATOM      2  C   UNL     1       1.013   7.874  21.261  0.00  0.00    +0.000 A 
ATOM      3  C   UNL     1       1.765   6.913  20.574  0.00  0.00    +0.000 A 
ATOM      4  C   UNL     1       2.188   7.201  19.273  0.00  0.00    +0.000 A 
ATOM      5  C   UNL     1       1.795   8.387  18.663  0.00  0.00    +0.000 A 
ATOM      6  C   UNL     1       1.056   9.356  19.342  0.00  0.00    +0.000 A 
ATOM      7  C   UNL     1       3.062   6.301  18.551  0.00  0.00    +0.000 A 
ATOM      8  C   UNL     1       4.347   6.666  18.152  0.00  0.00    +0.000 A 
ATOM      9  C   UNL     1       5.004   5.865  17.244  0.00  0.00    +0.000 A 
ATOM     10  C   UNL     1       6.361   6.011  17.080  0.00  0.00    +0.000 A 
ATOM     11  C   UNL     1       6.980   5.056  16.304  0.00  0.00    +0.000 A 
ATOM     12  C   UNL     1       6.307   4.487  15.244  0.00  0.00    +0.000 A 
ATOM     13  C   UNL     1       4.952   4.293  15.430  0.00  0.00    +0.000 A 
ATOM     14  C   UNL     1       4.318   4.848  16.570  0.00  0.00    +0.000 A 
ATOM     15  C   UNL     1       3.092   4.434  17.117  0.00  0.00    +0.000 A 
ATOM     16  N   UNL     1       2.558   5.084  18.189  0.00  0.00    +0.000 N 
ATOM     17  C   UNL     1       1.424   4.476  18.938  0.00  0.00    +0.000 C 
ATOM     18  C   UNL     1       1.672   4.377  20.458  0.00  0.00    +0.000 C 
ATOM     19  C   UNL     1       2.177   5.616  21.210  0.00  0.00    +0.000 C 
ENDROOT
BRANCH   1  21
ATOM     20  C   UNL     1      -0.165   9.784  22.765  0.00  0.00    +0.000 C 
ATOM     21  O   UNL     1       0.071  10.095  21.390  0.00  0.00    +0.000 OA
ENDBRANCH   1  21
BRANCH   6  22
ATOM     22  O   UNL     1       0.820  10.435  18.543  0.00  0.00    +0.000 OA
ATOM     23  C   UNL     1       1.663  11.571  18.624  0.00  0.00    +0.000 C 
ENDBRANCH   6  22
BRANCH  11  24
ATOM     24  O   UNL     1       8.116   4.428  16.777  0.00  0.00    +0.000 OA
ATOM     25  C   UNL     1       8.217   4.472  18.219  0.00  0.00    +0.000 C 
ENDBRANCH  11  24
BRANCH  12  26
ATOM     26  O   UNL     1       6.897   4.026  14.105  0.00  0.00    +0.000 OA
ATOM     27  C   UNL     1       5.995   3.641  13.045  0.00  0.00    +0.000 C 
ENDBRANCH  12  26
TORSDOF 4
ENDMDL
MODEL 3
REMARK VINA RESULT:      -6.8      2.321      4.111
REMARK  Name = 
REMARK  8 active torsions:
REMARK  status: ('A' for Active; 'I' for Inactive)
REMARK    1  A    between atoms: C_1  and  O_2
REMARK    2  A    between atoms: O_2  and  C_3
REMARK    3  A    between atoms: C_8  and  O_9
REMARK    4  A    between atoms: O_9  and  C_10
REMARK    5  A    between atoms: C_15  and  O_16
REMARK    6  A    between atoms: O_16  and  C_17
REMARK    7  A    between atoms: C_18  and  O_19
REMARK    8  A    between atoms: O_19  and  C_20
REMARK                            x       y       z     vdW  Elec       q    Type
REMARK                         _______ _______ _______ _____ _____    ______ ____
ROOT
ATOM      1  C   UNL     1       4.253   2.739  19.444  0.00  0.00    +0.000 A 
ATOM      2  C   UNL     1       5.163   3.778  19.157  0.00  0.00    +0.000 A 
ATOM      3  C   UNL     1       4.728   5.100  18.997  0.00  0.00    +0.000 A 
ATOM      4  C   UNL     1       3.360   5.370  19.093  0.00  0.00    +0.000 A 
ATOM      5  C   UNL     1       2.459   4.325  19.266  0.00  0.00    +0.000 A 
ATOM      6  C   UNL     1       2.881   3.007  19.438  0.00  0.00    +0.000 A 
ATOM      7  C   UNL     1       2.858   6.727  19.052  0.00  0.00    +0.000 A 
ATOM      8  C   UNL     1       2.197   7.312  20.129  0.00  0.00    +0.000 A 
ATOM      9  C   UNL     1       1.516   8.491  19.919  0.00  0.00    +0.000 A 
ATOM     10  C   UNL     1       1.135   9.249  21.001  0.00  0.00    +0.000 A 
ATOM     11  C   UNL     1       0.633  10.499  20.715  0.00  0.00    +0.000 A 
ATOM     12  C   UNL     1      -0.087  10.705  19.558  0.00  0.00    +0.000 A 
ATOM     13  C   UNL     1       0.329   9.981  18.457  0.00  0.00    +0.000 A 
ATOM     14  C   UNL     1       1.303   8.964  18.619  0.00  0.00    +0.000 A 
ATOM     15  C   UNL     1       2.111   8.425  17.603  0.00  0.00    +0.000 A 
ATOM     16  N   UNL     1       2.977   7.409  17.874  0.00  0.00    +0.000 N 
ATOM     17  C   UNL     1       4.025   7.041  16.883  0.00  0.00    +0.000 C 
ATOM     18  C   UNL     1       5.449   7.004  17.477  0.00  0.00    +0.000 C 
ATOM     19  C   UNL     1       5.688   6.236  18.785  0.00  0.00    +0.000 C 
ENDROOT
BRANCH   1  21
ATOM     20  C   UNL     1       5.174   1.256  21.032  0.00  0.00    +0.000 C 
ATOM     21  O   UNL     1       4.693   1.472  19.704  0.00  0.00    +0.000 OA
ENDBRANCH   1  21
BRANCH   6  22
ATOM     22  O   UNL     1       1.816   2.175  19.617  0.00  0.00    +0.000 OA
ATOM     23  C   UNL     1       0.623   2.387  18.882  0.00  0.00    +0.000 C 
ENDBRANCH   6  22
BRANCH  11  24
ATOM     24  O   UNL     1       1.129  11.600  21.386  0.00  0.00    +0.000 OA
ATOM     25  C   UNL     1       1.817  12.524  20.511  0.00  0.00    +0.000 C 
ENDBRANCH  11  24
BRANCH  12  26
ATOM     26  O   UNL     1      -1.085  11.622  19.415  0.00  0.00    +0.000 OA
ATOM     27  C   UNL     1      -1.516  11.873  18.060  0.00  0.00    +0.000 C 
ENDBRANCH  12  26
TORSDOF 4
ENDMDL
MODEL 4
REMARK VINA RESULT:      -6.7      1.305      7.893
REMARK  Name = 
REMARK  8 active torsions:
REMARK  status: ('A' for Active; 'I' for Inactive)
REMARK    1  A    between atoms: C_1  and  O_2
REMARK    2  A    between atoms: O_2  and  C_3
REMARK    3  A    between atoms: C_8  and  O_9
REMARK    4  A    between atoms: O_9  and  C_10
REMARK    5  A    between atoms: C_15  and  O_16
REMARK    6  A    between atoms: O_16  and  C_17
REMARK    7  A    between atoms: C_18  and  O_19
REMARK    8  A    between atoms: O_19  and  C_20
REMARK                            x       y       z     vdW  Elec       q    Type
REMARK                         _______ _______ _______ _____ _____    ______ ____
ROOT
ATOM      1  C   UNL     1      -1.213  11.492  19.052  0.00  0.00    +0.000 A 
ATOM      2  C   UNL     1      -0.351  11.316  20.155  0.00  0.00    +0.000 A 
ATOM      3  C   UNL     1       0.614  10.300  20.167  0.00  0.00    +0.000 A 
ATOM      4  C   UNL     1       0.686   9.434  19.072  0.00  0.00    +0.000 A 
ATOM      5  C   UNL     1      -0.239   9.545  18.040  0.00  0.00    +0.000 A 
ATOM      6  C   UNL     1      -1.196  10.558  18.012  0.00  0.00    +0.000 A 
ATOM      7  C   UNL     1       1.731   8.438  18.970  0.00  0.00    +0.000 A 
ATOM      8  C   UNL     1       2.684   8.456  17.954  0.00  0.00    +0.000 A 
ATOM      9  C   UNL     1       3.465   7.337  17.768  0.00  0.00    +0.000 A 
ATOM     10  C   UNL     1       4.607   7.434  17.008  0.00  0.00    +0.000 A 
ATOM     11  C   UNL     1       5.436   6.334  17.023  0.00  0.00    +0.000 A 
ATOM     12  C   UNL     1       4.901   5.069  17.139  0.00  0.00    +0.000 A 
ATOM     13  C   UNL     1       3.783   4.963  17.945  0.00  0.00    +0.000 A 
ATOM     14  C   UNL     1       3.157   6.140  18.426  0.00  0.00    +0.000 A 
ATOM     15  C   UNL     1       2.299   6.225  19.535  0.00  0.00    +0.000 A 
ATOM     16  N   UNL     1       1.713   7.409  19.868  0.00  0.00    +0.000 N 
ATOM     17  C   UNL     1       1.047   7.563  21.191  0.00  0.00    +0.000 C 
ATOM     18  C   UNL     1       1.537   8.789  21.989  0.00  0.00    +0.000 C 
ATOM     19  C   UNL     1       1.604  10.153  21.286  0.00  0.00    +0.000 C 
ENDROOT
BRANCH   1  21
ATOM     20  C   UNL     1      -3.060  12.581  20.039  0.00  0.00    +0.000 C 
ATOM     21  O   UNL     1      -2.079  12.547  19.000  0.00  0.00    +0.000 OA
ENDBRANCH   1  21
BRANCH   6  22
ATOM     22  O   UNL     1      -1.964  10.471  16.888  0.00  0.00    +0.000 OA
ATOM     23  C   UNL     1      -3.244   9.868  16.952  0.00  0.00    +0.000 C 
ENDBRANCH   6  22
BRANCH  11  24
ATOM     24  O   UNL     1       6.785   6.503  17.266  0.00  0.00    +0.000 OA
ATOM     25  C   UNL     1       7.180   6.027  18.573  0.00  0.00    +0.000 C 
ENDBRANCH  11  24
BRANCH  12  26
ATOM     26  O   UNL     1       5.450   3.940  16.607  0.00  0.00    +0.000 OA
ATOM     27  C   UNL     1       5.845   4.029  15.222  0.00  0.00    +0.000 C 
ENDBRANCH  12  26
TORSDOF 4
ENDMDL
MODEL 5
REMARK VINA RESULT:      -6.4      1.613      7.866
REMARK  Name = 
REMARK  8 active torsions:
REMARK  status: ('A' for Active; 'I' for Inactive)
REMARK    1  A    between atoms: C_1  and  O_2
REMARK    2  A    between atoms: O_2  and  C_3
REMARK    3  A    between atoms: C_8  and  O_9
REMARK    4  A    between atoms: O_9  and  C_10
REMARK    5  A    between atoms: C_15  and  O_16
REMARK    6  A    between atoms: O_16  and  C_17
REMARK    7  A    between atoms: C_18  and  O_19
REMARK    8  A    between atoms: O_19  and  C_20
REMARK                            x       y       z     vdW  Elec       q    Type
REMARK                         _______ _______ _______ _____ _____    ______ ____
ROOT
ATOM      1  C   UNL     1      -1.029  12.178  19.349  0.00  0.00    +0.000 A 
ATOM      2  C   UNL     1      -0.161  11.925  20.431  0.00  0.00    +0.000 A 
ATOM      3  C   UNL     1       0.639  10.775  20.468  0.00  0.00    +0.000 A 
ATOM      4  C   UNL     1       0.534   9.856  19.420  0.00  0.00    +0.000 A 
ATOM      5  C   UNL     1      -0.404  10.057  18.413  0.00  0.00    +0.000 A 
ATOM      6  C   UNL     1      -1.196  11.204  18.361  0.00  0.00    +0.000 A 
ATOM      7  C   UNL     1       1.411   8.708  19.339  0.00  0.00    +0.000 A 
ATOM      8  C   UNL     1       2.314   8.528  18.293  0.00  0.00    +0.000 A 
ATOM      9  C   UNL     1       2.908   7.295  18.144  0.00  0.00    +0.000 A 
ATOM     10  C   UNL     1       4.020   7.178  17.344  0.00  0.00    +0.000 A 
ATOM     11  C   UNL     1       4.672   5.966  17.392  0.00  0.00    +0.000 A 
ATOM     12  C   UNL     1       3.957   4.805  17.593  0.00  0.00    +0.000 A 
ATOM     13  C   UNL     1       2.869   4.912  18.439  0.00  0.00    +0.000 A 
ATOM     14  C   UNL     1       2.448   6.194  18.875  0.00  0.00    +0.000 A 
ATOM     15  C   UNL     1       1.657   6.463  20.005  0.00  0.00    +0.000 A 
ATOM     16  N   UNL     1       1.272   7.738  20.292  0.00  0.00    +0.000 N 
ATOM     17  C   UNL     1       0.691   8.057  21.625  0.00  0.00    +0.000 C 
ATOM     18  C   UNL     1       1.393   9.231  22.339  0.00  0.00    +0.000 C 
ATOM     19  C   UNL     1       1.638  10.532  21.562  0.00  0.00    +0.000 C 
ENDROOT
BRANCH   1  21
ATOM     20  C   UNL     1      -1.593  14.217  20.397  0.00  0.00    +0.000 C 
ATOM     21  O   UNL     1      -1.726  13.350  19.268  0.00  0.00    +0.000 OA
ENDBRANCH   1  21
BRANCH   6  22
ATOM     22  O   UNL     1      -2.012  11.181  17.269  0.00  0.00    +0.000 OA
ATOM     23  C   UNL     1      -2.281   9.954  16.613  0.00  0.00    +0.000 C 
ENDBRANCH   6  22
BRANCH  11  24
ATOM     24  O   UNL     1       6.040   5.937  17.582  0.00  0.00    +0.000 OA
ATOM     25  C   UNL     1       6.408   5.556  18.928  0.00  0.00    +0.000 C 
ENDBRANCH  11  24
BRANCH  12  26
ATOM     26  O   UNL     1       4.306   3.581  17.107  0.00  0.00    +0.000 OA
ATOM     27  C   UNL     1       3.724   2.448  17.787  0.00  0.00    +0.000 C 
ENDBRANCH  12  26
TORSDOF 4
ENDMDL
