MODEL 1
REMARK VINA RESULT:      -7.9      0.000      0.000
REMARK  Name = 
REMARK  4 active torsions:
REMARK  status: ('A' for Active; 'I' for Inactive)
REMARK    1  A    between atoms: C_1  and  N_2
REMARK    2  A    between atoms: C_6  and  C_7
REMARK    3  A    between atoms: C_6  and  C_8
REMARK    4  A    between atoms: C_10  and  C_11
REMARK                            x       y       z     vdW  Elec       q    Type
REMARK                         _______ _______ _______ _____ _____    ______ ____
ROOT
ATOM      1  C   UNL     1       7.720   7.295  17.491  0.00  0.00    +0.000 C 
ATOM      2  N   UNL     1       6.758   6.259  17.821  0.00  0.00    +0.000 N 
ATOM      3  C   UNL     1       5.786   5.987  16.863  0.00  0.00    +0.000 C 
ATOM      4  O   UNL     1       5.659   6.624  15.816  0.00  0.00    +0.000 OA
ATOM      5  C   UNL     1       4.931   4.779  17.115  0.00  0.00    +0.000 C 
ATOM      6  C   UNL     1       4.773   4.498  18.597  0.00  0.00    +0.000 C 
ATOM      7  C   UNL     1       4.243   3.067  18.771  0.00  0.00    +0.000 C 
ATOM      8  N   UNL     1       6.056   4.559  19.290  0.00  0.00    +0.000 NA
ATOM      9  C   UNL     1       6.863   5.510  18.975  0.00  0.00    +0.000 C 
ATOM     10  N   UNL     1       7.849   5.706  19.877  0.00  0.00    +0.000 N 
ATOM     11  H   UNL     1       7.871   5.010  20.619  0.00  0.00    +0.000 HD
ATOM     12  H   UNL     1       8.736   6.136  19.662  0.00  0.00    +0.000 HD
ENDROOT
BRANCH   6  13
ATOM     13  C   UNL     1       3.933   5.553  19.316  0.00  0.00    +0.000 C 
ATOM     14  C   UNL     1       2.703   5.096  20.071  0.00  0.00    +0.000 C 
ATOM     15  C   UNL     1       2.558   6.008  18.875  0.00  0.00    +0.000 C 
BRANCH  15  16
ATOM     16  C   UNL     1       2.056   7.402  19.140  0.00  0.00    +0.000 A 
ATOM     17  C   UNL     1       2.017   8.398  18.155  0.00  0.00    +0.000 A 
ATOM     18  C   UNL     1       1.530   9.676  18.444  0.00  0.00    +0.000 A 
ATOM     19  C   UNL     1       1.072   9.977  19.726  0.00  0.00    +0.000 A 
ATOM     20  C   UNL     1       1.101   9.002  20.718  0.00  0.00    +0.000 A 
ATOM     21  C   UNL     1       1.588   7.732  20.423  0.00  0.00    +0.000 A 
ENDBRANCH  15  16
ENDBRANCH   6  13
TORSDOF 2
ENDMDL
MODEL 2
REMARK VINA RESULT:      -7.8      3.178      6.416
REMARK  Name = 
REMARK  4 active torsions:
REMARK  status: ('A' for Active; 'I' for Inactive)
REMARK    1  A    between atoms: C_1  and  N_2
REMARK    2  A    between atoms: C_6  and  C_7
REMARK    3  A    between atoms: C_6  and  C_8
REMARK    4  A    between atoms: C_10  and  C_11
REMARK                            x       y       z     vdW  Elec       q    Type
REMARK                         _______ _______ _______ _____ _____    ______ ____
ROOT
ATOM      1  C   UNL     1       2.572   1.624  18.574  0.00  0.00    +0.000 C 
ATOM      2  N   UNL     1       3.337   2.854  18.467  0.00  0.00    +0.000 N 
ATOM      3  C   UNL     1       2.764   3.878  17.720  0.00  0.00    +0.000 C 
ATOM      4  O   UNL     1       1.707   3.763  17.096  0.00  0.00    +0.000 OA
ATOM      5  C   UNL     1       3.453   5.210  17.788  0.00  0.00    +0.000 C 
ATOM      6  C   UNL     1       4.942   5.063  18.036  0.00  0.00    +0.000 C 
ATOM      7  C   UNL     1       5.502   6.421  18.483  0.00  0.00    +0.000 C 
ATOM      8  N   UNL     1       5.211   4.121  19.117  0.00  0.00    +0.000 NA
ATOM      9  C   UNL     1       4.519   3.037  19.154  0.00  0.00    +0.000 C 
ATOM     10  N   UNL     1       5.049   2.081  19.949  0.00  0.00    +0.000 N 
ATOM     11  H   UNL     1       5.858   2.393  20.481  0.00  0.00    +0.000 HD
ATOM     12  H   UNL     1       4.516   1.336  20.371  0.00  0.00    +0.000 HD
ENDROOT
BRANCH   6  13
ATOM     13  C   UNL     1       5.686   4.457  16.847  0.00  0.00    +0.000 C 
ATOM     14  C   UNL     1       7.199   4.519  16.842  0.00  0.00    +0.000 C 
ATOM     15  C   UNL     1       6.411   5.256  15.785  0.00  0.00    +0.000 C 
BRANCH  15  16
ATOM     16  C   UNL     1       6.546   4.763  14.369  0.00  0.00    +0.000 A 
ATOM     17  C   UNL     1       7.592   5.155  13.522  0.00  0.00    +0.000 A 
ATOM     18  C   UNL     1       7.683   4.660  12.218  0.00  0.00    +0.000 A 
ATOM     19  C   UNL     1       6.731   3.761  11.741  0.00  0.00    +0.000 A 
ATOM     20  C   UNL     1       5.686   3.358  12.566  0.00  0.00    +0.000 A 
ATOM     21  C   UNL     1       5.600   3.856  13.864  0.00  0.00    +0.000 A 
ENDBRANCH  15  16
ENDBRANCH   6  13
TORSDOF 2
ENDMDL
MODEL 3
REMARK VINA RESULT:      -7.8      3.125      6.446
REMARK  Name = 
REMARK  4 active torsions:
REMARK  status: ('A' for Active; 'I' for Inactive)
REMARK    1  A    between atoms: C_1  and  N_2
REMARK    2  A    between atoms: C_6  and  C_7
REMARK    3  A    between atoms: C_6  and  C_8
REMARK    4  A    between atoms: C_10  and  C_11
REMARK                            x       y       z     vdW  Elec       q    Type
REMARK                         _______ _______ _______ _____ _____    ______ ____
ROOT
ATOM      1  C   UNL     1       2.456   1.774  18.585  0.00  0.00    +0.000 C 
ATOM      2  N   UNL     1       3.290   2.960  18.500  0.00  0.00    +0.000 N 
ATOM      3  C   UNL     1       2.778   4.025  17.765  0.00  0.00    +0.000 C 
ATOM      4  O   UNL     1       1.720   3.978  17.134  0.00  0.00    +0.000 OA
ATOM      5  C   UNL     1       3.540   5.316  17.856  0.00  0.00    +0.000 C 
ATOM      6  C   UNL     1       5.017   5.083  18.108  0.00  0.00    +0.000 C 
ATOM      7  C   UNL     1       5.649   6.402  18.578  0.00  0.00    +0.000 C 
ATOM      8  N   UNL     1       5.227   4.112  19.177  0.00  0.00    +0.000 NA
ATOM      9  C   UNL     1       4.476   3.067  19.195  0.00  0.00    +0.000 C 
ATOM     10  N   UNL     1       4.948   2.073  19.979  0.00  0.00    +0.000 N 
ATOM     11  H   UNL     1       5.770   2.331  20.519  0.00  0.00    +0.000 HD
ATOM     12  H   UNL     1       4.371   1.352  20.386  0.00  0.00    +0.000 HD
ENDROOT
BRANCH   6  13
ATOM     13  C   UNL     1       5.733   4.453  16.914  0.00  0.00    +0.000 C 
ATOM     14  C   UNL     1       7.243   4.546  16.855  0.00  0.00    +0.000 C 
ATOM     15  C   UNL     1       6.403   5.232  15.803  0.00  0.00    +0.000 C 
BRANCH  15  16
ATOM     16  C   UNL     1       6.500   4.696  14.400  0.00  0.00    +0.000 A 
ATOM     17  C   UNL     1       5.581   3.780  13.868  0.00  0.00    +0.000 A 
ATOM     18  C   UNL     1       5.704   3.319  12.555  0.00  0.00    +0.000 A 
ATOM     19  C   UNL     1       6.749   3.770  11.749  0.00  0.00    +0.000 A 
ATOM     20  C   UNL     1       7.671   4.679  12.257  0.00  0.00    +0.000 A 
ATOM     21  C   UNL     1       7.543   5.133  13.566  0.00  0.00    +0.000 A 
ENDBRANCH  15  16
ENDBRANCH   6  13
TORSDOF 2
ENDMDL
MODEL 4
REMARK VINA RESULT:      -7.8      0.518      1.215
REMARK  Name = 
REMARK  4 active torsions:
REMARK  status: ('A' for Active; 'I' for Inactive)
REMARK    1  A    between atoms: C_1  and  N_2
REMARK    2  A    between atoms: C_6  and  C_7
REMARK    3  A    between atoms: C_6  and  C_8
REMARK    4  A    between atoms: C_10  and  C_11
REMARK                            x       y       z     vdW  Elec       q    Type
REMARK                         _______ _______ _______ _____ _____    ______ ____
ROOT
ATOM      1  C   UNL     1       7.460   7.285  17.531  0.00  0.00    +0.000 C 
ATOM      2  N   UNL     1       6.518   6.189  17.676  0.00  0.00    +0.000 N 
ATOM      3  C   UNL     1       5.646   5.976  16.613  0.00  0.00    +0.000 C 
ATOM      4  O   UNL     1       5.582   6.706  15.622  0.00  0.00    +0.000 OA
ATOM      5  C   UNL     1       4.825   4.720  16.675  0.00  0.00    +0.000 C 
ATOM      6  C   UNL     1       4.552   4.294  18.104  0.00  0.00    +0.000 C 
ATOM      7  C   UNL     1       4.071   2.835  18.097  0.00  0.00    +0.000 C 
ATOM      8  N   UNL     1       5.766   4.333  18.912  0.00  0.00    +0.000 NA
ATOM      9  C   UNL     1       6.556   5.337  18.760  0.00  0.00    +0.000 C 
ATOM     10  N   UNL     1       7.451   5.480  19.762  0.00  0.00    +0.000 N 
ATOM     11  H   UNL     1       7.439   4.718  20.435  0.00  0.00    +0.000 HD
ATOM     12  H   UNL     1       8.334   5.960  19.668  0.00  0.00    +0.000 HD
ENDROOT
BRANCH   6  13
ATOM     13  C   UNL     1       3.608   5.245  18.839  0.00  0.00    +0.000 C 
ATOM     14  C   UNL     1       2.165   4.823  19.020  0.00  0.00    +0.000 C 
ATOM     15  C   UNL     1       2.498   6.036  18.181  0.00  0.00    +0.000 C 
BRANCH  15  16
ATOM     16  C   UNL     1       2.049   7.372  18.711  0.00  0.00    +0.000 A 
ATOM     17  C   UNL     1       1.751   7.594  20.063  0.00  0.00    +0.000 A 
ATOM     18  C   UNL     1       1.351   8.856  20.511  0.00  0.00    +0.000 A 
ATOM     19  C   UNL     1       1.244   9.917  19.613  0.00  0.00    +0.000 A 
ATOM     20  C   UNL     1       1.537   9.718  18.268  0.00  0.00    +0.000 A 
ATOM     21  C   UNL     1       1.934   8.458  17.828  0.00  0.00    +0.000 A 
ENDBRANCH  15  16
ENDBRANCH   6  13
TORSDOF 2
ENDMDL
MODEL 5
REMARK VINA RESULT:      -7.3      1.002      1.098
REMARK  Name = 
REMARK  4 active torsions:
REMARK  status: ('A' for Active; 'I' for Inactive)
REMARK    1  A    between atoms: C_1  and  N_2
REMARK    2  A    between atoms: C_6  and  C_7
REMARK    3  A    between atoms: C_6  and  C_8
REMARK    4  A    between atoms: C_10  and  C_11
REMARK                            x       y       z     vdW  Elec       q    Type
REMARK                         _______ _______ _______ _____ _____    ______ ____
ROOT
ATOM      1  C   UNL     1       6.905   6.512  17.016  0.00  0.00    +0.000 C 
ATOM      2  N   UNL     1       6.064   5.420  17.475  0.00  0.00    +0.000 N 
ATOM      3  C   UNL     1       5.241   4.829  16.523  0.00  0.00    +0.000 C 
ATOM      4  O   UNL     1       5.134   5.232  15.363  0.00  0.00    +0.000 OA
ATOM      5  C   UNL     1       4.537   3.572  16.948  0.00  0.00    +0.000 C 
ATOM      6  C   UNL     1       4.269   3.552  18.440  0.00  0.00    +0.000 C 
ATOM      7  C   UNL     1       3.925   2.115  18.858  0.00  0.00    +0.000 C 
ATOM      8  N   UNL     1       5.455   3.938  19.199  0.00  0.00    +0.000 NA
ATOM      9  C   UNL     1       6.153   4.925  18.760  0.00  0.00    +0.000 C 
ATOM     10  N   UNL     1       7.007   5.436  19.674  0.00  0.00    +0.000 N 
ATOM     11  H   UNL     1       7.048   4.902  20.539  0.00  0.00    +0.000 HD
ATOM     12  H   UNL     1       7.844   5.949  19.443  0.00  0.00    +0.000 HD
ENDROOT
BRANCH   6  13
ATOM     13  C   UNL     1       3.225   4.582  18.872  0.00  0.00    +0.000 C 
ATOM     14  C   UNL     1       1.847   4.507  18.248  0.00  0.00    +0.000 C 
ATOM     15  C   UNL     1       2.722   5.714  18.002  0.00  0.00    +0.000 C 
BRANCH  15  16
ATOM     16  C   UNL     1       2.256   7.021  18.587  0.00  0.00    +0.000 A 
ATOM     17  C   UNL     1       2.033   8.167  17.810  0.00  0.00    +0.000 A 
ATOM     18  C   UNL     1       1.588   9.355  18.396  0.00  0.00    +0.000 A 
ATOM     19  C   UNL     1       1.356   9.416  19.769  0.00  0.00    +0.000 A 
ATOM     20  C   UNL     1       1.570   8.290  20.558  0.00  0.00    +0.000 A 
ATOM     21  C   UNL     1       2.015   7.109  19.968  0.00  0.00    +0.000 A 
ENDBRANCH  15  16
ENDBRANCH   6  13
TORSDOF 2
ENDMDL
MODEL 6
REMARK VINA RESULT:      -7.1      0.893      1.486
REMARK  Name = 
REMARK  4 active torsions:
REMARK  status: ('A' for Active; 'I' for Inactive)
REMARK    1  A    between atoms: C_1  and  N_2
REMARK    2  A    between atoms: C_6  and  C_7
REMARK    3  A    between atoms: C_6  and  C_8
REMARK    4  A    between atoms: C_10  and  C_11
REMARK                            x       y       z     vdW  Elec       q    Type
REMARK                         _______ _______ _______ _____ _____    ______ ____
ROOT
ATOM      1  C   UNL     1       6.935   6.183  16.715  0.00  0.00    +0.000 C 
ATOM      2  N   UNL     1       6.133   5.283  17.526  0.00  0.00    +0.000 N 
ATOM      3  C   UNL     1       5.065   4.659  16.888  0.00  0.00    +0.000 C 
ATOM      4  O   UNL     1       4.730   4.893  15.725  0.00  0.00    +0.000 OA
ATOM      5  C   UNL     1       4.374   3.577  17.666  0.00  0.00    +0.000 C 
ATOM      6  C   UNL     1       4.455   3.815  19.161  0.00  0.00    +0.000 C 
ATOM      7  C   UNL     1       4.095   2.510  19.886  0.00  0.00    +0.000 C 
ATOM      8  N   UNL     1       5.812   4.163  19.570  0.00  0.00    +0.000 NA
ATOM      9  C   UNL     1       6.471   4.981  18.828  0.00  0.00    +0.000 C 
ATOM     10  N   UNL     1       7.553   5.516  19.437  0.00  0.00    +0.000 N 
ATOM     11  H   UNL     1       7.746   5.118  20.353  0.00  0.00    +0.000 HD
ATOM     12  H   UNL     1       8.355   5.882  18.947  0.00  0.00    +0.000 HD
ENDROOT
BRANCH   6  13
ATOM     13  C   UNL     1       3.629   5.017  19.618  0.00  0.00    +0.000 C 
ATOM     14  C   UNL     1       2.199   4.778  20.053  0.00  0.00    +0.000 C 
ATOM     15  C   UNL     1       2.486   5.625  18.834  0.00  0.00    +0.000 C 
BRANCH  15  16
ATOM     16  C   UNL     1       2.144   7.088  18.927  0.00  0.00    +0.000 A 
ATOM     17  C   UNL     1       1.659   7.684  20.100  0.00  0.00    +0.000 A 
ATOM     18  C   UNL     1       1.368   9.050  20.143  0.00  0.00    +0.000 A 
ATOM     19  C   UNL     1       1.560   9.843  19.013  0.00  0.00    +0.000 A 
ATOM     20  C   UNL     1       2.042   9.272  17.840  0.00  0.00    +0.000 A 
ATOM     21  C   UNL     1       2.329   7.910  17.804  0.00  0.00    +0.000 A 
ENDBRANCH  15  16
ENDBRANCH   6  13
TORSDOF 2
ENDMDL
MODEL 7
REMARK VINA RESULT:      -7.0      2.465      3.502
REMARK  Name = 
REMARK  4 active torsions:
REMARK  status: ('A' for Active; 'I' for Inactive)
REMARK    1  A    between atoms: C_1  and  N_2
REMARK    2  A    between atoms: C_6  and  C_7
REMARK    3  A    between atoms: C_6  and  C_8
REMARK    4  A    between atoms: C_10  and  C_11
REMARK                            x       y       z     vdW  Elec       q    Type
REMARK                         _______ _______ _______ _____ _____    ______ ____
ROOT
ATOM      1  C   UNL     1       7.848   6.681  18.785  0.00  0.00    +0.000 C 
ATOM      2  N   UNL     1       7.130   6.008  17.717  0.00  0.00    +0.000 N 
ATOM      3  C   UNL     1       6.128   6.738  17.088  0.00  0.00    +0.000 C 
ATOM      4  O   UNL     1       5.777   7.867  17.440  0.00  0.00    +0.000 OA
ATOM      5  C   UNL     1       5.536   6.121  15.853  0.00  0.00    +0.000 C 
ATOM      6  C   UNL     1       5.589   4.606  15.899  0.00  0.00    +0.000 C 
ATOM      7  C   UNL     1       5.348   4.063  14.483  0.00  0.00    +0.000 C 
ATOM      8  N   UNL     1       6.906   4.132  16.313  0.00  0.00    +0.000 NA
ATOM      9  C   UNL     1       7.490   4.750  17.278  0.00  0.00    +0.000 C 
ATOM     10  N   UNL     1       8.515   4.059  17.825  0.00  0.00    +0.000 N 
ATOM     11  H   UNL     1       8.740   3.200  17.329  0.00  0.00    +0.000 HD
ATOM     12  H   UNL     1       9.281   4.484  18.324  0.00  0.00    +0.000 HD
ENDROOT
BRANCH   6  13
ATOM     13  C   UNL     1       4.653   4.010  16.950  0.00  0.00    +0.000 C 
ATOM     14  C   UNL     1       3.601   3.022  16.493  0.00  0.00    +0.000 C 
ATOM     15  C   UNL     1       3.184   4.347  17.086  0.00  0.00    +0.000 C 
BRANCH  15  16
ATOM     16  C   UNL     1       2.476   4.304  18.414  0.00  0.00    +0.000 A 
ATOM     17  C   UNL     1       2.643   5.288  19.399  0.00  0.00    +0.000 A 
ATOM     18  C   UNL     1       1.955   5.213  20.613  0.00  0.00    +0.000 A 
ATOM     19  C   UNL     1       1.084   4.153  20.860  0.00  0.00    +0.000 A 
ATOM     20  C   UNL     1       0.904   3.166  19.896  0.00  0.00    +0.000 A 
ATOM     21  C   UNL     1       1.594   3.247  18.690  0.00  0.00    +0.000 A 
ENDBRANCH  15  16
ENDBRANCH   6  13
TORSDOF 2
ENDMDL
MODEL 8
REMARK VINA RESULT:      -6.9      2.413      3.486
REMARK  Name = 
REMARK  4 active torsions:
REMARK  status: ('A' for Active; 'I' for Inactive)
REMARK    1  A    between atoms: C_1  and  N_2
REMARK    2  A    between atoms: C_6  and  C_7
REMARK    3  A    between atoms: C_6  and  C_8
REMARK    4  A    between atoms: C_10  and  C_11
REMARK                            x       y       z     vdW  Elec       q    Type
REMARK                         _______ _______ _______ _____ _____    ______ ____
ROOT
ATOM      1  C   UNL     1       7.855   6.697  18.764  0.00  0.00    +0.000 C 
ATOM      2  N   UNL     1       7.130   6.018  17.704  0.00  0.00    +0.000 N 
ATOM      3  C   UNL     1       6.125   6.746  17.076  0.00  0.00    +0.000 C 
ATOM      4  O   UNL     1       5.777   7.877  17.424  0.00  0.00    +0.000 OA
ATOM      5  C   UNL     1       5.527   6.122  15.849  0.00  0.00    +0.000 C 
ATOM      6  C   UNL     1       5.578   4.607  15.903  0.00  0.00    +0.000 C 
ATOM      7  C   UNL     1       5.329   4.056  14.492  0.00  0.00    +0.000 C 
ATOM      8  N   UNL     1       6.897   4.135  16.313  0.00  0.00    +0.000 NA
ATOM      9  C   UNL     1       7.487   4.758  17.271  0.00  0.00    +0.000 C 
ATOM     10  N   UNL     1       8.514   4.069  17.816  0.00  0.00    +0.000 N 
ATOM     11  H   UNL     1       8.736   3.207  17.325  0.00  0.00    +0.000 HD
ATOM     12  H   UNL     1       9.283   4.497  18.309  0.00  0.00    +0.000 HD
ENDROOT
BRANCH   6  13
ATOM     13  C   UNL     1       4.648   4.018  16.963  0.00  0.00    +0.000 C 
ATOM     14  C   UNL     1       3.684   2.929  16.542  0.00  0.00    +0.000 C 
ATOM     15  C   UNL     1       3.155   4.259  17.028  0.00  0.00    +0.000 C 
BRANCH  15  16
ATOM     16  C   UNL     1       2.403   4.255  18.333  0.00  0.00    +0.000 A 
ATOM     17  C   UNL     1       1.531   3.223  18.707  0.00  0.00    +0.000 A 
ATOM     18  C   UNL     1       0.865   3.256  19.935  0.00  0.00    +0.000 A 
ATOM     19  C   UNL     1       1.063   4.322  20.811  0.00  0.00    +0.000 A 
ATOM     20  C   UNL     1       1.924   5.356  20.459  0.00  0.00    +0.000 A 
ATOM     21  C   UNL     1       2.584   5.317  19.234  0.00  0.00    +0.000 A 
ENDBRANCH  15  16
ENDBRANCH   6  13
TORSDOF 2
ENDMDL
MODEL 9
REMARK VINA RESULT:      -6.9      1.024      1.617
REMARK  Name = 
REMARK  4 active torsions:
REMARK  status: ('A' for Active; 'I' for Inactive)
REMARK    1  A    between atoms: C_1  and  N_2
REMARK    2  A    between atoms: C_6  and  C_7
REMARK    3  A    between atoms: C_6  and  C_8
REMARK    4  A    between atoms: C_10  and  C_11
REMARK                            x       y       z     vdW  Elec       q    Type
REMARK                         _______ _______ _______ _____ _____    ______ ____
ROOT
ATOM      1  C   UNL     1       8.527   7.796  18.914  0.00  0.00    +0.000 C 
ATOM      2  N   UNL     1       7.593   6.785  18.449  0.00  0.00    +0.000 N 
ATOM      3  C   UNL     1       6.933   7.052  17.255  0.00  0.00    +0.000 C 
ATOM      4  O   UNL     1       7.038   8.113  16.636  0.00  0.00    +0.000 OA
ATOM      5  C   UNL     1       6.136   5.921  16.673  0.00  0.00    +0.000 C 
ATOM      6  C   UNL     1       5.614   4.987  17.748  0.00  0.00    +0.000 C 
ATOM      7  C   UNL     1       5.167   3.676  17.084  0.00  0.00    +0.000 C 
ATOM      8  N   UNL     1       6.660   4.640  18.704  0.00  0.00    +0.000 NA
ATOM      9  C   UNL     1       7.446   5.577  19.100  0.00  0.00    +0.000 C 
ATOM     10  N   UNL     1       8.142   5.267  20.216  0.00  0.00    +0.000 N 
ATOM     11  H   UNL     1       8.020   4.305  20.522  0.00  0.00    +0.000 HD
ATOM     12  H   UNL     1       9.018   5.695  20.474  0.00  0.00    +0.000 HD
ENDROOT
BRANCH   6  13
ATOM     13  C   UNL     1       4.536   5.628  18.621  0.00  0.00    +0.000 C 
ATOM     14  C   UNL     1       3.312   4.806  18.966  0.00  0.00    +0.000 C 
ATOM     15  C   UNL     1       3.170   6.056  18.129  0.00  0.00    +0.000 C 
BRANCH  15  16
ATOM     16  C   UNL     1       2.424   7.208  18.748  0.00  0.00    +0.000 A 
ATOM     17  C   UNL     1       2.054   7.237  20.101  0.00  0.00    +0.000 A 
ATOM     18  C   UNL     1       1.374   8.334  20.635  0.00  0.00    +0.000 A 
ATOM     19  C   UNL     1       1.055   9.423  19.825  0.00  0.00    +0.000 A 
ATOM     20  C   UNL     1       1.414   9.415  18.482  0.00  0.00    +0.000 A 
ATOM     21  C   UNL     1       2.091   8.318  17.955  0.00  0.00    +0.000 A 
ENDBRANCH  15  16
ENDBRANCH   6  13
TORSDOF 2
ENDMDL
