MODEL 1
REMARK VINA RESULT:      -8.7      0.000      0.000
REMARK  Name = 
REMARK  7 active torsions:
REMARK  status: ('A' for Active; 'I' for Inactive)
REMARK    1  A    between atoms: C_2  and  C_3
REMARK    2  A    between atoms: C_3  and  C_4
REMARK    3  A    between atoms: C_4  and  N_5
REMARK    4  A    between atoms: C_6  and  C_8
REMARK    5  A    between atoms: N_15  and  C_16
REMARK    6  A    between atoms: C_19  and  S_20
REMARK    7  A    between atoms: S_20  and  N_23
REMARK                            x       y       z     vdW  Elec       q    Type
REMARK                         _______ _______ _______ _____ _____    ______ ____
ROOT
ATOM      1  O   UNL     1       7.479   8.245  17.134  0.00  0.00    +0.000 OA
ATOM      2  C   UNL     1       8.019   7.796  18.144  0.00  0.00    +0.000 C 
ATOM      3  N   UNL     1       8.793   8.512  19.044  0.00  0.00    +0.000 N 
ATOM      4  H   UNL     1       9.195   8.000  19.820  0.00  0.00    +0.000 HD
ENDROOT
BRANCH   3   5
ATOM      5  C   UNL     1       9.064   9.902  19.001  0.00  0.00    +0.000 A 
ATOM      6  C   UNL     1       8.921  10.670  17.843  0.00  0.00    +0.000 A 
ATOM      7  C   UNL     1       9.129  12.049  17.863  0.00  0.00    +0.000 A 
ATOM      8  C   UNL     1       9.464  12.683  19.057  0.00  0.00    +0.000 A 
ATOM      9  C   UNL     1       9.674  11.931  20.213  0.00  0.00    +0.000 A 
ATOM     10  C   UNL     1       9.472  10.540  20.183  0.00  0.00    +0.000 A 
BRANCH   8  11
ATOM     11  S   UNL     1       9.716  14.442  19.046  0.00  0.00    +0.000 S 
ATOM     12  O   UNL     1       9.010  14.972  20.200  0.00  0.00    +0.000 OA
ATOM     13  O   UNL     1      11.129  14.695  18.885  0.00  0.00    +0.000 OA
BRANCH  11  14
ATOM     14  N   UNL     1       8.855  14.973  17.708  0.00  0.00    +0.000 N 
ATOM     15  C   UNL     1       7.591  15.468  18.017  0.00  0.00    +0.000 A 
ATOM     16  N   UNL     1       7.506  16.751  18.376  0.00  0.00    +0.000 NA
ATOM     17  C   UNL     1       6.283  17.159  18.763  0.00  0.00    +0.000 A 
ATOM     18  C   UNL     1       5.192  16.323  18.831  0.00  0.00    +0.000 A 
ATOM     19  C   UNL     1       5.414  15.023  18.437  0.00  0.00    +0.000 A 
ATOM     20  N   UNL     1       6.603  14.571  17.998  0.00  0.00    +0.000 NA
ATOM     21  H   UNL     1       8.803  14.221  17.030  0.00  0.00    +0.000 HD
ENDBRANCH  11  14
ENDBRANCH   8  11
ENDBRANCH   3   5
BRANCH   2  22
ATOM     22  C   UNL     1       7.799   6.355  18.551  0.00  0.00    +0.000 C 
BRANCH  22  23
ATOM     23  C   UNL     1       6.849   5.673  17.566  0.00  0.00    +0.000 C 
BRANCH  23  24
ATOM     24  N   UNL     1       5.657   5.178  18.227  0.00  0.00    +0.000 N 
ATOM     25  C   UNL     1       4.452   5.836  18.157  0.00  0.00    +0.000 C 
ATOM     26  O   UNL     1       4.309   6.880  17.527  0.00  0.00    +0.000 OA
ATOM     27  H   UNL     1       5.735   4.331  18.779  0.00  0.00    +0.000 HD
BRANCH  25  28
ATOM     28  C   UNL     1       3.273   5.191  18.806  0.00  0.00    +0.000 A 
ATOM     29  C   UNL     1       2.840   5.785  20.007  0.00  0.00    +0.000 A 
ATOM     30  C   UNL     1       1.717   5.308  20.684  0.00  0.00    +0.000 A 
ATOM     31  C   UNL     1       1.013   4.221  20.176  0.00  0.00    +0.000 A 
ATOM     32  C   UNL     1       1.441   3.607  18.998  0.00  0.00    +0.000 A 
ATOM     33  C   UNL     1       2.570   4.082  18.314  0.00  0.00    +0.000 A 
ATOM     34 CL   UNL     1       3.019   3.204  16.893  0.00  0.00    +0.000 Cl
ENDBRANCH  25  28
ENDBRANCH  23  24
ENDBRANCH  22  23
ENDBRANCH   2  22
TORSDOF 7
ENDMDL
MODEL 2
REMARK VINA RESULT:      -8.7      5.855      6.654
REMARK  Name = 
REMARK  7 active torsions:
REMARK  status: ('A' for Active; 'I' for Inactive)
REMARK    1  A    between atoms: C_2  and  C_3
REMARK    2  A    between atoms: C_3  and  C_4
REMARK    3  A    between atoms: C_4  and  N_5
REMARK    4  A    between atoms: C_6  and  C_8
REMARK    5  A    between atoms: N_15  and  C_16
REMARK    6  A    between atoms: C_19  and  S_20
REMARK    7  A    between atoms: S_20  and  N_23
REMARK                            x       y       z     vdW  Elec       q    Type
REMARK                         _______ _______ _______ _____ _____    ______ ____
ROOT
ATOM      1  O   UNL     1       5.642   7.047  17.850  0.00  0.00    +0.000 OA
ATOM      2  C   UNL     1       4.807   6.511  17.122  0.00  0.00    +0.000 C 
ATOM      3  N   UNL     1       3.434   6.692  17.182  0.00  0.00    +0.000 N 
ATOM      4  H   UNL     1       2.868   6.162  16.532  0.00  0.00    +0.000 HD
ENDROOT
BRANCH   3   5
ATOM      5  C   UNL     1       2.739   7.566  18.054  0.00  0.00    +0.000 A 
ATOM      6  C   UNL     1       2.261   8.817  17.657  0.00  0.00    +0.000 A 
ATOM      7  C   UNL     1       1.518   9.614  18.528  0.00  0.00    +0.000 A 
ATOM      8  C   UNL     1       1.226   9.155  19.810  0.00  0.00    +0.000 A 
ATOM      9  C   UNL     1       1.744   7.937  20.252  0.00  0.00    +0.000 A 
ATOM     10  C   UNL     1       2.500   7.143  19.372  0.00  0.00    +0.000 A 
BRANCH   8  11
ATOM     11  S   UNL     1       0.272  10.195  20.891  0.00  0.00    +0.000 S 
ATOM     12  O   UNL     1      -0.370   9.318  21.855  0.00  0.00    +0.000 OA
ATOM     13  O   UNL     1       1.121  11.271  21.346  0.00  0.00    +0.000 OA
BRANCH  11  14
ATOM     14  N   UNL     1      -0.964  10.776  19.918  0.00  0.00    +0.000 N 
ATOM     15  C   UNL     1      -1.001  12.165  19.833  0.00  0.00    +0.000 A 
ATOM     16  N   UNL     1      -0.226  12.744  18.913  0.00  0.00    +0.000 NA
ATOM     17  C   UNL     1      -0.217  14.090  18.934  0.00  0.00    +0.000 A 
ATOM     18  C   UNL     1      -0.916  14.838  19.853  0.00  0.00    +0.000 A 
ATOM     19  C   UNL     1      -1.674  14.120  20.750  0.00  0.00    +0.000 A 
ATOM     20  N   UNL     1      -1.757  12.777  20.747  0.00  0.00    +0.000 NA
ATOM     21  H   UNL     1      -1.847  10.401  20.247  0.00  0.00    +0.000 HD
ENDBRANCH  11  14
ENDBRANCH   8  11
ENDBRANCH   3   5
BRANCH   2  22
ATOM     22  C   UNL     1       5.250   5.619  15.982  0.00  0.00    +0.000 C 
BRANCH  22  23
ATOM     23  C   UNL     1       5.374   4.175  16.465  0.00  0.00    +0.000 C 
BRANCH  23  24
ATOM     24  N   UNL     1       4.281   3.809  17.345  0.00  0.00    +0.000 N 
ATOM     25  C   UNL     1       4.456   3.632  18.697  0.00  0.00    +0.000 C 
ATOM     26  O   UNL     1       5.546   3.778  19.243  0.00  0.00    +0.000 OA
ATOM     27  H   UNL     1       3.368   3.656  16.933  0.00  0.00    +0.000 HD
BRANCH  25  28
ATOM     28  C   UNL     1       3.244   3.340  19.518  0.00  0.00    +0.000 A 
ATOM     29  C   UNL     1       3.493   2.809  20.799  0.00  0.00    +0.000 A 
ATOM     30  C   UNL     1       2.448   2.541  21.684  0.00  0.00    +0.000 A 
ATOM     31  C   UNL     1       1.134   2.791  21.299  0.00  0.00    +0.000 A 
ATOM     32  C   UNL     1       0.869   3.296  20.026  0.00  0.00    +0.000 A 
ATOM     33  C   UNL     1       1.915   3.567  19.132  0.00  0.00    +0.000 A 
ATOM     34 CL   UNL     1       1.448   4.148  17.571  0.00  0.00    +0.000 Cl
ENDBRANCH  25  28
ENDBRANCH  23  24
ENDBRANCH  22  23
ENDBRANCH   2  22
TORSDOF 7
ENDMDL
MODEL 3
REMARK VINA RESULT:      -8.4      5.492      7.905
REMARK  Name = 
REMARK  7 active torsions:
REMARK  status: ('A' for Active; 'I' for Inactive)
REMARK    1  A    between atoms: C_2  and  C_3
REMARK    2  A    between atoms: C_3  and  C_4
REMARK    3  A    between atoms: C_4  and  N_5
REMARK    4  A    between atoms: C_6  and  C_8
REMARK    5  A    between atoms: N_15  and  C_16
REMARK    6  A    between atoms: C_19  and  S_20
REMARK    7  A    between atoms: S_20  and  N_23
REMARK                            x       y       z     vdW  Elec       q    Type
REMARK                         _______ _______ _______ _____ _____    ______ ____
ROOT
ATOM      1  O   UNL     1       2.571   4.808  17.744  0.00  0.00    +0.000 OA
ATOM      2  C   UNL     1       2.726   4.566  18.940  0.00  0.00    +0.000 C 
ATOM      3  N   UNL     1       2.557   5.462  19.984  0.00  0.00    +0.000 N 
ATOM      4  H   UNL     1       2.745   5.125  20.920  0.00  0.00    +0.000 HD
ENDROOT
BRANCH   3   5
ATOM      5  C   UNL     1       2.123   6.807  19.877  0.00  0.00    +0.000 A 
ATOM      6  C   UNL     1       2.327   7.583  18.734  0.00  0.00    +0.000 A 
ATOM      7  C   UNL     1       1.820   8.880  18.644  0.00  0.00    +0.000 A 
ATOM      8  C   UNL     1       1.079   9.409  19.698  0.00  0.00    +0.000 A 
ATOM      9  C   UNL     1       0.915   8.678  20.875  0.00  0.00    +0.000 A 
ATOM     10  C   UNL     1       1.437   7.376  20.962  0.00  0.00    +0.000 A 
BRANCH   8  11
ATOM     11  S   UNL     1       0.443  11.062  19.546  0.00  0.00    +0.000 S 
ATOM     12  O   UNL     1      -0.757  11.125  20.362  0.00  0.00    +0.000 OA
ATOM     13  O   UNL     1       1.528  11.986  19.785  0.00  0.00    +0.000 OA
BRANCH  11  14
ATOM     14  N   UNL     1      -0.086  11.156  17.957  0.00  0.00    +0.000 N 
ATOM     15  C   UNL     1      -1.458  10.971  17.813  0.00  0.00    +0.000 A 
ATOM     16  N   UNL     1      -2.239  12.043  17.964  0.00  0.00    +0.000 NA
ATOM     17  C   UNL     1      -3.562  11.801  17.917  0.00  0.00    +0.000 A 
ATOM     18  C   UNL     1      -4.097  10.541  17.767  0.00  0.00    +0.000 A 
ATOM     19  C   UNL     1      -3.184   9.521  17.626  0.00  0.00    +0.000 A 
ATOM     20  N   UNL     1      -1.852   9.711  17.619  0.00  0.00    +0.000 NA
ATOM     21  H   UNL     1       0.438  10.492  17.396  0.00  0.00    +0.000 HD
ENDBRANCH  11  14
ENDBRANCH   8  11
ENDBRANCH   3   5
BRANCH   2  22
ATOM     22  C   UNL     1       3.055   3.161  19.398  0.00  0.00    +0.000 C 
BRANCH  22  23
ATOM     23  C   UNL     1       4.559   2.915  19.291  0.00  0.00    +0.000 C 
BRANCH  23  24
ATOM     24  N   UNL     1       5.297   4.157  19.168  0.00  0.00    +0.000 N 
ATOM     25  C   UNL     1       5.943   4.515  18.008  0.00  0.00    +0.000 C 
ATOM     26  O   UNL     1       5.930   3.808  17.005  0.00  0.00    +0.000 OA
ATOM     27  H   UNL     1       5.353   4.761  19.980  0.00  0.00    +0.000 HD
BRANCH  25  28
ATOM     28  C   UNL     1       6.599   5.855  17.968  0.00  0.00    +0.000 A 
ATOM     29  C   UNL     1       7.693   6.021  18.838  0.00  0.00    +0.000 A 
ATOM     30  C   UNL     1       8.425   7.210  18.858  0.00  0.00    +0.000 A 
ATOM     31  C   UNL     1       8.068   8.256  18.015  0.00  0.00    +0.000 A 
ATOM     32  C   UNL     1       6.972   8.116  17.162  0.00  0.00    +0.000 A 
ATOM     33  C   UNL     1       6.233   6.925  17.137  0.00  0.00    +0.000 A 
ATOM     34 CL   UNL     1       4.873   6.898  16.068  0.00  0.00    +0.000 Cl
ENDBRANCH  25  28
ENDBRANCH  23  24
ENDBRANCH  22  23
ENDBRANCH   2  22
TORSDOF 7
ENDMDL
MODEL 4
REMARK VINA RESULT:      -8.4      5.989      7.156
REMARK  Name = 
REMARK  7 active torsions:
REMARK  status: ('A' for Active; 'I' for Inactive)
REMARK    1  A    between atoms: C_2  and  C_3
REMARK    2  A    between atoms: C_3  and  C_4
REMARK    3  A    between atoms: C_4  and  N_5
REMARK    4  A    between atoms: C_6  and  C_8
REMARK    5  A    between atoms: N_15  and  C_16
REMARK    6  A    between atoms: C_19  and  S_20
REMARK    7  A    between atoms: S_20  and  N_23
REMARK                            x       y       z     vdW  Elec       q    Type
REMARK                         _______ _______ _______ _____ _____    ______ ____
ROOT
ATOM      1  O   UNL     1       5.931   7.501  16.798  0.00  0.00    +0.000 OA
ATOM      2  C   UNL     1       5.292   6.452  16.856  0.00  0.00    +0.000 C 
ATOM      3  N   UNL     1       4.029   6.293  17.405  0.00  0.00    +0.000 N 
ATOM      4  H   UNL     1       3.636   5.360  17.404  0.00  0.00    +0.000 HD
ENDROOT
BRANCH   3   5
ATOM      5  C   UNL     1       3.216   7.316  17.953  0.00  0.00    +0.000 A 
ATOM      6  C   UNL     1       2.888   8.483  17.258  0.00  0.00    +0.000 A 
ATOM      7  C   UNL     1       2.026   9.432  17.808  0.00  0.00    +0.000 A 
ATOM      8  C   UNL     1       1.460   9.210  19.062  0.00  0.00    +0.000 A 
ATOM      9  C   UNL     1       1.820   8.083  19.803  0.00  0.00    +0.000 A 
ATOM     10  C   UNL     1       2.697   7.137  19.245  0.00  0.00    +0.000 A 
BRANCH   8  11
ATOM     11  S   UNL     1       0.361  10.437  19.730  0.00  0.00    +0.000 S 
ATOM     12  O   UNL     1      -0.805   9.727  20.227  0.00  0.00    +0.000 OA
ATOM     13  O   UNL     1       1.120  11.289  20.615  0.00  0.00    +0.000 OA
BRANCH  11  14
ATOM     14  N   UNL     1      -0.170  11.289  18.386  0.00  0.00    +0.000 N 
ATOM     15  C   UNL     1      -1.520  11.101  18.103  0.00  0.00    +0.000 A 
ATOM     16  N   UNL     1      -2.394  11.883  18.740  0.00  0.00    +0.000 NA
ATOM     17  C   UNL     1      -3.690  11.599  18.513  0.00  0.00    +0.000 A 
ATOM     18  C   UNL     1      -4.109  10.558  17.717  0.00  0.00    +0.000 A 
ATOM     19  C   UNL     1      -3.108   9.826  17.120  0.00  0.00    +0.000 A 
ATOM     20  N   UNL     1      -1.798  10.092  17.275  0.00  0.00    +0.000 NA
ATOM     21  H   UNL     1       0.413  11.048  17.591  0.00  0.00    +0.000 HD
ENDBRANCH  11  14
ENDBRANCH   8  11
ENDBRANCH   3   5
BRANCH   2  22
ATOM     22  C   UNL     1       5.836   5.191  16.220  0.00  0.00    +0.000 C 
BRANCH  22  23
ATOM     23  C   UNL     1       6.123   4.144  17.296  0.00  0.00    +0.000 C 
BRANCH  23  24
ATOM     24  N   UNL     1       5.046   4.060  18.262  0.00  0.00    +0.000 N 
ATOM     25  C   UNL     1       4.080   3.084  18.201  0.00  0.00    +0.000 C 
ATOM     26  O   UNL     1       4.073   2.220  17.329  0.00  0.00    +0.000 OA
ATOM     27  H   UNL     1       4.999   4.768  18.987  0.00  0.00    +0.000 HD
BRANCH  25  28
ATOM     28  C   UNL     1       3.068   3.043  19.298  0.00  0.00    +0.000 A 
ATOM     29  C   UNL     1       3.497   2.443  20.497  0.00  0.00    +0.000 A 
ATOM     30  C   UNL     1       2.663   2.388  21.615  0.00  0.00    +0.000 A 
ATOM     31  C   UNL     1       1.382   2.925  21.549  0.00  0.00    +0.000 A 
ATOM     32  C   UNL     1       0.934   3.504  20.361  0.00  0.00    +0.000 A 
ATOM     33  C   UNL     1       1.766   3.561  19.234  0.00  0.00    +0.000 A 
ATOM     34 CL   UNL     1       1.073   4.264  17.814  0.00  0.00    +0.000 Cl
ENDBRANCH  25  28
ENDBRANCH  23  24
ENDBRANCH  22  23
ENDBRANCH   2  22
TORSDOF 7
ENDMDL
MODEL 5
REMARK VINA RESULT:      -8.3      6.335      8.153
REMARK  Name = 
REMARK  7 active torsions:
REMARK  status: ('A' for Active; 'I' for Inactive)
REMARK    1  A    between atoms: C_2  and  C_3
REMARK    2  A    between atoms: C_3  and  C_4
REMARK    3  A    between atoms: C_4  and  N_5
REMARK    4  A    between atoms: C_6  and  C_8
REMARK    5  A    between atoms: N_15  and  C_16
REMARK    6  A    between atoms: C_19  and  S_20
REMARK    7  A    between atoms: S_20  and  N_23
REMARK                            x       y       z     vdW  Elec       q    Type
REMARK                         _______ _______ _______ _____ _____    ______ ____
ROOT
ATOM      1  O   UNL     1       1.355   4.427  19.089  0.00  0.00    +0.000 OA
ATOM      2  C   UNL     1       2.357   4.645  19.768  0.00  0.00    +0.000 C 
ATOM      3  N   UNL     1       2.778   5.882  20.231  0.00  0.00    +0.000 N 
ATOM      4  H   UNL     1       3.641   5.911  20.760  0.00  0.00    +0.000 HD
ENDROOT
BRANCH   3   5
ATOM      5  C   UNL     1       2.108   7.118  20.054  0.00  0.00    +0.000 A 
ATOM      6  C   UNL     1       1.331   7.713  21.051  0.00  0.00    +0.000 A 
ATOM      7  C   UNL     1       0.747   8.965  20.860  0.00  0.00    +0.000 A 
ATOM      8  C   UNL     1       0.955   9.651  19.665  0.00  0.00    +0.000 A 
ATOM      9  C   UNL     1       1.674   9.053  18.630  0.00  0.00    +0.000 A 
ATOM     10  C   UNL     1       2.251   7.786  18.827  0.00  0.00    +0.000 A 
BRANCH   8  11
ATOM     11  S   UNL     1       0.201  11.248  19.458  0.00  0.00    +0.000 S 
ATOM     12  O   UNL     1      -0.988  11.260  20.292  0.00  0.00    +0.000 OA
ATOM     13  O   UNL     1       1.222  12.255  19.639  0.00  0.00    +0.000 OA
BRANCH  11  14
ATOM     14  N   UNL     1      -0.357  11.237  17.877  0.00  0.00    +0.000 N 
ATOM     15  C   UNL     1      -1.722  10.985  17.768  0.00  0.00    +0.000 A 
ATOM     16  N   UNL     1      -2.548  12.029  17.879  0.00  0.00    +0.000 NA
ATOM     17  C   UNL     1      -3.860  11.726  17.870  0.00  0.00    +0.000 A 
ATOM     18  C   UNL     1      -4.340  10.439  17.793  0.00  0.00    +0.000 A 
ATOM     19  C   UNL     1      -3.384   9.454  17.686  0.00  0.00    +0.000 A 
ATOM     20  N   UNL     1      -2.062   9.701  17.644  0.00  0.00    +0.000 NA
ATOM     21  H   UNL     1       0.186  10.570  17.339  0.00  0.00    +0.000 HD
ENDBRANCH  11  14
ENDBRANCH   8  11
ENDBRANCH   3   5
BRANCH   2  22
ATOM     22  C   UNL     1       3.217   3.496  20.250  0.00  0.00    +0.000 C 
BRANCH  22  23
ATOM     23  C   UNL     1       3.413   2.482  19.124  0.00  0.00    +0.000 C 
BRANCH  23  24
ATOM     24  N   UNL     1       4.094   3.070  17.987  0.00  0.00    +0.000 N 
ATOM     25  C   UNL     1       5.285   3.745  18.113  0.00  0.00    +0.000 C 
ATOM     26  O   UNL     1       5.848   3.888  19.194  0.00  0.00    +0.000 OA
ATOM     27  H   UNL     1       3.653   2.996  17.077  0.00  0.00    +0.000 HD
BRANCH  25  28
ATOM     28  C   UNL     1       5.938   4.234  16.863  0.00  0.00    +0.000 A 
ATOM     29  C   UNL     1       5.528   3.599  15.675  0.00  0.00    +0.000 A 
ATOM     30  C   UNL     1       6.025   3.999  14.434  0.00  0.00    +0.000 A 
ATOM     31  C   UNL     1       6.948   5.036  14.361  0.00  0.00    +0.000 A 
ATOM     32  C   UNL     1       7.381   5.663  15.530  0.00  0.00    +0.000 A 
ATOM     33  C   UNL     1       6.887   5.264  16.780  0.00  0.00    +0.000 A 
ATOM     34 CL   UNL     1       7.538   6.091  18.153  0.00  0.00    +0.000 Cl
ENDBRANCH  25  28
ENDBRANCH  23  24
ENDBRANCH  22  23
ENDBRANCH   2  22
TORSDOF 7
ENDMDL
MODEL 6
REMARK VINA RESULT:      -8.2      6.137      7.103
REMARK  Name = 
REMARK  7 active torsions:
REMARK  status: ('A' for Active; 'I' for Inactive)
REMARK    1  A    between atoms: C_2  and  C_3
REMARK    2  A    between atoms: C_3  and  C_4
REMARK    3  A    between atoms: C_4  and  N_5
REMARK    4  A    between atoms: C_6  and  C_8
REMARK    5  A    between atoms: N_15  and  C_16
REMARK    6  A    between atoms: C_19  and  S_20
REMARK    7  A    between atoms: S_20  and  N_23
REMARK                            x       y       z     vdW  Elec       q    Type
REMARK                         _______ _______ _______ _____ _____    ______ ____
ROOT
ATOM      1  O   UNL     1       5.676   7.375  16.814  0.00  0.00    +0.000 OA
ATOM      2  C   UNL     1       4.941   6.396  16.695  0.00  0.00    +0.000 C 
ATOM      3  N   UNL     1       3.680   6.249  17.252  0.00  0.00    +0.000 N 
ATOM      4  H   UNL     1       3.200   5.373  17.088  0.00  0.00    +0.000 HD
ENDROOT
BRANCH   3   5
ATOM      5  C   UNL     1       2.980   7.216  18.015  0.00  0.00    +0.000 A 
ATOM      6  C   UNL     1       2.597   8.458  17.505  0.00  0.00    +0.000 A 
ATOM      7  C   UNL     1       1.846   9.352  18.269  0.00  0.00    +0.000 A 
ATOM      8  C   UNL     1       1.449   8.999  19.557  0.00  0.00    +0.000 A 
ATOM      9  C   UNL     1       1.871   7.790  20.113  0.00  0.00    +0.000 A 
ATOM     10  C   UNL     1       2.636   6.900  19.340  0.00  0.00    +0.000 A 
BRANCH   8  11
ATOM     11  S   UNL     1       0.488  10.159  20.500  0.00  0.00    +0.000 S 
ATOM     12  O   UNL     1      -0.809   9.543  20.723  0.00  0.00    +0.000 OA
ATOM     13  O   UNL     1       1.284  10.595  21.624  0.00  0.00    +0.000 OA
BRANCH  11  14
ATOM     14  N   UNL     1       0.209  11.424  19.435  0.00  0.00    +0.000 N 
ATOM     15  C   UNL     1      -1.120  11.538  19.039  0.00  0.00    +0.000 A 
ATOM     16  N   UNL     1      -1.937  12.240  19.829  0.00  0.00    +0.000 NA
ATOM     17  C   UNL     1      -3.232  12.239  19.462  0.00  0.00    +0.000 A 
ATOM     18  C   UNL     1      -3.711  11.540  18.377  0.00  0.00    +0.000 A 
ATOM     19  C   UNL     1      -2.767  10.855  17.647  0.00  0.00    +0.000 A 
ATOM     20  N   UNL     1      -1.454  10.857  17.941  0.00  0.00    +0.000 NA
ATOM     21  H   UNL     1       0.827  11.325  18.637  0.00  0.00    +0.000 HD
ENDBRANCH  11  14
ENDBRANCH   8  11
ENDBRANCH   3   5
BRANCH   2  22
ATOM     22  C   UNL     1       5.349   5.238  15.810  0.00  0.00    +0.000 C 
BRANCH  22  23
ATOM     23  C   UNL     1       5.516   3.972  16.649  0.00  0.00    +0.000 C 
BRANCH  23  24
ATOM     24  N   UNL     1       4.619   3.963  17.788  0.00  0.00    +0.000 N 
ATOM     25  C   UNL     1       3.821   2.884  18.085  0.00  0.00    +0.000 C 
ATOM     26  O   UNL     1       3.821   1.860  17.408  0.00  0.00    +0.000 OA
ATOM     27  H   UNL     1       4.570   4.797  18.362  0.00  0.00    +0.000 HD
BRANCH  25  28
ATOM     28  C   UNL     1       3.001   2.953  19.331  0.00  0.00    +0.000 A 
ATOM     29  C   UNL     1       1.747   3.580  19.198  0.00  0.00    +0.000 A 
ATOM     30  C   UNL     1       0.864   3.663  20.275  0.00  0.00    +0.000 A 
ATOM     31  C   UNL     1       1.224   3.128  21.507  0.00  0.00    +0.000 A 
ATOM     32  C   UNL     1       2.472   2.522  21.662  0.00  0.00    +0.000 A 
ATOM     33  C   UNL     1       3.364   2.437  20.583  0.00  0.00    +0.000 A 
ATOM     34 CL   UNL     1       4.893   1.702  20.920  0.00  0.00    +0.000 Cl
ENDBRANCH  25  28
ENDBRANCH  23  24
ENDBRANCH  22  23
ENDBRANCH   2  22
TORSDOF 7
ENDMDL
MODEL 7
REMARK VINA RESULT:      -8.2      5.879      7.691
REMARK  Name = 
REMARK  7 active torsions:
REMARK  status: ('A' for Active; 'I' for Inactive)
REMARK    1  A    between atoms: C_2  and  C_3
REMARK    2  A    between atoms: C_3  and  C_4
REMARK    3  A    between atoms: C_4  and  N_5
REMARK    4  A    between atoms: C_6  and  C_8
REMARK    5  A    between atoms: N_15  and  C_16
REMARK    6  A    between atoms: C_19  and  S_20
REMARK    7  A    between atoms: S_20  and  N_23
REMARK                            x       y       z     vdW  Elec       q    Type
REMARK                         _______ _______ _______ _____ _____    ______ ____
ROOT
ATOM      1  O   UNL     1       1.063   3.896  18.496  0.00  0.00    +0.000 OA
ATOM      2  C   UNL     1       2.045   3.845  19.235  0.00  0.00    +0.000 C 
ATOM      3  N   UNL     1       2.614   4.912  19.913  0.00  0.00    +0.000 N 
ATOM      4  H   UNL     1       3.439   4.722  20.468  0.00  0.00    +0.000 HD
ENDROOT
BRANCH   3   5
ATOM      5  C   UNL     1       2.141   6.248  19.927  0.00  0.00    +0.000 A 
ATOM      6  C   UNL     1       1.403   6.784  20.984  0.00  0.00    +0.000 A 
ATOM      7  C   UNL     1       1.019   8.125  20.988  0.00  0.00    +0.000 A 
ATOM      8  C   UNL     1       1.392   8.956  19.934  0.00  0.00    +0.000 A 
ATOM      9  C   UNL     1       2.075   8.431  18.837  0.00  0.00    +0.000 A 
ATOM     10  C   UNL     1       2.450   7.076  18.835  0.00  0.00    +0.000 A 
BRANCH   8  11
ATOM     11  S   UNL     1       0.892  10.661  19.975  0.00  0.00    +0.000 S 
ATOM     12  O   UNL     1       1.319  11.192  21.258  0.00  0.00    +0.000 OA
ATOM     13  O   UNL     1       1.332  11.290  18.751  0.00  0.00    +0.000 OA
BRANCH  11  14
ATOM     14  N   UNL     1      -0.782  10.597  20.049  0.00  0.00    +0.000 N 
ATOM     15  C   UNL     1      -1.358  11.708  20.659  0.00  0.00    +0.000 A 
ATOM     16  N   UNL     1      -1.596  12.774  19.890  0.00  0.00    +0.000 NA
ATOM     17  C   UNL     1      -2.058  13.858  20.540  0.00  0.00    +0.000 A 
ATOM     18  C   UNL     1      -2.241  13.904  21.903  0.00  0.00    +0.000 A 
ATOM     19  C   UNL     1      -1.955  12.741  22.580  0.00  0.00    +0.000 A 
ATOM     20  N   UNL     1      -1.535  11.613  21.978  0.00  0.00    +0.000 NA
ATOM     21  H   UNL     1      -1.060   9.736  20.510  0.00  0.00    +0.000 HD
ENDBRANCH  11  14
ENDBRANCH   8  11
ENDBRANCH   3   5
BRANCH   2  22
ATOM     22  C   UNL     1       2.700   2.516  19.543  0.00  0.00    +0.000 C 
BRANCH  22  23
ATOM     23  C   UNL     1       3.878   2.282  18.599  0.00  0.00    +0.000 C 
BRANCH  23  24
ATOM     24  N   UNL     1       4.834   3.371  18.656  0.00  0.00    +0.000 N 
ATOM     25  C   UNL     1       5.150   4.129  17.553  0.00  0.00    +0.000 C 
ATOM     26  O   UNL     1       4.638   3.934  16.454  0.00  0.00    +0.000 OA
ATOM     27  H   UNL     1       5.298   3.552  19.539  0.00  0.00    +0.000 HD
BRANCH  25  28
ATOM     28  C   UNL     1       6.082   5.278  17.748  0.00  0.00    +0.000 A 
ATOM     29  C   UNL     1       7.023   5.126  18.784  0.00  0.00    +0.000 A 
ATOM     30  C   UNL     1       7.985   6.106  19.035  0.00  0.00    +0.000 A 
ATOM     31  C   UNL     1       8.014   7.260  18.259  0.00  0.00    +0.000 A 
ATOM     32  C   UNL     1       7.075   7.436  17.242  0.00  0.00    +0.000 A 
ATOM     33  C   UNL     1       6.106   6.455  16.986  0.00  0.00    +0.000 A 
ATOM     34 CL   UNL     1       4.975   6.816  15.728  0.00  0.00    +0.000 Cl
ENDBRANCH  25  28
ENDBRANCH  23  24
ENDBRANCH  22  23
ENDBRANCH   2  22
TORSDOF 7
ENDMDL
MODEL 8
REMARK VINA RESULT:      -8.2      4.006     11.029
REMARK  Name = 
REMARK  7 active torsions:
REMARK  status: ('A' for Active; 'I' for Inactive)
REMARK    1  A    between atoms: C_2  and  C_3
REMARK    2  A    between atoms: C_3  and  C_4
REMARK    3  A    between atoms: C_4  and  N_5
REMARK    4  A    between atoms: C_6  and  C_8
REMARK    5  A    between atoms: N_15  and  C_16
REMARK    6  A    between atoms: C_19  and  S_20
REMARK    7  A    between atoms: S_20  and  N_23
REMARK                            x       y       z     vdW  Elec       q    Type
REMARK                         _______ _______ _______ _____ _____    ______ ____
ROOT
ATOM      1  O   UNL     1       8.077  10.506  17.729  0.00  0.00    +0.000 OA
ATOM      2  C   UNL     1       8.884  10.045  18.534  0.00  0.00    +0.000 C 
ATOM      3  N   UNL     1       8.949   8.729  18.965  0.00  0.00    +0.000 N 
ATOM      4  H   UNL     1       9.654   8.500  19.654  0.00  0.00    +0.000 HD
ENDROOT
BRANCH   3   5
ATOM      5  C   UNL     1       8.134   7.658  18.520  0.00  0.00    +0.000 A 
ATOM      6  C   UNL     1       8.139   6.397  19.120  0.00  0.00    +0.000 A 
ATOM      7  C   UNL     1       7.269   5.393  18.695  0.00  0.00    +0.000 A 
ATOM      8  C   UNL     1       6.362   5.650  17.669  0.00  0.00    +0.000 A 
ATOM      9  C   UNL     1       6.379   6.881  17.012  0.00  0.00    +0.000 A 
ATOM     10  C   UNL     1       7.266   7.884  17.439  0.00  0.00    +0.000 A 
BRANCH   8  11
ATOM     11  S   UNL     1       5.264   4.350  17.158  0.00  0.00    +0.000 S 
ATOM     12  O   UNL     1       3.937   4.934  17.069  0.00  0.00    +0.000 OA
ATOM     13  O   UNL     1       5.844   3.697  16.006  0.00  0.00    +0.000 OA
BRANCH  11  14
ATOM     14  N   UNL     1       5.213   3.312  18.474  0.00  0.00    +0.000 N 
ATOM     15  C   UNL     1       3.929   3.095  18.966  0.00  0.00    +0.000 A 
ATOM     16  N   UNL     1       3.206   2.133  18.388  0.00  0.00    +0.000 NA
ATOM     17  C   UNL     1       1.937   2.027  18.826  0.00  0.00    +0.000 A 
ATOM     18  C   UNL     1       1.390   2.864  19.771  0.00  0.00    +0.000 A 
ATOM     19  C   UNL     1       2.240   3.816  20.286  0.00  0.00    +0.000 A 
ATOM     20  N   UNL     1       3.528   3.939  19.919  0.00  0.00    +0.000 NA
ATOM     21  H   UNL     1       5.832   3.665  19.196  0.00  0.00    +0.000 HD
ENDBRANCH  11  14
ENDBRANCH   8  11
ENDBRANCH   3   5
BRANCH   2  22
ATOM     22  C   UNL     1       9.989  10.917  19.091  0.00  0.00    +0.000 C 
BRANCH  22  23
ATOM     23  C   UNL     1       9.390  12.108  19.838  0.00  0.00    +0.000 C 
BRANCH  23  24
ATOM     24  N   UNL     1       9.949  13.364  19.380  0.00  0.00    +0.000 N 
ATOM     25  C   UNL     1       9.326  14.143  18.433  0.00  0.00    +0.000 C 
ATOM     26  O   UNL     1       8.256  13.825  17.922  0.00  0.00    +0.000 OA
ATOM     27  H   UNL     1      10.843  13.655  19.759  0.00  0.00    +0.000 HD
BRANCH  25  28
ATOM     28  C   UNL     1       9.949  15.457  18.100  0.00  0.00    +0.000 A 
ATOM     29  C   UNL     1      11.315  15.412  17.763  0.00  0.00    +0.000 A 
ATOM     30  C   UNL     1      12.003  16.566  17.381  0.00  0.00    +0.000 A 
ATOM     31  C   UNL     1      11.336  17.786  17.340  0.00  0.00    +0.000 A 
ATOM     32  C   UNL     1       9.988  17.851  17.691  0.00  0.00    +0.000 A 
ATOM     33  C   UNL     1       9.292  16.696  18.076  0.00  0.00    +0.000 A 
ATOM     34 CL   UNL     1       7.638  16.923  18.530  0.00  0.00    +0.000 Cl
ENDBRANCH  25  28
ENDBRANCH  23  24
ENDBRANCH  22  23
ENDBRANCH   2  22
TORSDOF 7
ENDMDL
MODEL 9
REMARK VINA RESULT:      -8.2      6.297      7.992
REMARK  Name = 
REMARK  7 active torsions:
REMARK  status: ('A' for Active; 'I' for Inactive)
REMARK    1  A    between atoms: C_2  and  C_3
REMARK    2  A    between atoms: C_3  and  C_4
REMARK    3  A    between atoms: C_4  and  N_5
REMARK    4  A    between atoms: C_6  and  C_8
REMARK    5  A    between atoms: N_15  and  C_16
REMARK    6  A    between atoms: C_19  and  S_20
REMARK    7  A    between atoms: S_20  and  N_23
REMARK                            x       y       z     vdW  Elec       q    Type
REMARK                         _______ _______ _______ _____ _____    ______ ____
ROOT
ATOM      1  O   UNL     1       0.620   4.573  19.894  0.00  0.00    +0.000 OA
ATOM      2  C   UNL     1       1.686   4.744  20.483  0.00  0.00    +0.000 C 
ATOM      3  N   UNL     1       2.256   5.966  20.803  0.00  0.00    +0.000 N 
ATOM      4  H   UNL     1       3.154   5.951  21.269  0.00  0.00    +0.000 HD
ENDROOT
BRANCH   3   5
ATOM      5  C   UNL     1       1.694   7.244  20.562  0.00  0.00    +0.000 A 
ATOM      6  C   UNL     1       0.897   7.914  21.492  0.00  0.00    +0.000 A 
ATOM      7  C   UNL     1       0.424   9.202  21.241  0.00  0.00    +0.000 A 
ATOM      8  C   UNL     1       0.765   9.847  20.055  0.00  0.00    +0.000 A 
ATOM      9  C   UNL     1       1.508   9.177  19.082  0.00  0.00    +0.000 A 
ATOM     10  C   UNL     1       1.973   7.875  19.338  0.00  0.00    +0.000 A 
BRANCH   8  11
ATOM     11  S   UNL     1       0.150  11.491  19.771  0.00  0.00    +0.000 S 
ATOM     12  O   UNL     1       1.053  12.117  18.822  0.00  0.00    +0.000 OA
ATOM     13  O   UNL     1      -1.261  11.399  19.474  0.00  0.00    +0.000 OA
BRANCH  11  14
ATOM     14  N   UNL     1       0.406  12.283  21.227  0.00  0.00    +0.000 N 
ATOM     15  C   UNL     1      -0.769  12.625  21.891  0.00  0.00    +0.000 A 
ATOM     16  N   UNL     1      -1.319  11.699  22.680  0.00  0.00    +0.000 NA
ATOM     17  C   UNL     1      -2.504  12.036  23.221  0.00  0.00    +0.000 A 
ATOM     18  C   UNL     1      -3.144  13.226  22.963  0.00  0.00    +0.000 A 
ATOM     19  C   UNL     1      -2.473  14.093  22.130  0.00  0.00    +0.000 A 
ATOM     20  N   UNL     1      -1.265  13.828  21.598  0.00  0.00    +0.000 NA
ATOM     21  H   UNL     1       0.989  13.097  21.062  0.00  0.00    +0.000 HD
ENDBRANCH  11  14
ENDBRANCH   8  11
ENDBRANCH   3   5
BRANCH   2  22
ATOM     22  C   UNL     1       2.467   3.558  21.007  0.00  0.00    +0.000 C 
BRANCH  22  23
ATOM     23  C   UNL     1       2.778   2.591  19.865  0.00  0.00    +0.000 C 
BRANCH  23  24
ATOM     24  N   UNL     1       3.453   3.257  18.769  0.00  0.00    +0.000 N 
ATOM     25  C   UNL     1       4.784   3.595  18.823  0.00  0.00    +0.000 C 
ATOM     26  O   UNL     1       5.485   3.350  19.801  0.00  0.00    +0.000 OA
ATOM     27  H   UNL     1       2.906   3.500  17.950  0.00  0.00    +0.000 HD
BRANCH  25  28
ATOM     28  C   UNL     1       5.394   4.201  17.603  0.00  0.00    +0.000 A 
ATOM     29  C   UNL     1       4.835   3.790  16.377  0.00  0.00    +0.000 A 
ATOM     30  C   UNL     1       5.281   4.321  15.166  0.00  0.00    +0.000 A 
ATOM     31  C   UNL     1       6.301   5.267  15.160  0.00  0.00    +0.000 A 
ATOM     32  C   UNL     1       6.880   5.669  16.364  0.00  0.00    +0.000 A 
ATOM     33  C   UNL     1       6.438   5.138  17.584  0.00  0.00    +0.000 A 
ATOM     34 CL   UNL     1       7.270   5.687  18.997  0.00  0.00    +0.000 Cl
ENDBRANCH  25  28
ENDBRANCH  23  24
ENDBRANCH  22  23
ENDBRANCH   2  22
TORSDOF 7
ENDMDL
