MODEL 1
REMARK VINA RESULT:      -7.5      0.000      0.000
REMARK  Name = 
REMARK  4 active torsions:
REMARK  status: ('A' for Active; 'I' for Inactive)
REMARK    1  A    between atoms: C_1  and  C_2
REMARK    2  A    between atoms: C_5  and  N_6
REMARK    3  A    between atoms: C_7  and  C_9
REMARK    4  A    between atoms: C_9  and  C_11
REMARK                            x       y       z     vdW  Elec       q    Type
REMARK                         _______ _______ _______ _____ _____    ______ ____
ROOT
ATOM      1  C   UNL     1       3.769   4.248  19.272  0.00  0.00    +0.000 C 
ATOM      2  O   UNL     1       3.503   3.228  19.897  0.00  0.00    +0.000 OA
ENDROOT
BRANCH   1   3
ATOM      3  C   UNL     1       5.072   4.518  18.664  0.00  0.00    +0.000 A 
ATOM      4  C   UNL     1       6.224   4.835  19.367  0.00  0.00    +0.000 A 
ATOM      5  N   UNL     1       7.263   4.921  18.482  0.00  0.00    +0.000 N 
ATOM      6  C   UNL     1       6.809   4.740  17.197  0.00  0.00    +0.000 A 
ATOM      7  C   UNL     1       7.509   4.757  15.985  0.00  0.00    +0.000 A 
ATOM      8  C   UNL     1       6.784   4.544  14.809  0.00  0.00    +0.000 A 
ATOM      9  C   UNL     1       5.413   4.306  14.850  0.00  0.00    +0.000 A 
ATOM     10  C   UNL     1       4.731   4.276  16.072  0.00  0.00    +0.000 A 
ATOM     11  C   UNL     1       5.434   4.501  17.275  0.00  0.00    +0.000 A 
ATOM     12  H   UNL     1       8.232   5.081  18.731  0.00  0.00    +0.000 HD
ENDBRANCH   1   3
BRANCH   1  14
ATOM     13  N   UNL     1       3.061   6.603  19.496  0.00  0.00    +0.000 N 
ATOM     14  C   UNL     1       2.674   5.304  19.136  0.00  0.00    +0.000 C 
ATOM     15  O   UNL     1       1.579   4.906  18.787  0.00  0.00    +0.000 OA
ATOM     16  H   UNL     1       4.011   6.738  19.793  0.00  0.00    +0.000 HD
BRANCH  13  21
ATOM     17  C   UNL     1      -0.604  11.042  19.544  0.00  0.00    +0.000 C 
ATOM     18  C   UNL     1       0.365   9.900  19.501  0.00  0.00    +0.000 A 
ATOM     19  C   UNL     1       1.049   9.546  18.335  0.00  0.00    +0.000 A 
ATOM     20  C   UNL     1       1.939   8.469  18.340  0.00  0.00    +0.000 A 
ATOM     21  C   UNL     1       2.167   7.714  19.489  0.00  0.00    +0.000 A 
ATOM     22  C   UNL     1       1.475   8.072  20.655  0.00  0.00    +0.000 A 
ATOM     23  C   UNL     1       0.587   9.159  20.657  0.00  0.00    +0.000 A 
ENDBRANCH  13  21
ENDBRANCH   1  14
TORSDOF 3
ENDMDL
MODEL 2
REMARK VINA RESULT:      -7.5      1.504      2.283
REMARK  Name = 
REMARK  4 active torsions:
REMARK  status: ('A' for Active; 'I' for Inactive)
REMARK    1  A    between atoms: C_1  and  C_2
REMARK    2  A    between atoms: C_5  and  N_6
REMARK    3  A    between atoms: C_7  and  C_9
REMARK    4  A    between atoms: C_9  and  C_11
REMARK                            x       y       z     vdW  Elec       q    Type
REMARK                         _______ _______ _______ _____ _____    ______ ____
ROOT
ATOM      1  C   UNL     1       4.414   4.019  17.081  0.00  0.00    +0.000 C 
ATOM      2  O   UNL     1       4.332   2.847  17.429  0.00  0.00    +0.000 OA
ENDROOT
BRANCH   1   3
ATOM      3  C   UNL     1       5.517   4.561  16.288  0.00  0.00    +0.000 A 
ATOM      4  C   UNL     1       6.502   5.406  16.773  0.00  0.00    +0.000 A 
ATOM      5  N   UNL     1       7.415   5.625  15.779  0.00  0.00    +0.000 N 
ATOM      6  C   UNL     1       7.016   5.002  14.621  0.00  0.00    +0.000 A 
ATOM      7  C   UNL     1       7.627   4.966  13.361  0.00  0.00    +0.000 A 
ATOM      8  C   UNL     1       6.988   4.247  12.346  0.00  0.00    +0.000 A 
ATOM      9  C   UNL     1       5.793   3.578  12.591  0.00  0.00    +0.000 A 
ATOM     10  C   UNL     1       5.204   3.609  13.860  0.00  0.00    +0.000 A 
ATOM     11  C   UNL     1       5.818   4.338  14.902  0.00  0.00    +0.000 A 
ATOM     12  H   UNL     1       8.272   6.157  15.878  0.00  0.00    +0.000 HD
ENDBRANCH   1   3
BRANCH   1  14
ATOM     13  N   UNL     1       3.741   6.221  17.974  0.00  0.00    +0.000 N 
ATOM     14  C   UNL     1       3.301   4.969  17.518  0.00  0.00    +0.000 C 
ATOM     15  O   UNL     1       2.167   4.530  17.478  0.00  0.00    +0.000 OA
ATOM     16  H   UNL     1       4.730   6.397  17.963  0.00  0.00    +0.000 HD
BRANCH  13  21
ATOM     17  C   UNL     1       0.220  10.333  19.930  0.00  0.00    +0.000 C 
ATOM     18  C   UNL     1       1.125   9.241  19.448  0.00  0.00    +0.000 A 
ATOM     19  C   UNL     1       1.501   8.170  20.263  0.00  0.00    +0.000 A 
ATOM     20  C   UNL     1       2.354   7.178  19.773  0.00  0.00    +0.000 A 
ATOM     21  C   UNL     1       2.859   7.223  18.475  0.00  0.00    +0.000 A 
ATOM     22  C   UNL     1       2.480   8.301  17.662  0.00  0.00    +0.000 A 
ATOM     23  C   UNL     1       1.617   9.296  18.148  0.00  0.00    +0.000 A 
ENDBRANCH  13  21
ENDBRANCH   1  14
TORSDOF 3
ENDMDL
MODEL 3
REMARK VINA RESULT:      -7.5      0.211      1.066
REMARK  Name = 
REMARK  4 active torsions:
REMARK  status: ('A' for Active; 'I' for Inactive)
REMARK    1  A    between atoms: C_1  and  C_2
REMARK    2  A    between atoms: C_5  and  N_6
REMARK    3  A    between atoms: C_7  and  C_9
REMARK    4  A    between atoms: C_9  and  C_11
REMARK                            x       y       z     vdW  Elec       q    Type
REMARK                         _______ _______ _______ _____ _____    ______ ____
ROOT
ATOM      1  C   UNL     1       3.839   4.470  19.335  0.00  0.00    +0.000 C 
ATOM      2  O   UNL     1       3.578   3.520  20.064  0.00  0.00    +0.000 OA
ENDROOT
BRANCH   1   3
ATOM      3  C   UNL     1       5.136   4.674  18.689  0.00  0.00    +0.000 A 
ATOM      4  C   UNL     1       6.312   4.985  19.352  0.00  0.00    +0.000 A 
ATOM      5  N   UNL     1       7.332   5.001  18.443  0.00  0.00    +0.000 N 
ATOM      6  C   UNL     1       6.844   4.779  17.176  0.00  0.00    +0.000 A 
ATOM      7  C   UNL     1       7.517   4.723  15.950  0.00  0.00    +0.000 A 
ATOM      8  C   UNL     1       6.759   4.481  14.800  0.00  0.00    +0.000 A 
ATOM      9  C   UNL     1       5.383   4.288  14.881  0.00  0.00    +0.000 A 
ATOM     10  C   UNL     1       4.729   4.331  16.118  0.00  0.00    +0.000 A 
ATOM     11  C   UNL     1       5.465   4.586  17.295  0.00  0.00    +0.000 A 
ATOM     12  H   UNL     1       8.311   5.142  18.663  0.00  0.00    +0.000 HD
ENDBRANCH   1   3
BRANCH   1  14
ATOM     13  N   UNL     1       2.969   6.749  19.724  0.00  0.00    +0.000 N 
ATOM     14  C   UNL     1       2.744   5.510  19.105  0.00  0.00    +0.000 C 
ATOM     15  O   UNL     1       1.777   5.144  18.463  0.00  0.00    +0.000 OA
ATOM     16  H   UNL     1       3.820   6.859  20.245  0.00  0.00    +0.000 HD
BRANCH  13  21
ATOM     17  C   UNL     1      -0.734  11.146  19.435  0.00  0.00    +0.000 C 
ATOM     18  C   UNL     1       0.211   9.990  19.540  0.00  0.00    +0.000 A 
ATOM     19  C   UNL     1       0.368   9.259  20.720  0.00  0.00    +0.000 A 
ATOM     20  C   UNL     1       1.268   8.191  20.774  0.00  0.00    +0.000 A 
ATOM     21  C   UNL     1       2.037   7.827  19.671  0.00  0.00    +0.000 A 
ATOM     22  C   UNL     1       1.878   8.565  18.490  0.00  0.00    +0.000 A 
ATOM     23  C   UNL     1       0.969   9.633  18.428  0.00  0.00    +0.000 A 
ENDBRANCH  13  21
ENDBRANCH   1  14
TORSDOF 3
ENDMDL
MODEL 4
REMARK VINA RESULT:      -7.5      1.548      2.107
REMARK  Name = 
REMARK  4 active torsions:
REMARK  status: ('A' for Active; 'I' for Inactive)
REMARK    1  A    between atoms: C_1  and  C_2
REMARK    2  A    between atoms: C_5  and  N_6
REMARK    3  A    between atoms: C_7  and  C_9
REMARK    4  A    between atoms: C_9  and  C_11
REMARK                            x       y       z     vdW  Elec       q    Type
REMARK                         _______ _______ _______ _____ _____    ______ ____
ROOT
ATOM      1  C   UNL     1       4.481   4.048  17.039  0.00  0.00    +0.000 C 
ATOM      2  O   UNL     1       4.417   2.878  17.400  0.00  0.00    +0.000 OA
ENDROOT
BRANCH   1   3
ATOM      3  C   UNL     1       5.568   4.595  16.228  0.00  0.00    +0.000 A 
ATOM      4  C   UNL     1       6.541   5.466  16.692  0.00  0.00    +0.000 A 
ATOM      5  N   UNL     1       7.443   5.684  15.687  0.00  0.00    +0.000 N 
ATOM      6  C   UNL     1       7.046   5.033  14.542  0.00  0.00    +0.000 A 
ATOM      7  C   UNL     1       7.648   4.986  13.279  0.00  0.00    +0.000 A 
ATOM      8  C   UNL     1       7.015   4.238  12.282  0.00  0.00    +0.000 A 
ATOM      9  C   UNL     1       5.834   3.552  12.547  0.00  0.00    +0.000 A 
ATOM     10  C   UNL     1       5.255   3.595  13.821  0.00  0.00    +0.000 A 
ATOM     11  C   UNL     1       5.863   4.353  14.845  0.00  0.00    +0.000 A 
ATOM     12  H   UNL     1       8.290   6.234  15.770  0.00  0.00    +0.000 HD
ENDBRANCH   1   3
BRANCH   1  14
ATOM     13  N   UNL     1       3.794   6.245  17.934  0.00  0.00    +0.000 N 
ATOM     14  C   UNL     1       3.362   4.989  17.481  0.00  0.00    +0.000 C 
ATOM     15  O   UNL     1       2.232   4.540  17.448  0.00  0.00    +0.000 OA
ATOM     16  H   UNL     1       4.780   6.429  17.917  0.00  0.00    +0.000 HD
BRANCH  13  21
ATOM     17  C   UNL     1       0.165  10.189  20.034  0.00  0.00    +0.000 C 
ATOM     18  C   UNL     1       1.119   9.187  19.462  0.00  0.00    +0.000 A 
ATOM     19  C   UNL     1       1.607   9.282  18.156  0.00  0.00    +0.000 A 
ATOM     20  C   UNL     1       2.490   8.319  17.662  0.00  0.00    +0.000 A 
ATOM     21  C   UNL     1       2.905   7.239  18.438  0.00  0.00    +0.000 A 
ATOM     22  C   UNL     1       2.410   7.147  19.747  0.00  0.00    +0.000 A 
ATOM     23  C   UNL     1       1.529   8.117  20.251  0.00  0.00    +0.000 A 
ENDBRANCH  13  21
ENDBRANCH   1  14
TORSDOF 3
ENDMDL
MODEL 5
REMARK VINA RESULT:      -7.3      1.309      2.283
REMARK  Name = 
REMARK  4 active torsions:
REMARK  status: ('A' for Active; 'I' for Inactive)
REMARK    1  A    between atoms: C_1  and  C_2
REMARK    2  A    between atoms: C_5  and  N_6
REMARK    3  A    between atoms: C_7  and  C_9
REMARK    4  A    between atoms: C_9  and  C_11
REMARK                            x       y       z     vdW  Elec       q    Type
REMARK                         _______ _______ _______ _____ _____    ______ ____
ROOT
ATOM      1  C   UNL     1       3.075   3.918  20.096  0.00  0.00    +0.000 C 
ATOM      2  O   UNL     1       3.079   3.142  21.045  0.00  0.00    +0.000 OA
ENDROOT
BRANCH   1   3
ATOM      3  C   UNL     1       3.956   3.794  18.935  0.00  0.00    +0.000 A 
ATOM      4  C   UNL     1       3.690   3.018  17.818  0.00  0.00    +0.000 A 
ATOM      5  N   UNL     1       4.683   3.224  16.900  0.00  0.00    +0.000 N 
ATOM      6  C   UNL     1       5.640   4.065  17.416  0.00  0.00    +0.000 A 
ATOM      7  C   UNL     1       6.827   4.537  16.842  0.00  0.00    +0.000 A 
ATOM      8  C   UNL     1       7.627   5.392  17.606  0.00  0.00    +0.000 A 
ATOM      9  C   UNL     1       7.242   5.771  18.889  0.00  0.00    +0.000 A 
ATOM     10  C   UNL     1       6.044   5.304  19.441  0.00  0.00    +0.000 A 
ATOM     11  C   UNL     1       5.221   4.428  18.699  0.00  0.00    +0.000 A 
ATOM     12  H   UNL     1       4.709   2.829  15.968  0.00  0.00    +0.000 HD
ENDBRANCH   1   3
BRANCH   1  14
ATOM     13  N   UNL     1       2.682   6.351  19.938  0.00  0.00    +0.000 N 
ATOM     14  C   UNL     1       2.099   5.091  20.143  0.00  0.00    +0.000 C 
ATOM     15  O   UNL     1       0.941   4.823  20.405  0.00  0.00    +0.000 OA
ATOM     16  H   UNL     1       3.670   6.380  19.764  0.00  0.00    +0.000 HD
BRANCH  13  21
ATOM     17  C   UNL     1      -0.233  11.312  20.104  0.00  0.00    +0.000 C 
ATOM     18  C   UNL     1       0.508  10.010  20.091  0.00  0.00    +0.000 A 
ATOM     19  C   UNL     1       0.620   9.204  21.228  0.00  0.00    +0.000 A 
ATOM     20  C   UNL     1       1.328   8.001  21.170  0.00  0.00    +0.000 A 
ATOM     21  C   UNL     1       1.945   7.570  19.998  0.00  0.00    +0.000 A 
ATOM     22  C   UNL     1       1.832   8.384  18.862  0.00  0.00    +0.000 A 
ATOM     23  C   UNL     1       1.115   9.589  18.912  0.00  0.00    +0.000 A 
ENDBRANCH  13  21
ENDBRANCH   1  14
TORSDOF 3
ENDMDL
MODEL 6
REMARK VINA RESULT:      -7.3      4.862      6.158
REMARK  Name = 
REMARK  4 active torsions:
REMARK  status: ('A' for Active; 'I' for Inactive)
REMARK    1  A    between atoms: C_1  and  C_2
REMARK    2  A    between atoms: C_5  and  N_6
REMARK    3  A    between atoms: C_7  and  C_9
REMARK    4  A    between atoms: C_9  and  C_11
REMARK                            x       y       z     vdW  Elec       q    Type
REMARK                         _______ _______ _______ _____ _____    ______ ____
ROOT
ATOM      1  C   UNL     1       7.673   6.027  18.549  0.00  0.00    +0.000 C 
ATOM      2  O   UNL     1       8.284   5.615  19.529  0.00  0.00    +0.000 OA
ENDROOT
BRANCH   1   3
ATOM      3  C   UNL     1       6.735   5.218  17.770  0.00  0.00    +0.000 A 
ATOM      4  C   UNL     1       7.082   4.425  16.689  0.00  0.00    +0.000 A 
ATOM      5  N   UNL     1       5.971   3.744  16.276  0.00  0.00    +0.000 N 
ATOM      6  C   UNL     1       4.876   4.125  17.016  0.00  0.00    +0.000 A 
ATOM      7  C   UNL     1       3.544   3.703  16.935  0.00  0.00    +0.000 A 
ATOM      8  C   UNL     1       2.625   4.269  17.824  0.00  0.00    +0.000 A 
ATOM      9  C   UNL     1       3.031   5.209  18.767  0.00  0.00    +0.000 A 
ATOM     10  C   UNL     1       4.371   5.606  18.846  0.00  0.00    +0.000 A 
ATOM     11  C   UNL     1       5.320   5.062  17.953  0.00  0.00    +0.000 A 
ATOM     12  H   UNL     1       5.951   3.046  15.541  0.00  0.00    +0.000 HD
ENDBRANCH   1   3
BRANCH   1  14
ATOM     13  N   UNL     1       8.618   8.255  19.044  0.00  0.00    +0.000 N 
ATOM     14  C   UNL     1       7.922   7.469  18.113  0.00  0.00    +0.000 C 
ATOM     15  O   UNL     1       7.449   7.800  17.042  0.00  0.00    +0.000 OA
ATOM     16  H   UNL     1       8.907   7.813  19.898  0.00  0.00    +0.000 HD
BRANCH  13  21
ATOM     17  C   UNL     1       9.772  13.849  18.329  0.00  0.00    +0.000 C 
ATOM     18  C   UNL     1       9.460  12.392  18.481  0.00  0.00    +0.000 A 
ATOM     19  C   UNL     1       8.576  11.726  17.627  0.00  0.00    +0.000 A 
ATOM     20  C   UNL     1       8.309  10.366  17.811  0.00  0.00    +0.000 A 
ATOM     21  C   UNL     1       8.899   9.638  18.842  0.00  0.00    +0.000 A 
ATOM     22  C   UNL     1       9.783  10.312  19.697  0.00  0.00    +0.000 A 
ATOM     23  C   UNL     1      10.061  11.675  19.511  0.00  0.00    +0.000 A 
ENDBRANCH  13  21
ENDBRANCH   1  14
TORSDOF 3
ENDMDL
MODEL 7
REMARK VINA RESULT:      -7.3      1.292      2.012
REMARK  Name = 
REMARK  4 active torsions:
REMARK  status: ('A' for Active; 'I' for Inactive)
REMARK    1  A    between atoms: C_1  and  C_2
REMARK    2  A    between atoms: C_5  and  N_6
REMARK    3  A    between atoms: C_7  and  C_9
REMARK    4  A    between atoms: C_9  and  C_11
REMARK                            x       y       z     vdW  Elec       q    Type
REMARK                         _______ _______ _______ _____ _____    ______ ____
ROOT
ATOM      1  C   UNL     1       3.086   3.958  20.067  0.00  0.00    +0.000 C 
ATOM      2  O   UNL     1       3.085   3.190  21.022  0.00  0.00    +0.000 OA
ENDROOT
BRANCH   1   3
ATOM      3  C   UNL     1       3.975   3.827  18.913  0.00  0.00    +0.000 A 
ATOM      4  C   UNL     1       3.718   3.041  17.800  0.00  0.00    +0.000 A 
ATOM      5  N   UNL     1       4.715   3.241  16.887  0.00  0.00    +0.000 N 
ATOM      6  C   UNL     1       5.669   4.088  17.402  0.00  0.00    +0.000 A 
ATOM      7  C   UNL     1       6.858   4.557  16.832  0.00  0.00    +0.000 A 
ATOM      8  C   UNL     1       7.652   5.420  17.594  0.00  0.00    +0.000 A 
ATOM      9  C   UNL     1       7.258   5.808  18.871  0.00  0.00    +0.000 A 
ATOM     10  C   UNL     1       6.057   5.344  19.420  0.00  0.00    +0.000 A 
ATOM     11  C   UNL     1       5.241   4.461  18.679  0.00  0.00    +0.000 A 
ATOM     12  H   UNL     1       4.748   2.839  15.958  0.00  0.00    +0.000 HD
ENDBRANCH   1   3
BRANCH   1  14
ATOM     13  N   UNL     1       2.695   6.391  19.896  0.00  0.00    +0.000 N 
ATOM     14  C   UNL     1       2.109   5.132  20.099  0.00  0.00    +0.000 C 
ATOM     15  O   UNL     1       0.949   4.864  20.349  0.00  0.00    +0.000 OA
ATOM     16  H   UNL     1       3.684   6.420  19.733  0.00  0.00    +0.000 HD
BRANCH  13  21
ATOM     17  C   UNL     1      -0.342  11.274  20.166  0.00  0.00    +0.000 C 
ATOM     18  C   UNL     1       0.465  10.016  20.065  0.00  0.00    +0.000 A 
ATOM     19  C   UNL     1       1.082   9.619  18.876  0.00  0.00    +0.000 A 
ATOM     20  C   UNL     1       1.819   8.433  18.828  0.00  0.00    +0.000 A 
ATOM     21  C   UNL     1       1.957   7.610  19.944  0.00  0.00    +0.000 A 
ATOM     22  C   UNL     1       1.333   8.012  21.134  0.00  0.00    +0.000 A 
ATOM     23  C   UNL     1       0.598   9.207  21.190  0.00  0.00    +0.000 A 
ENDBRANCH  13  21
ENDBRANCH   1  14
TORSDOF 3
ENDMDL
MODEL 8
REMARK VINA RESULT:      -7.2      4.863      6.225
REMARK  Name = 
REMARK  4 active torsions:
REMARK  status: ('A' for Active; 'I' for Inactive)
REMARK    1  A    between atoms: C_1  and  C_2
REMARK    2  A    between atoms: C_5  and  N_6
REMARK    3  A    between atoms: C_7  and  C_9
REMARK    4  A    between atoms: C_9  and  C_11
REMARK                            x       y       z     vdW  Elec       q    Type
REMARK                         _______ _______ _______ _____ _____    ______ ____
ROOT
ATOM      1  C   UNL     1       7.673   6.024  18.579  0.00  0.00    +0.000 C 
ATOM      2  O   UNL     1       8.245   5.626  19.587  0.00  0.00    +0.000 OA
ENDROOT
BRANCH   1   3
ATOM      3  C   UNL     1       6.740   5.215  17.795  0.00  0.00    +0.000 A 
ATOM      4  C   UNL     1       7.096   4.403  16.730  0.00  0.00    +0.000 A 
ATOM      5  N   UNL     1       5.985   3.728  16.307  0.00  0.00    +0.000 N 
ATOM      6  C   UNL     1       4.882   4.132  17.024  0.00  0.00    +0.000 A 
ATOM      7  C   UNL     1       3.547   3.724  16.925  0.00  0.00    +0.000 A 
ATOM      8  C   UNL     1       2.619   4.312  17.791  0.00  0.00    +0.000 A 
ATOM      9  C   UNL     1       3.020   5.259  18.728  0.00  0.00    +0.000 A 
ATOM     10  C   UNL     1       4.363   5.644  18.824  0.00  0.00    +0.000 A 
ATOM     11  C   UNL     1       5.320   5.077  17.955  0.00  0.00    +0.000 A 
ATOM     12  H   UNL     1       5.970   3.021  15.582  0.00  0.00    +0.000 HD
ENDBRANCH   1   3
BRANCH   1  14
ATOM     13  N   UNL     1       8.588   8.266  19.066  0.00  0.00    +0.000 N 
ATOM     14  C   UNL     1       7.969   7.447  18.109  0.00  0.00    +0.000 C 
ATOM     15  O   UNL     1       7.594   7.737  16.989  0.00  0.00    +0.000 OA
ATOM     16  H   UNL     1       8.799   7.858  19.958  0.00  0.00    +0.000 HD
BRANCH  13  21
ATOM     17  C   UNL     1       9.797  13.799  18.035  0.00  0.00    +0.000 C 
ATOM     18  C   UNL     1       9.498  12.362  18.336  0.00  0.00    +0.000 A 
ATOM     19  C   UNL     1      10.182  11.650  19.325  0.00  0.00    +0.000 A 
ATOM     20  C   UNL     1       9.875  10.308  19.566  0.00  0.00    +0.000 A 
ATOM     21  C   UNL     1       8.895   9.639  18.835  0.00  0.00    +0.000 A 
ATOM     22  C   UNL     1       8.214  10.358  17.842  0.00  0.00    +0.000 A 
ATOM     23  C   UNL     1       8.513  11.709  17.602  0.00  0.00    +0.000 A 
ENDBRANCH  13  21
ENDBRANCH   1  14
TORSDOF 3
ENDMDL
MODEL 9
REMARK VINA RESULT:      -7.2      3.065      6.849
REMARK  Name = 
REMARK  4 active torsions:
REMARK  status: ('A' for Active; 'I' for Inactive)
REMARK    1  A    between atoms: C_1  and  C_2
REMARK    2  A    between atoms: C_5  and  N_6
REMARK    3  A    between atoms: C_7  and  C_9
REMARK    4  A    between atoms: C_9  and  C_11
REMARK                            x       y       z     vdW  Elec       q    Type
REMARK                         _______ _______ _______ _____ _____    ______ ____
ROOT
ATOM      1  C   UNL     1       6.076   5.101  19.021  0.00  0.00    +0.000 C 
ATOM      2  O   UNL     1       6.849   5.326  19.946  0.00  0.00    +0.000 OA
ENDROOT
BRANCH   1   3
ATOM      3  C   UNL     1       4.620   5.078  19.160  0.00  0.00    +0.000 A 
ATOM      4  C   UNL     1       3.830   6.188  19.410  0.00  0.00    +0.000 A 
ATOM      5  N   UNL     1       2.518   5.804  19.377  0.00  0.00    +0.000 N 
ATOM      6  C   UNL     1       2.425   4.446  19.183  0.00  0.00    +0.000 A 
ATOM      7  C   UNL     1       1.294   3.625  19.095  0.00  0.00    +0.000 A 
ATOM      8  C   UNL     1       1.495   2.256  18.895  0.00  0.00    +0.000 A 
ATOM      9  C   UNL     1       2.780   1.735  18.771  0.00  0.00    +0.000 A 
ATOM     10  C   UNL     1       3.899   2.573  18.844  0.00  0.00    +0.000 A 
ATOM     11  C   UNL     1       3.728   3.958  19.059  0.00  0.00    +0.000 A 
ATOM     12  H   UNL     1       1.724   6.427  19.467  0.00  0.00    +0.000 HD
ENDBRANCH   1   3
BRANCH   1  14
ATOM     13  N   UNL     1       5.784   4.948  16.574  0.00  0.00    +0.000 N 
ATOM     14  C   UNL     1       6.677   4.813  17.648  0.00  0.00    +0.000 C 
ATOM     15  O   UNL     1       7.838   4.447  17.630  0.00  0.00    +0.000 OA
ATOM     16  H   UNL     1       4.846   5.234  16.786  0.00  0.00    +0.000 HD
BRANCH  13  21
ATOM     17  C   UNL     1       7.277   3.918  11.111  0.00  0.00    +0.000 C 
ATOM     18  C   UNL     1       6.869   4.156  12.532  0.00  0.00    +0.000 A 
ATOM     19  C   UNL     1       5.739   3.554  13.094  0.00  0.00    +0.000 A 
ATOM     20  C   UNL     1       5.392   3.811  14.422  0.00  0.00    +0.000 A 
ATOM     21  C   UNL     1       6.143   4.670  15.222  0.00  0.00    +0.000 A 
ATOM     22  C   UNL     1       7.273   5.273  14.653  0.00  0.00    +0.000 A 
ATOM     23  C   UNL     1       7.632   5.011  13.321  0.00  0.00    +0.000 A 
ENDBRANCH  13  21
ENDBRANCH   1  14
TORSDOF 3
ENDMDL
