MODEL 1
REMARK VINA RESULT:      -8.1      0.000      0.000
REMARK  Name = 
REMARK  7 active torsions:
REMARK  status: ('A' for Active; 'I' for Inactive)
REMARK    1  A    between atoms: C_1  and  O_2
REMARK    2  A    between atoms: O_2  and  C_3
REMARK    3  A    between atoms: C_5  and  C_6
REMARK    4  A    between atoms: C_14  and  C_15
REMARK    5  A    between atoms: C_15  and  N_16
REMARK    6  A    between atoms: C_20  and  C_21
REMARK    7  A    between atoms: N_25  and  C_26
REMARK                            x       y       z     vdW  Elec       q    Type
REMARK                         _______ _______ _______ _____ _____    ______ ____
ROOT
ATOM      1  C   UNL     1       2.572   6.132  19.605  0.00  0.00    +0.000 A 
ATOM      2  C   UNL     1       1.830   7.004  20.401  0.00  0.00    +0.000 A 
ATOM      3  C   UNL     1       1.551   8.319  19.998  0.00  0.00    +0.000 A 
ATOM      4  C   UNL     1       1.994   8.665  18.711  0.00  0.00    +0.000 A 
ATOM      5  C   UNL     1       2.560   7.695  17.838  0.00  0.00    +0.000 A 
ATOM      6  C   UNL     1       2.800   6.372  18.256  0.00  0.00    +0.000 A 
ENDROOT
BRANCH   3   7
ATOM      7  C   UNL     1       0.839   9.226  20.943  0.00  0.00    +0.000 A 
ATOM      8  C   UNL     1       0.777   8.906  22.319  0.00  0.00    +0.000 A 
ATOM      9  C   UNL     1      -0.083   9.561  23.202  0.00  0.00    +0.000 A 
ATOM     10  C   UNL     1      -0.868  10.607  22.743  0.00  0.00    +0.000 A 
ATOM     11  C   UNL     1      -0.746  11.026  21.419  0.00  0.00    +0.000 A 
ATOM     12  C   UNL     1       0.103  10.348  20.527  0.00  0.00    +0.000 A 
ENDBRANCH   3   7
BRANCH   1  14
ATOM     13  C   UNL     1       2.305   4.343  21.016  0.00  0.00    +0.000 C 
ATOM     14  O   UNL     1       3.252   5.148  20.281  0.00  0.00    +0.000 OA
ENDBRANCH   1  14
BRANCH   6  15
ATOM     15  C   UNL     1       3.452   5.329  17.357  0.00  0.00    +0.000 C 
BRANCH  15  16
ATOM     16  N   UNL     1       4.771   5.567  16.738  0.00  0.00    +0.000 NA
ATOM     17  C   UNL     1       4.925   5.024  15.395  0.00  0.00    +0.000 C 
ATOM     18  C   UNL     1       5.855   3.840  15.522  0.00  0.00    +0.000 C 
ATOM     19  C   UNL     1       6.731   4.165  16.713  0.00  0.00    +0.000 C 
ATOM     20  C   UNL     1       5.996   5.266  17.510  0.00  0.00    +0.000 C 
BRANCH  20  21
ATOM     21  C   UNL     1       6.962   6.431  17.685  0.00  0.00    +0.000 A 
ATOM     22  N   UNL     1       7.041   7.463  16.854  0.00  0.00    +0.000 NA
ATOM     23  N   UNL     1       7.920   8.388  17.363  0.00  0.00    +0.000 NA
ATOM     24  C   UNL     1       8.396   7.890  18.481  0.00  0.00    +0.000 A 
ATOM     25  N   UNL     1       7.874   6.647  18.687  0.00  0.00    +0.000 N 
ATOM     26  C   UNL     1       8.266   5.765  19.749  0.00  0.00    +0.000 C 
ENDBRANCH  20  21
ENDBRANCH  15  16
ENDBRANCH   6  15
TORSDOF 5
ENDMDL
MODEL 2
REMARK VINA RESULT:      -8.0      1.845      3.331
REMARK  Name = 
REMARK  7 active torsions:
REMARK  status: ('A' for Active; 'I' for Inactive)
REMARK    1  A    between atoms: C_1  and  O_2
REMARK    2  A    between atoms: O_2  and  C_3
REMARK    3  A    between atoms: C_5  and  C_6
REMARK    4  A    between atoms: C_14  and  C_15
REMARK    5  A    between atoms: C_15  and  N_16
REMARK    6  A    between atoms: C_20  and  C_21
REMARK    7  A    between atoms: N_25  and  C_26
REMARK                            x       y       z     vdW  Elec       q    Type
REMARK                         _______ _______ _______ _____ _____    ______ ____
ROOT
ATOM      1  C   UNL     1       2.307   7.327  19.353  0.00  0.00    +0.000 A 
ATOM      2  C   UNL     1       1.381   7.942  20.196  0.00  0.00    +0.000 A 
ATOM      3  C   UNL     1       0.957   9.264  19.992  0.00  0.00    +0.000 A 
ATOM      4  C   UNL     1       1.460   9.891  18.840  0.00  0.00    +0.000 A 
ATOM      5  C   UNL     1       2.234   9.174  17.886  0.00  0.00    +0.000 A 
ATOM      6  C   UNL     1       2.619   7.836  18.098  0.00  0.00    +0.000 A 
ENDROOT
BRANCH   3   7
ATOM      7  C   UNL     1       0.043   9.889  20.990  0.00  0.00    +0.000 A 
ATOM      8  C   UNL     1      -0.583  11.123  20.700  0.00  0.00    +0.000 A 
ATOM      9  C   UNL     1      -1.230  11.883  21.676  0.00  0.00    +0.000 A 
ATOM     10  C   UNL     1      -1.326  11.395  22.971  0.00  0.00    +0.000 A 
ATOM     11  C   UNL     1      -0.823  10.129  23.265  0.00  0.00    +0.000 A 
ATOM     12  C   UNL     1      -0.149   9.379  22.284  0.00  0.00    +0.000 A 
ENDBRANCH   3   7
BRANCH   1  14
ATOM     13  C   UNL     1       2.166   5.356  20.517  0.00  0.00    +0.000 C 
ATOM     14  O   UNL     1       3.055   6.327  19.926  0.00  0.00    +0.000 OA
ENDBRANCH   1  14
BRANCH   6  15
ATOM     15  C   UNL     1       3.489   7.063  17.116  0.00  0.00    +0.000 C 
BRANCH  15  16
ATOM     16  N   UNL     1       4.540   6.139  17.585  0.00  0.00    +0.000 NA
ATOM     17  C   UNL     1       5.901   6.639  17.451  0.00  0.00    +0.000 C 
ATOM     18  C   UNL     1       6.533   5.849  16.328  0.00  0.00    +0.000 C 
ATOM     19  C   UNL     1       5.820   4.514  16.349  0.00  0.00    +0.000 C 
ATOM     20  C   UNL     1       4.512   4.728  17.143  0.00  0.00    +0.000 C 
BRANCH  20  21
ATOM     21  C   UNL     1       4.475   3.693  18.259  0.00  0.00    +0.000 A 
ATOM     22  N   UNL     1       5.369   3.621  19.238  0.00  0.00    +0.000 NA
ATOM     23  N   UNL     1       4.980   2.660  20.139  0.00  0.00    +0.000 NA
ATOM     24  C   UNL     1       3.870   2.130  19.678  0.00  0.00    +0.000 A 
ATOM     25  N   UNL     1       3.554   2.700  18.479  0.00  0.00    +0.000 N 
ATOM     26  C   UNL     1       2.472   2.277  17.637  0.00  0.00    +0.000 C 
ENDBRANCH  20  21
ENDBRANCH  15  16
ENDBRANCH   6  15
TORSDOF 5
ENDMDL
MODEL 3
REMARK VINA RESULT:      -7.8      2.856      7.953
REMARK  Name = 
REMARK  7 active torsions:
REMARK  status: ('A' for Active; 'I' for Inactive)
REMARK    1  A    between atoms: C_1  and  O_2
REMARK    2  A    between atoms: O_2  and  C_3
REMARK    3  A    between atoms: C_5  and  C_6
REMARK    4  A    between atoms: C_14  and  C_15
REMARK    5  A    between atoms: C_15  and  N_16
REMARK    6  A    between atoms: C_20  and  C_21
REMARK    7  A    between atoms: N_25  and  C_26
REMARK                            x       y       z     vdW  Elec       q    Type
REMARK                         _______ _______ _______ _____ _____    ______ ____
ROOT
ATOM      1  C   UNL     1       6.284   4.575  18.077  0.00  0.00    +0.000 A 
ATOM      2  C   UNL     1       6.595   4.773  16.731  0.00  0.00    +0.000 A 
ATOM      3  C   UNL     1       5.827   4.207  15.703  0.00  0.00    +0.000 A 
ATOM      4  C   UNL     1       4.683   3.504  16.116  0.00  0.00    +0.000 A 
ATOM      5  C   UNL     1       4.273   3.496  17.477  0.00  0.00    +0.000 A 
ATOM      6  C   UNL     1       5.044   4.100  18.489  0.00  0.00    +0.000 A 
ENDROOT
BRANCH   3   7
ATOM      7  C   UNL     1       6.277   4.377  14.292  0.00  0.00    +0.000 A 
ATOM      8  C   UNL     1       5.733   3.561  13.272  0.00  0.00    +0.000 A 
ATOM      9  C   UNL     1       6.292   3.485  11.996  0.00  0.00    +0.000 A 
ATOM     10  C   UNL     1       7.383   4.279  11.678  0.00  0.00    +0.000 A 
ATOM     11  C   UNL     1       7.872   5.181  12.621  0.00  0.00    +0.000 A 
ATOM     12  C   UNL     1       7.323   5.235  13.914  0.00  0.00    +0.000 A 
ENDBRANCH   3   7
BRANCH   1  14
ATOM     13  C   UNL     1       7.796   6.025  19.008  0.00  0.00    +0.000 C 
ATOM     14  O   UNL     1       7.343   4.656  18.947  0.00  0.00    +0.000 OA
ENDBRANCH   1  14
BRANCH   6  15
ATOM     15  C   UNL     1       4.652   4.062  19.959  0.00  0.00    +0.000 C 
BRANCH  15  16
ATOM     16  N   UNL     1       3.315   4.500  20.409  0.00  0.00    +0.000 NA
ATOM     17  C   UNL     1       2.534   3.482  21.095  0.00  0.00    +0.000 C 
ATOM     18  C   UNL     1       1.433   3.080  20.142  0.00  0.00    +0.000 C 
ATOM     19  C   UNL     1       1.184   4.312  19.300  0.00  0.00    +0.000 C 
ATOM     20  C   UNL     1       2.431   5.210  19.459  0.00  0.00    +0.000 C 
BRANCH  20  21
ATOM     21  C   UNL     1       1.955   6.585  19.911  0.00  0.00    +0.000 A 
ATOM     22  N   UNL     1       1.349   6.819  21.069  0.00  0.00    +0.000 NA
ATOM     23  N   UNL     1       1.163   8.172  21.217  0.00  0.00    +0.000 NA
ATOM     24  C   UNL     1       1.624   8.744  20.129  0.00  0.00    +0.000 A 
ATOM     25  N   UNL     1       2.069   7.788  19.262  0.00  0.00    +0.000 N 
ATOM     26  C   UNL     1       2.526   8.049  17.927  0.00  0.00    +0.000 C 
ENDBRANCH  20  21
ENDBRANCH  15  16
ENDBRANCH   6  15
TORSDOF 5
ENDMDL
MODEL 4
REMARK VINA RESULT:      -7.7      1.011      1.558
REMARK  Name = 
REMARK  7 active torsions:
REMARK  status: ('A' for Active; 'I' for Inactive)
REMARK    1  A    between atoms: C_1  and  O_2
REMARK    2  A    between atoms: O_2  and  C_3
REMARK    3  A    between atoms: C_5  and  C_6
REMARK    4  A    between atoms: C_14  and  C_15
REMARK    5  A    between atoms: C_15  and  N_16
REMARK    6  A    between atoms: C_20  and  C_21
REMARK    7  A    between atoms: N_25  and  C_26
REMARK                            x       y       z     vdW  Elec       q    Type
REMARK                         _______ _______ _______ _____ _____    ______ ____
ROOT
ATOM      1  C   UNL     1       2.327   6.885  19.571  0.00  0.00    +0.000 A 
ATOM      2  C   UNL     1       1.573   7.675  20.439  0.00  0.00    +0.000 A 
ATOM      3  C   UNL     1       1.169   8.974  20.096  0.00  0.00    +0.000 A 
ATOM      4  C   UNL     1       1.501   9.389  18.795  0.00  0.00    +0.000 A 
ATOM      5  C   UNL     1       2.083   8.491  17.859  0.00  0.00    +0.000 A 
ATOM      6  C   UNL     1       2.449   7.179  18.218  0.00  0.00    +0.000 A 
ENDROOT
BRANCH   3   7
ATOM      7  C   UNL     1       0.453   9.797  21.112  0.00  0.00    +0.000 A 
ATOM      8  C   UNL     1       0.304   9.317  22.434  0.00  0.00    +0.000 A 
ATOM      9  C   UNL     1      -0.570   9.904  23.350  0.00  0.00    +0.000 A 
ATOM     10  C   UNL     1      -1.280  11.039  22.988  0.00  0.00    +0.000 A 
ATOM     11  C   UNL     1      -1.068  11.608  21.733  0.00  0.00    +0.000 A 
ATOM     12  C   UNL     1      -0.207  10.998  20.804  0.00  0.00    +0.000 A 
ENDBRANCH   3   7
BRANCH   1  14
ATOM     13  C   UNL     1       2.280   4.932  20.772  0.00  0.00    +0.000 C 
ATOM     14  O   UNL     1       3.122   5.939  20.171  0.00  0.00    +0.000 OA
ENDBRANCH   1  14
BRANCH   6  15
ATOM     15  C   UNL     1       3.119   6.216  17.248  0.00  0.00    +0.000 C 
BRANCH  15  16
ATOM     16  N   UNL     1       4.584   6.210  17.061  0.00  0.00    +0.000 NA
ATOM     17  C   UNL     1       5.031   6.513  15.708  0.00  0.00    +0.000 C 
ATOM     18  C   UNL     1       5.544   5.214  15.132  0.00  0.00    +0.000 C 
ATOM     19  C   UNL     1       6.032   4.428  16.330  0.00  0.00    +0.000 C 
ATOM     20  C   UNL     1       5.373   5.068  17.572  0.00  0.00    +0.000 C 
BRANCH  20  21
ATOM     21  C   UNL     1       6.484   5.427  18.551  0.00  0.00    +0.000 A 
ATOM     22  N   UNL     1       6.654   4.842  19.730  0.00  0.00    +0.000 NA
ATOM     23  N   UNL     1       7.809   5.311  20.307  0.00  0.00    +0.000 NA
ATOM     24  C   UNL     1       8.310   6.207  19.487  0.00  0.00    +0.000 A 
ATOM     25  N   UNL     1       7.484   6.356  18.411  0.00  0.00    +0.000 N 
ATOM     26  C   UNL     1       7.661   7.336  17.379  0.00  0.00    +0.000 C 
ENDBRANCH  20  21
ENDBRANCH  15  16
ENDBRANCH   6  15
TORSDOF 5
ENDMDL
MODEL 5
REMARK VINA RESULT:      -7.6      2.341      3.616
REMARK  Name = 
REMARK  7 active torsions:
REMARK  status: ('A' for Active; 'I' for Inactive)
REMARK    1  A    between atoms: C_1  and  O_2
REMARK    2  A    between atoms: O_2  and  C_3
REMARK    3  A    between atoms: C_5  and  C_6
REMARK    4  A    between atoms: C_14  and  C_15
REMARK    5  A    between atoms: C_15  and  N_16
REMARK    6  A    between atoms: C_20  and  C_21
REMARK    7  A    between atoms: N_25  and  C_26
REMARK                            x       y       z     vdW  Elec       q    Type
REMARK                         _______ _______ _______ _____ _____    ______ ____
ROOT
ATOM      1  C   UNL     1       1.448   8.342  20.330  0.00  0.00    +0.000 A 
ATOM      2  C   UNL     1       0.980   9.622  20.033  0.00  0.00    +0.000 A 
ATOM      3  C   UNL     1       1.328  10.279  18.844  0.00  0.00    +0.000 A 
ATOM      4  C   UNL     1       2.104   9.533  17.942  0.00  0.00    +0.000 A 
ATOM      5  C   UNL     1       2.390   8.160  18.174  0.00  0.00    +0.000 A 
ATOM      6  C   UNL     1       2.002   7.512  19.362  0.00  0.00    +0.000 A 
ENDROOT
BRANCH   3   7
ATOM      7  C   UNL     1       0.873  11.685  18.639  0.00  0.00    +0.000 A 
ATOM      8  C   UNL     1       1.822  12.729  18.546  0.00  0.00    +0.000 A 
ATOM      9  C   UNL     1       1.463  14.076  18.620  0.00  0.00    +0.000 A 
ATOM     10  C   UNL     1       0.125  14.423  18.726  0.00  0.00    +0.000 A 
ATOM     11  C   UNL     1      -0.846  13.423  18.702  0.00  0.00    +0.000 A 
ATOM     12  C   UNL     1      -0.479  12.067  18.653  0.00  0.00    +0.000 A 
ENDBRANCH   3   7
BRANCH   1  14
ATOM     13  C   UNL     1       1.036   9.154  22.434  0.00  0.00    +0.000 C 
ATOM     14  O   UNL     1       1.542   8.041  21.667  0.00  0.00    +0.000 OA
ENDBRANCH   1  14
BRANCH   6  15
ATOM     15  C   UNL     1       2.340   6.056  19.656  0.00  0.00    +0.000 C 
BRANCH  15  16
ATOM     16  N   UNL     1       3.202   5.271  18.750  0.00  0.00    +0.000 NA
ATOM     17  C   UNL     1       2.494   4.533  17.714  0.00  0.00    +0.000 C 
ATOM     18  C   UNL     1       2.578   3.075  18.101  0.00  0.00    +0.000 C 
ATOM     19  C   UNL     1       3.868   2.959  18.884  0.00  0.00    +0.000 C 
ATOM     20  C   UNL     1       4.242   4.391  19.326  0.00  0.00    +0.000 C 
BRANCH  20  21
ATOM     21  C   UNL     1       5.664   4.663  18.853  0.00  0.00    +0.000 A 
ATOM     22  N   UNL     1       6.637   5.111  19.637  0.00  0.00    +0.000 NA
ATOM     23  N   UNL     1       7.815   5.133  18.932  0.00  0.00    +0.000 NA
ATOM     24  C   UNL     1       7.539   4.732  17.712  0.00  0.00    +0.000 A 
ATOM     25  N   UNL     1       6.201   4.490  17.602  0.00  0.00    +0.000 N 
ATOM     26  C   UNL     1       5.533   4.153  16.377  0.00  0.00    +0.000 C 
ENDBRANCH  20  21
ENDBRANCH  15  16
ENDBRANCH   6  15
TORSDOF 5
ENDMDL
MODEL 6
REMARK VINA RESULT:      -7.6      2.876      7.972
REMARK  Name = 
REMARK  7 active torsions:
REMARK  status: ('A' for Active; 'I' for Inactive)
REMARK    1  A    between atoms: C_1  and  O_2
REMARK    2  A    between atoms: O_2  and  C_3
REMARK    3  A    between atoms: C_5  and  C_6
REMARK    4  A    between atoms: C_14  and  C_15
REMARK    5  A    between atoms: C_15  and  N_16
REMARK    6  A    between atoms: C_20  and  C_21
REMARK    7  A    between atoms: N_25  and  C_26
REMARK                            x       y       z     vdW  Elec       q    Type
REMARK                         _______ _______ _______ _____ _____    ______ ____
ROOT
ATOM      1  C   UNL     1       6.400   4.788  18.055  0.00  0.00    +0.000 A 
ATOM      2  C   UNL     1       6.785   4.860  16.717  0.00  0.00    +0.000 A 
ATOM      3  C   UNL     1       6.085   4.181  15.708  0.00  0.00    +0.000 A 
ATOM      4  C   UNL     1       4.930   3.499  16.124  0.00  0.00    +0.000 A 
ATOM      5  C   UNL     1       4.442   3.615  17.454  0.00  0.00    +0.000 A 
ATOM      6  C   UNL     1       5.146   4.330  18.443  0.00  0.00    +0.000 A 
ENDROOT
BRANCH   3   7
ATOM      7  C   UNL     1       6.613   4.222  14.314  0.00  0.00    +0.000 A 
ATOM      8  C   UNL     1       7.598   5.172  13.958  0.00  0.00    +0.000 A 
ATOM      9  C   UNL     1       7.938   5.437  12.630  0.00  0.00    +0.000 A 
ATOM     10  C   UNL     1       7.344   4.707  11.613  0.00  0.00    +0.000 A 
ATOM     11  C   UNL     1       6.456   3.681  11.934  0.00  0.00    +0.000 A 
ATOM     12  C   UNL     1       6.097   3.436  13.271  0.00  0.00    +0.000 A 
ENDBRANCH   3   7
BRANCH   1  14
ATOM     13  C   UNL     1       7.944   6.305  18.812  0.00  0.00    +0.000 C 
ATOM     14  O   UNL     1       7.406   4.976  18.972  0.00  0.00    +0.000 OA
ENDBRANCH   1  14
BRANCH   6  15
ATOM     15  C   UNL     1       4.670   4.428  19.886  0.00  0.00    +0.000 C 
BRANCH  15  16
ATOM     16  N   UNL     1       3.286   4.824  20.213  0.00  0.00    +0.000 NA
ATOM     17  C   UNL     1       2.441   3.748  20.711  0.00  0.00    +0.000 C 
ATOM     18  C   UNL     1       1.462   3.431  19.604  0.00  0.00    +0.000 C 
ATOM     19  C   UNL     1       1.300   4.734  18.850  0.00  0.00    +0.000 C 
ATOM     20  C   UNL     1       2.510   5.615  19.232  0.00  0.00    +0.000 C 
BRANCH  20  21
ATOM     21  C   UNL     1       1.971   6.944  19.744  0.00  0.00    +0.000 A 
ATOM     22  N   UNL     1       1.446   7.119  20.951  0.00  0.00    +0.000 NA
ATOM     23  N   UNL     1       1.170   8.451  21.137  0.00  0.00    +0.000 NA
ATOM     24  C   UNL     1       1.495   9.069  20.024  0.00  0.00    +0.000 A 
ATOM     25  N   UNL     1       1.939   8.159  19.109  0.00  0.00    +0.000 N 
ATOM     26  C   UNL     1       2.264   8.469  17.746  0.00  0.00    +0.000 C 
ENDBRANCH  20  21
ENDBRANCH  15  16
ENDBRANCH   6  15
TORSDOF 5
ENDMDL
MODEL 7
REMARK VINA RESULT:      -7.6      3.285      7.910
REMARK  Name = 
REMARK  7 active torsions:
REMARK  status: ('A' for Active; 'I' for Inactive)
REMARK    1  A    between atoms: C_1  and  O_2
REMARK    2  A    between atoms: O_2  and  C_3
REMARK    3  A    between atoms: C_5  and  C_6
REMARK    4  A    between atoms: C_14  and  C_15
REMARK    5  A    between atoms: C_15  and  N_16
REMARK    6  A    between atoms: C_20  and  C_21
REMARK    7  A    between atoms: N_25  and  C_26
REMARK                            x       y       z     vdW  Elec       q    Type
REMARK                         _______ _______ _______ _____ _____    ______ ____
ROOT
ATOM      1  C   UNL     1       2.499   5.700  20.121  0.00  0.00    +0.000 A 
ATOM      2  C   UNL     1       3.555   5.232  19.338  0.00  0.00    +0.000 A 
ATOM      3  C   UNL     1       3.959   5.892  18.169  0.00  0.00    +0.000 A 
ATOM      4  C   UNL     1       3.289   7.094  17.888  0.00  0.00    +0.000 A 
ATOM      5  C   UNL     1       2.365   7.658  18.810  0.00  0.00    +0.000 A 
ATOM      6  C   UNL     1       1.999   6.991  19.995  0.00  0.00    +0.000 A 
ENDROOT
BRANCH   3   7
ATOM      7  C   UNL     1       5.028   5.279  17.329  0.00  0.00    +0.000 A 
ATOM      8  C   UNL     1       6.263   4.912  17.913  0.00  0.00    +0.000 A 
ATOM      9  C   UNL     1       7.384   4.584  17.150  0.00  0.00    +0.000 A 
ATOM     10  C   UNL     1       7.285   4.551  15.767  0.00  0.00    +0.000 A 
ATOM     11  C   UNL     1       6.053   4.792  15.163  0.00  0.00    +0.000 A 
ATOM     12  C   UNL     1       4.932   5.148  15.934  0.00  0.00    +0.000 A 
ENDBRANCH   3   7
BRANCH   1  14
ATOM     13  C   UNL     1       1.052   3.928  19.958  0.00  0.00    +0.000 C 
ATOM     14  O   UNL     1       1.836   4.745  20.853  0.00  0.00    +0.000 OA
ENDBRANCH   1  14
BRANCH   6  15
ATOM     15  C   UNL     1       0.974   7.550  20.973  0.00  0.00    +0.000 C 
BRANCH  15  16
ATOM     16  N   UNL     1       0.958   8.982  21.331  0.00  0.00    +0.000 NA
ATOM     17  C   UNL     1       1.271   9.270  22.724  0.00  0.00    +0.000 C 
ATOM     18  C   UNL     1      -0.026   9.700  23.369  0.00  0.00    +0.000 C 
ATOM     19  C   UNL     1      -0.829  10.317  22.244  0.00  0.00    +0.000 C 
ATOM     20  C   UNL     1      -0.196   9.815  20.927  0.00  0.00    +0.000 C 
BRANCH  20  21
ATOM     21  C   UNL     1       0.143  11.037  20.083  0.00  0.00    +0.000 A 
ATOM     22  N   UNL     1       1.340  11.611  20.051  0.00  0.00    +0.000 NA
ATOM     23  N   UNL     1       1.341  12.606  19.105  0.00  0.00    +0.000 NA
ATOM     24  C   UNL     1       0.130  12.653  18.597  0.00  0.00    +0.000 A 
ATOM     25  N   UNL     1      -0.664  11.735  19.221  0.00  0.00    +0.000 N 
ATOM     26  C   UNL     1      -2.075  11.596  19.001  0.00  0.00    +0.000 C 
ENDBRANCH  20  21
ENDBRANCH  15  16
ENDBRANCH   6  15
TORSDOF 5
ENDMDL
MODEL 8
REMARK VINA RESULT:      -7.5      3.664      7.770
REMARK  Name = 
REMARK  7 active torsions:
REMARK  status: ('A' for Active; 'I' for Inactive)
REMARK    1  A    between atoms: C_1  and  O_2
REMARK    2  A    between atoms: O_2  and  C_3
REMARK    3  A    between atoms: C_5  and  C_6
REMARK    4  A    between atoms: C_14  and  C_15
REMARK    5  A    between atoms: C_15  and  N_16
REMARK    6  A    between atoms: C_20  and  C_21
REMARK    7  A    between atoms: N_25  and  C_26
REMARK                            x       y       z     vdW  Elec       q    Type
REMARK                         _______ _______ _______ _____ _____    ______ ____
ROOT
ATOM      1  C   UNL     1       2.209   6.939  19.797  0.00  0.00    +0.000 A 
ATOM      2  C   UNL     1       3.330   6.293  19.275  0.00  0.00    +0.000 A 
ATOM      3  C   UNL     1       3.846   6.613  18.011  0.00  0.00    +0.000 A 
ATOM      4  C   UNL     1       3.214   7.677  17.348  0.00  0.00    +0.000 A 
ATOM      5  C   UNL     1       2.212   8.456  17.989  0.00  0.00    +0.000 A 
ATOM      6  C   UNL     1       1.732   8.135  19.274  0.00  0.00    +0.000 A 
ENDROOT
BRANCH   3   7
ATOM      7  C   UNL     1       4.984   5.812  17.475  0.00  0.00    +0.000 A 
ATOM      8  C   UNL     1       5.944   5.267  18.360  0.00  0.00    +0.000 A 
ATOM      9  C   UNL     1       7.158   4.742  17.917  0.00  0.00    +0.000 A 
ATOM     10  C   UNL     1       7.425   4.687  16.557  0.00  0.00    +0.000 A 
ATOM     11  C   UNL     1       6.452   5.107  15.651  0.00  0.00    +0.000 A 
ATOM     12  C   UNL     1       5.241   5.659  16.103  0.00  0.00    +0.000 A 
ENDBRANCH   3   7
BRANCH   1  14
ATOM     13  C   UNL     1       1.689   4.806  20.457  0.00  0.00    +0.000 C 
ATOM     14  O   UNL     1       1.474   6.211  20.701  0.00  0.00    +0.000 OA
ENDBRANCH   1  14
BRANCH   6  15
ATOM     15  C   UNL     1       0.624   8.923  19.961  0.00  0.00    +0.000 C 
BRANCH  15  16
ATOM     16  N   UNL     1       0.929   9.931  20.996  0.00  0.00    +0.000 NA
ATOM     17  C   UNL     1       0.960   9.419  22.359  0.00  0.00    +0.000 C 
ATOM     18  C   UNL     1      -0.278   9.954  23.040  0.00  0.00    +0.000 C 
ATOM     19  C   UNL     1      -0.572  11.260  22.334  0.00  0.00    +0.000 C 
ATOM     20  C   UNL     1       0.195  11.215  20.993  0.00  0.00    +0.000 C 
BRANCH  20  21
ATOM     21  C   UNL     1       1.062  12.464  20.915  0.00  0.00    +0.000 A 
ATOM     22  N   UNL     1       1.139  13.379  21.874  0.00  0.00    +0.000 NA
ATOM     23  N   UNL     1       2.095  14.306  21.542  0.00  0.00    +0.000 NA
ATOM     24  C   UNL     1       2.564  13.967  20.363  0.00  0.00    +0.000 A 
ATOM     25  N   UNL     1       1.905  12.862  19.908  0.00  0.00    +0.000 N 
ATOM     26  C   UNL     1       2.078  12.290  18.604  0.00  0.00    +0.000 C 
ENDBRANCH  20  21
ENDBRANCH  15  16
ENDBRANCH   6  15
TORSDOF 5
ENDMDL
MODEL 9
REMARK VINA RESULT:      -7.5      3.505      8.006
REMARK  Name = 
REMARK  7 active torsions:
REMARK  status: ('A' for Active; 'I' for Inactive)
REMARK    1  A    between atoms: C_1  and  O_2
REMARK    2  A    between atoms: O_2  and  C_3
REMARK    3  A    between atoms: C_5  and  C_6
REMARK    4  A    between atoms: C_14  and  C_15
REMARK    5  A    between atoms: C_15  and  N_16
REMARK    6  A    between atoms: C_20  and  C_21
REMARK    7  A    between atoms: N_25  and  C_26
REMARK                            x       y       z     vdW  Elec       q    Type
REMARK                         _______ _______ _______ _____ _____    ______ ____
ROOT
ATOM      1  C   UNL     1       2.702   5.939  19.890  0.00  0.00    +0.000 A 
ATOM      2  C   UNL     1       3.785   5.592  19.082  0.00  0.00    +0.000 A 
ATOM      3  C   UNL     1       4.116   6.324  17.933  0.00  0.00    +0.000 A 
ATOM      4  C   UNL     1       3.341   7.472  17.700  0.00  0.00    +0.000 A 
ATOM      5  C   UNL     1       2.382   7.921  18.649  0.00  0.00    +0.000 A 
ATOM      6  C   UNL     1       2.090   7.185  19.814  0.00  0.00    +0.000 A 
ENDROOT
BRANCH   3   7
ATOM      7  C   UNL     1       5.225   5.836  17.063  0.00  0.00    +0.000 A 
ATOM      8  C   UNL     1       5.091   5.880  15.656  0.00  0.00    +0.000 A 
ATOM      9  C   UNL     1       5.964   5.206  14.799  0.00  0.00    +0.000 A 
ATOM     10  C   UNL     1       7.043   4.515  15.327  0.00  0.00    +0.000 A 
ATOM     11  C   UNL     1       7.272   4.548  16.702  0.00  0.00    +0.000 A 
ATOM     12  C   UNL     1       6.377   5.206  17.563  0.00  0.00    +0.000 A 
ENDBRANCH   3   7
BRANCH   1  14
ATOM     13  C   UNL     1       2.471   3.659  19.951  0.00  0.00    +0.000 C 
ATOM     14  O   UNL     1       2.134   4.906  20.595  0.00  0.00    +0.000 OA
ENDBRANCH   1  14
BRANCH   6  15
ATOM     15  C   UNL     1       1.033   7.619  20.820  0.00  0.00    +0.000 C 
BRANCH  15  16
ATOM     16  N   UNL     1       0.921   9.024  21.258  0.00  0.00    +0.000 NA
ATOM     17  C   UNL     1       1.440   9.295  22.591  0.00  0.00    +0.000 C 
ATOM     18  C   UNL     1       0.237   9.542  23.471  0.00  0.00    +0.000 C 
ATOM     19  C   UNL     1      -0.814  10.102  22.537  0.00  0.00    +0.000 C 
ATOM     20  C   UNL     1      -0.371   9.729  21.105  0.00  0.00    +0.000 C 
BRANCH  20  21
ATOM     21  C   UNL     1      -0.323  11.012  20.287  0.00  0.00    +0.000 A 
ATOM     22  N   UNL     1      -0.132  12.219  20.807  0.00  0.00    +0.000 NA
ATOM     23  N   UNL     1      -0.023  13.138  19.792  0.00  0.00    +0.000 NA
ATOM     24  C   UNL     1      -0.186  12.485  18.664  0.00  0.00    +0.000 A 
ATOM     25  N   UNL     1      -0.438  11.170  18.929  0.00  0.00    +0.000 N 
ATOM     26  C   UNL     1      -0.784  10.192  17.938  0.00  0.00    +0.000 C 
ENDBRANCH  20  21
ENDBRANCH  15  16
ENDBRANCH   6  15
TORSDOF 5
ENDMDL
