MODEL 1
REMARK VINA RESULT:      -7.4      0.000      0.000
REMARK  Name = 
REMARK  11 active torsions:
REMARK  status: ('A' for Active; 'I' for Inactive)
REMARK    1  A    between atoms: C_1  and  C_2
REMARK    2  A    between atoms: C_2  and  C_3
REMARK    3  A    between atoms: C_3  and  N_4
REMARK    4  A    between atoms: N_4  and  C_5
REMARK    5  A    between atoms: N_4  and  C_8
REMARK    6  A    between atoms: C_5  and  C_6
REMARK    7  A    between atoms: C_6  and  C_7
REMARK    8  A    between atoms: C_15  and  C_16
REMARK    9  A    between atoms: N_18  and  C_19
REMARK   10  A    between atoms: C_19  and  C_20
REMARK   11  A    between atoms: C_19  and  C_21
REMARK                            x       y       z     vdW  Elec       q    Type
REMARK                         _______ _______ _______ _____ _____    ______ ____
ROOT
ATOM      1  C   UNL     1       4.699   4.841  17.193  0.00  0.00    +0.000 C 
ATOM      2  C   UNL     1       5.134   3.592  17.989  0.00  0.00    +0.000 C 
ATOM      3  O   UNL     1       4.023   2.868  18.523  0.00  0.00    +0.000 OA
ATOM      4  C   UNL     1       3.133   3.624  19.229  0.00  0.00    +0.000 A 
ATOM      5  C   UNL     1       2.259   2.887  20.029  0.00  0.00    +0.000 A 
ATOM      6  C   UNL     1       1.311   3.532  20.810  0.00  0.00    +0.000 A 
ATOM      7  C   UNL     1       1.241   4.923  20.785  0.00  0.00    +0.000 A 
ATOM      8  C   UNL     1       2.087   5.675  19.950  0.00  0.00    +0.000 A 
ATOM      9  C   UNL     1       3.050   5.019  19.148  0.00  0.00    +0.000 A 
ATOM     10  C   UNL     1       3.994   5.764  18.228  0.00  0.00    +0.000 C 
ENDROOT
BRANCH   8  11
ATOM     11  C   UNL     1       1.950   7.171  19.979  0.00  0.00    +0.000 C 
ATOM     12  O   UNL     1       2.335   7.868  19.052  0.00  0.00    +0.000 OA
ATOM     13  N   UNL     1       1.374   7.680  21.131  0.00  0.00    +0.000 N 
ATOM     14  H   UNL     1       0.876   7.046  21.739  0.00  0.00    +0.000 HD
BRANCH  13  15
ATOM     15  C   UNL     1       1.168   9.106  21.350  0.00  0.00    +0.000 C 
ATOM     16  C   UNL     1       0.086   9.635  20.414  0.00  0.00    +0.000 C 
ATOM     17  C   UNL     1       0.787   9.354  22.808  0.00  0.00    +0.000 C 
ENDBRANCH  13  15
ENDBRANCH   8  11
BRANCH   1  18
ATOM     18  N   UNL     1       5.796   5.556  16.488  0.00  0.00    +0.000 NA
BRANCH  18  19
ATOM     19  C   UNL     1       6.198   6.840  17.095  0.00  0.00    +0.000 C 
BRANCH  19  21
ATOM     20  C   UNL     1       7.810   6.092  18.977  0.00  0.00    +0.000 C 
ATOM     21  C   UNL     1       7.583   6.971  17.760  0.00  0.00    +0.000 C 
ENDBRANCH  19  21
ENDBRANCH  18  19
BRANCH  18  22
ATOM     22  C   UNL     1       5.728   5.595  15.021  0.00  0.00    +0.000 C 
BRANCH  22  23
ATOM     23  C   UNL     1       6.774   4.701  14.335  0.00  0.00    +0.000 C 
ATOM     24  C   UNL     1       6.147   3.754  13.316  0.00  0.00    +0.000 C 
ENDBRANCH  22  23
ENDBRANCH  18  22
ENDBRANCH   1  18
TORSDOF 7
ENDMDL
MODEL 2
REMARK VINA RESULT:      -7.2      0.580      2.385
REMARK  Name = 
REMARK  11 active torsions:
REMARK  status: ('A' for Active; 'I' for Inactive)
REMARK    1  A    between atoms: C_1  and  C_2
REMARK    2  A    between atoms: C_2  and  C_3
REMARK    3  A    between atoms: C_3  and  N_4
REMARK    4  A    between atoms: N_4  and  C_5
REMARK    5  A    between atoms: N_4  and  C_8
REMARK    6  A    between atoms: C_5  and  C_6
REMARK    7  A    between atoms: C_6  and  C_7
REMARK    8  A    between atoms: C_15  and  C_16
REMARK    9  A    between atoms: N_18  and  C_19
REMARK   10  A    between atoms: C_19  and  C_20
REMARK   11  A    between atoms: C_19  and  C_21
REMARK                            x       y       z     vdW  Elec       q    Type
REMARK                         _______ _______ _______ _____ _____    ______ ____
ROOT
ATOM      1  C   UNL     1       4.294   4.565  16.772  0.00  0.00    +0.000 C 
ATOM      2  C   UNL     1       4.702   3.261  17.491  0.00  0.00    +0.000 C 
ATOM      3  O   UNL     1       3.595   2.611  18.118  0.00  0.00    +0.000 OA
ATOM      4  C   UNL     1       2.844   3.412  18.928  0.00  0.00    +0.000 A 
ATOM      5  C   UNL     1       1.997   2.721  19.796  0.00  0.00    +0.000 A 
ATOM      6  C   UNL     1       1.187   3.414  20.684  0.00  0.00    +0.000 A 
ATOM      7  C   UNL     1       1.228   4.806  20.699  0.00  0.00    +0.000 A 
ATOM      8  C   UNL     1       2.045   5.515  19.800  0.00  0.00    +0.000 A 
ATOM      9  C   UNL     1       2.867   4.811  18.888  0.00  0.00    +0.000 A 
ATOM     10  C   UNL     1       3.773   5.507  17.895  0.00  0.00    +0.000 C 
ENDROOT
BRANCH   8  11
ATOM     11  C   UNL     1       2.034   7.015  19.877  0.00  0.00    +0.000 C 
ATOM     12  O   UNL     1       2.562   7.706  19.017  0.00  0.00    +0.000 OA
ATOM     13  N   UNL     1       1.399   7.536  20.993  0.00  0.00    +0.000 N 
ATOM     14  H   UNL     1       0.794   6.928  21.527  0.00  0.00    +0.000 HD
BRANCH  13  15
ATOM     15  C   UNL     1       1.295   8.966  21.249  0.00  0.00    +0.000 C 
ATOM     16  C   UNL     1       0.290   9.604  20.297  0.00  0.00    +0.000 C 
ATOM     17  C   UNL     1       0.885   9.200  22.702  0.00  0.00    +0.000 C 
ENDBRANCH  13  15
ENDBRANCH   8  11
BRANCH   1  18
ATOM     18  N   UNL     1       5.369   5.213  15.977  0.00  0.00    +0.000 NA
BRANCH  18  19
ATOM     19  C   UNL     1       6.307   4.285  15.317  0.00  0.00    +0.000 C 
BRANCH  19  21
ATOM     20  C   UNL     1       6.101   3.554  12.843  0.00  0.00    +0.000 C 
ATOM     21  C   UNL     1       6.707   4.518  13.846  0.00  0.00    +0.000 C 
ENDBRANCH  19  21
ENDBRANCH  18  19
BRANCH  18  22
ATOM     22  C   UNL     1       6.024   6.384  16.575  0.00  0.00    +0.000 C 
BRANCH  22  23
ATOM     23  C   UNL     1       7.410   6.077  17.168  0.00  0.00    +0.000 C 
ATOM     24  C   UNL     1       7.383   5.997  18.691  0.00  0.00    +0.000 C 
ENDBRANCH  22  23
ENDBRANCH  18  22
ENDBRANCH   1  18
TORSDOF 7
ENDMDL
MODEL 3
REMARK VINA RESULT:      -7.1      1.203      2.667
REMARK  Name = 
REMARK  11 active torsions:
REMARK  status: ('A' for Active; 'I' for Inactive)
REMARK    1  A    between atoms: C_1  and  C_2
REMARK    2  A    between atoms: C_2  and  C_3
REMARK    3  A    between atoms: C_3  and  N_4
REMARK    4  A    between atoms: N_4  and  C_5
REMARK    5  A    between atoms: N_4  and  C_8
REMARK    6  A    between atoms: C_5  and  C_6
REMARK    7  A    between atoms: C_6  and  C_7
REMARK    8  A    between atoms: C_15  and  C_16
REMARK    9  A    between atoms: N_18  and  C_19
REMARK   10  A    between atoms: C_19  and  C_20
REMARK   11  A    between atoms: C_19  and  C_21
REMARK                            x       y       z     vdW  Elec       q    Type
REMARK                         _______ _______ _______ _____ _____    ______ ____
ROOT
ATOM      1  C   UNL     1       4.478   5.047  16.921  0.00  0.00    +0.000 C 
ATOM      2  C   UNL     1       4.837   3.636  17.436  0.00  0.00    +0.000 C 
ATOM      3  O   UNL     1       3.685   2.886  17.826  0.00  0.00    +0.000 OA
ATOM      4  C   UNL     1       2.846   3.532  18.687  0.00  0.00    +0.000 A 
ATOM      5  C   UNL     1       1.930   2.699  19.332  0.00  0.00    +0.000 A 
ATOM      6  C   UNL     1       1.027   3.224  20.244  0.00  0.00    +0.000 A 
ATOM      7  C   UNL     1       1.043   4.592  20.508  0.00  0.00    +0.000 A 
ATOM      8  C   UNL     1       1.931   5.448  19.832  0.00  0.00    +0.000 A 
ATOM      9  C   UNL     1       2.849   4.916  18.897  0.00  0.00    +0.000 A 
ATOM     10  C   UNL     1       3.835   5.776  18.136  0.00  0.00    +0.000 C 
ENDROOT
BRANCH   8  11
ATOM     11  C   UNL     1       1.887   6.911  20.171  0.00  0.00    +0.000 C 
ATOM     12  O   UNL     1       1.948   7.304  21.327  0.00  0.00    +0.000 OA
ATOM     13  N   UNL     1       1.759   7.757  19.081  0.00  0.00    +0.000 N 
ATOM     14  H   UNL     1       1.947   7.385  18.161  0.00  0.00    +0.000 HD
BRANCH  13  15
ATOM     15  C   UNL     1       1.686   9.206  19.208  0.00  0.00    +0.000 C 
ATOM     16  C   UNL     1       1.969   9.871  17.865  0.00  0.00    +0.000 C 
ATOM     17  C   UNL     1       0.307   9.609  19.728  0.00  0.00    +0.000 C 
ENDBRANCH  13  15
ENDBRANCH   8  11
BRANCH   1  18
ATOM     18  N   UNL     1       5.615   5.825  16.362  0.00  0.00    +0.000 NA
BRANCH  18  19
ATOM     19  C   UNL     1       6.772   5.020  15.929  0.00  0.00    +0.000 C 
BRANCH  19  21
ATOM     20  C   UNL     1       5.984   3.888  13.739  0.00  0.00    +0.000 C 
ATOM     21  C   UNL     1       7.011   4.770  14.426  0.00  0.00    +0.000 C 
ENDBRANCH  19  21
ENDBRANCH  18  19
BRANCH  18  22
ATOM     22  C   UNL     1       5.987   7.058  17.069  0.00  0.00    +0.000 C 
BRANCH  22  23
ATOM     23  C   UNL     1       7.439   7.061  17.575  0.00  0.00    +0.000 C 
ATOM     24  C   UNL     1       7.974   8.474  17.790  0.00  0.00    +0.000 C 
ENDBRANCH  22  23
ENDBRANCH  18  22
ENDBRANCH   1  18
TORSDOF 7
ENDMDL
MODEL 4
REMARK VINA RESULT:      -7.0      0.917      2.418
REMARK  Name = 
REMARK  11 active torsions:
REMARK  status: ('A' for Active; 'I' for Inactive)
REMARK    1  A    between atoms: C_1  and  C_2
REMARK    2  A    between atoms: C_2  and  C_3
REMARK    3  A    between atoms: C_3  and  N_4
REMARK    4  A    between atoms: N_4  and  C_5
REMARK    5  A    between atoms: N_4  and  C_8
REMARK    6  A    between atoms: C_5  and  C_6
REMARK    7  A    between atoms: C_6  and  C_7
REMARK    8  A    between atoms: C_15  and  C_16
REMARK    9  A    between atoms: N_18  and  C_19
REMARK   10  A    between atoms: C_19  and  C_20
REMARK   11  A    between atoms: C_19  and  C_21
REMARK                            x       y       z     vdW  Elec       q    Type
REMARK                         _______ _______ _______ _____ _____    ______ ____
ROOT
ATOM      1  C   UNL     1       5.329   4.559  18.206  0.00  0.00    +0.000 C 
ATOM      2  C   UNL     1       5.464   3.306  19.098  0.00  0.00    +0.000 C 
ATOM      3  O   UNL     1       4.223   2.622  19.275  0.00  0.00    +0.000 OA
ATOM      4  C   UNL     1       3.187   3.412  19.681  0.00  0.00    +0.000 A 
ATOM      5  C   UNL     1       2.089   2.711  20.184  0.00  0.00    +0.000 A 
ATOM      6  C   UNL     1       0.973   3.392  20.643  0.00  0.00    +0.000 A 
ATOM      7  C   UNL     1       0.957   4.784  20.596  0.00  0.00    +0.000 A 
ATOM      8  C   UNL     1       2.038   5.501  20.052  0.00  0.00    +0.000 A 
ATOM      9  C   UNL     1       3.176   4.808  19.576  0.00  0.00    +0.000 A 
ATOM     10  C   UNL     1       4.375   5.514  18.981  0.00  0.00    +0.000 C 
ENDROOT
BRANCH   8  11
ATOM     11  C   UNL     1       1.946   7.000  20.035  0.00  0.00    +0.000 C 
ATOM     12  O   UNL     1       2.412   7.661  19.118  0.00  0.00    +0.000 OA
ATOM     13  N   UNL     1       1.313   7.557  21.135  0.00  0.00    +0.000 N 
ATOM     14  H   UNL     1       0.759   6.953  21.725  0.00  0.00    +0.000 HD
BRANCH  13  15
ATOM     15  C   UNL     1       1.139   8.993  21.305  0.00  0.00    +0.000 C 
ATOM     16  C   UNL     1      -0.285   9.400  20.942  0.00  0.00    +0.000 C 
ATOM     17  C   UNL     1       1.460   9.384  22.746  0.00  0.00    +0.000 C 
ENDBRANCH  13  15
ENDBRANCH   8  11
BRANCH   1  18
ATOM     18  N   UNL     1       6.608   5.233  17.861  0.00  0.00    +0.000 NA
BRANCH  18  19
ATOM     19  C   UNL     1       7.393   4.580  16.796  0.00  0.00    +0.000 C 
BRANCH  19  21
ATOM     20  C   UNL     1       6.173   3.906  14.616  0.00  0.00    +0.000 C 
ATOM     21  C   UNL     1       7.086   4.894  15.318  0.00  0.00    +0.000 C 
ENDBRANCH  19  21
ENDBRANCH  18  19
BRANCH  18  22
ATOM     22  C   UNL     1       7.425   5.720  18.981  0.00  0.00    +0.000 C 
BRANCH  22  23
ATOM     23  C   UNL     1       8.219   6.996  18.654  0.00  0.00    +0.000 C 
ATOM     24  C   UNL     1       7.514   7.865  17.617  0.00  0.00    +0.000 C 
ENDBRANCH  22  23
ENDBRANCH  18  22
ENDBRANCH   1  18
TORSDOF 7
ENDMDL
MODEL 5
REMARK VINA RESULT:      -7.0      1.281      1.465
REMARK  Name = 
REMARK  11 active torsions:
REMARK  status: ('A' for Active; 'I' for Inactive)
REMARK    1  A    between atoms: C_1  and  C_2
REMARK    2  A    between atoms: C_2  and  C_3
REMARK    3  A    between atoms: C_3  and  N_4
REMARK    4  A    between atoms: N_4  and  C_5
REMARK    5  A    between atoms: N_4  and  C_8
REMARK    6  A    between atoms: C_5  and  C_6
REMARK    7  A    between atoms: C_6  and  C_7
REMARK    8  A    between atoms: C_15  and  C_16
REMARK    9  A    between atoms: N_18  and  C_19
REMARK   10  A    between atoms: C_19  and  C_20
REMARK   11  A    between atoms: C_19  and  C_21
REMARK                            x       y       z     vdW  Elec       q    Type
REMARK                         _______ _______ _______ _____ _____    ______ ____
ROOT
ATOM      1  C   UNL     1       5.616   5.068  17.687  0.00  0.00    +0.000 C 
ATOM      2  C   UNL     1       5.954   4.210  18.925  0.00  0.00    +0.000 C 
ATOM      3  O   UNL     1       4.806   3.557  19.469  0.00  0.00    +0.000 OA
ATOM      4  C   UNL     1       3.740   4.375  19.706  0.00  0.00    +0.000 A 
ATOM      5  C   UNL     1       2.767   3.826  20.543  0.00  0.00    +0.000 A 
ATOM      6  C   UNL     1       1.636   4.556  20.877  0.00  0.00    +0.000 A 
ATOM      7  C   UNL     1       1.481   5.843  20.366  0.00  0.00    +0.000 A 
ATOM      8  C   UNL     1       2.433   6.391  19.487  0.00  0.00    +0.000 A 
ATOM      9  C   UNL     1       3.584   5.646  19.140  0.00  0.00    +0.000 A 
ATOM     10  C   UNL     1       4.650   6.173  18.203  0.00  0.00    +0.000 C 
ENDROOT
BRANCH   8  11
ATOM     11  C   UNL     1       2.195   7.784  18.978  0.00  0.00    +0.000 C 
ATOM     12  O   UNL     1       2.677   8.173  17.923  0.00  0.00    +0.000 OA
ATOM     13  N   UNL     1       1.410   8.578  19.799  0.00  0.00    +0.000 N 
ATOM     14  H   UNL     1       0.865   8.128  20.520  0.00  0.00    +0.000 HD
BRANCH  13  15
ATOM     15  C   UNL     1       1.079   9.960  19.481  0.00  0.00    +0.000 C 
ATOM     16  C   UNL     1      -0.125  10.016  18.546  0.00  0.00    +0.000 C 
ATOM     17  C   UNL     1       0.796  10.731  20.770  0.00  0.00    +0.000 C 
ENDBRANCH  13  15
ENDBRANCH   8  11
BRANCH   1  18
ATOM     18  N   UNL     1       6.786   5.657  16.984  0.00  0.00    +0.000 NA
BRANCH  18  19
ATOM     19  C   UNL     1       6.946   7.114  17.148  0.00  0.00    +0.000 C 
BRANCH  19  21
ATOM     20  C   UNL     1       8.271   9.161  18.016  0.00  0.00    +0.000 C 
ATOM     21  C   UNL     1       8.036   7.663  18.090  0.00  0.00    +0.000 C 
ENDBRANCH  19  21
ENDBRANCH  18  19
BRANCH  18  22
ATOM     22  C   UNL     1       7.047   5.186  15.618  0.00  0.00    +0.000 C 
BRANCH  22  23
ATOM     23  C   UNL     1       6.249   3.927  15.239  0.00  0.00    +0.000 C 
ATOM     24  C   UNL     1       5.557   4.066  13.887  0.00  0.00    +0.000 C 
ENDBRANCH  22  23
ENDBRANCH  18  22
ENDBRANCH   1  18
TORSDOF 7
ENDMDL
MODEL 6
REMARK VINA RESULT:      -7.0      3.251      5.644
REMARK  Name = 
REMARK  11 active torsions:
REMARK  status: ('A' for Active; 'I' for Inactive)
REMARK    1  A    between atoms: C_1  and  C_2
REMARK    2  A    between atoms: C_2  and  C_3
REMARK    3  A    between atoms: C_3  and  N_4
REMARK    4  A    between atoms: N_4  and  C_5
REMARK    5  A    between atoms: N_4  and  C_8
REMARK    6  A    between atoms: C_5  and  C_6
REMARK    7  A    between atoms: C_6  and  C_7
REMARK    8  A    between atoms: C_15  and  C_16
REMARK    9  A    between atoms: N_18  and  C_19
REMARK   10  A    between atoms: C_19  and  C_20
REMARK   11  A    between atoms: C_19  and  C_21
REMARK                            x       y       z     vdW  Elec       q    Type
REMARK                         _______ _______ _______ _____ _____    ______ ____
ROOT
ATOM      1  C   UNL     1       6.526   3.789  14.226  0.00  0.00    +0.000 C 
ATOM      2  C   UNL     1       7.024   5.249  14.141  0.00  0.00    +0.000 C 
ATOM      3  O   UNL     1       7.703   5.666  15.327  0.00  0.00    +0.000 OA
ATOM      4  C   UNL     1       7.021   5.438  16.487  0.00  0.00    +0.000 A 
ATOM      5  C   UNL     1       7.508   6.144  17.589  0.00  0.00    +0.000 A 
ATOM      6  C   UNL     1       6.899   6.015  18.828  0.00  0.00    +0.000 A 
ATOM      7  C   UNL     1       5.798   5.173  18.961  0.00  0.00    +0.000 A 
ATOM      8  C   UNL     1       5.325   4.423  17.870  0.00  0.00    +0.000 A 
ATOM      9  C   UNL     1       5.948   4.548  16.606  0.00  0.00    +0.000 A 
ATOM     10  C   UNL     1       5.491   3.775  15.387  0.00  0.00    +0.000 C 
ENDROOT
BRANCH   8  11
ATOM     11  C   UNL     1       4.133   3.536  18.093  0.00  0.00    +0.000 C 
ATOM     12  O   UNL     1       3.675   2.840  17.199  0.00  0.00    +0.000 OA
ATOM     13  N   UNL     1       3.600   3.588  19.371  0.00  0.00    +0.000 N 
ATOM     14  H   UNL     1       4.159   3.997  20.107  0.00  0.00    +0.000 HD
BRANCH  13  15
ATOM     15  C   UNL     1       2.437   2.810  19.776  0.00  0.00    +0.000 C 
ATOM     16  C   UNL     1       2.416   2.639  21.292  0.00  0.00    +0.000 C 
ATOM     17  C   UNL     1       1.163   3.501  19.295  0.00  0.00    +0.000 C 
ENDBRANCH  13  15
ENDBRANCH   8  11
BRANCH   1  18
ATOM     18  N   UNL     1       5.941   3.245  12.972  0.00  0.00    +0.000 NA
BRANCH  18  19
ATOM     19  C   UNL     1       6.834   3.280  11.798  0.00  0.00    +0.000 C 
BRANCH  19  21
ATOM     20  C   UNL     1       6.345   0.844  11.072  0.00  0.00    +0.000 C 
ATOM     21  C   UNL     1       7.365   1.962  11.201  0.00  0.00    +0.000 C 
ENDBRANCH  19  21
ENDBRANCH  18  19
BRANCH  18  22
ATOM     22  C   UNL     1       4.554   3.622  12.668  0.00  0.00    +0.000 C 
BRANCH  22  23
ATOM     23  C   UNL     1       4.317   3.949  11.185  0.00  0.00    +0.000 C 
ATOM     24  C   UNL     1       3.230   3.076  10.566  0.00  0.00    +0.000 C 
ENDBRANCH  22  23
ENDBRANCH  18  22
ENDBRANCH   1  18
TORSDOF 7
ENDMDL
MODEL 7
REMARK VINA RESULT:      -6.9      1.142      1.322
REMARK  Name = 
REMARK  11 active torsions:
REMARK  status: ('A' for Active; 'I' for Inactive)
REMARK    1  A    between atoms: C_1  and  C_2
REMARK    2  A    between atoms: C_2  and  C_3
REMARK    3  A    between atoms: C_3  and  N_4
REMARK    4  A    between atoms: N_4  and  C_5
REMARK    5  A    between atoms: N_4  and  C_8
REMARK    6  A    between atoms: C_5  and  C_6
REMARK    7  A    between atoms: C_6  and  C_7
REMARK    8  A    between atoms: C_15  and  C_16
REMARK    9  A    between atoms: N_18  and  C_19
REMARK   10  A    between atoms: C_19  and  C_20
REMARK   11  A    between atoms: C_19  and  C_21
REMARK                            x       y       z     vdW  Elec       q    Type
REMARK                         _______ _______ _______ _____ _____    ______ ____
ROOT
ATOM      1  C   UNL     1       4.449   4.766  16.939  0.00  0.00    +0.000 C 
ATOM      2  C   UNL     1       4.748   3.355  17.491  0.00  0.00    +0.000 C 
ATOM      3  O   UNL     1       3.565   2.665  17.899  0.00  0.00    +0.000 OA
ATOM      4  C   UNL     1       2.755   3.368  18.743  0.00  0.00    +0.000 A 
ATOM      5  C   UNL     1       1.804   2.592  19.409  0.00  0.00    +0.000 A 
ATOM      6  C   UNL     1       0.925   3.178  20.306  0.00  0.00    +0.000 A 
ATOM      7  C   UNL     1       0.999   4.550  20.534  0.00  0.00    +0.000 A 
ATOM      8  C   UNL     1       1.923   5.350  19.838  0.00  0.00    +0.000 A 
ATOM      9  C   UNL     1       2.817   4.756  18.917  0.00  0.00    +0.000 A 
ATOM     10  C   UNL     1       3.838   5.553  18.134  0.00  0.00    +0.000 C 
ENDROOT
BRANCH   8  11
ATOM     11  C   UNL     1       1.941   6.822  20.138  0.00  0.00    +0.000 C 
ATOM     12  O   UNL     1       2.109   7.243  21.274  0.00  0.00    +0.000 OA
ATOM     13  N   UNL     1       1.740   7.643  19.040  0.00  0.00    +0.000 N 
ATOM     14  H   UNL     1       1.841   7.243  18.118  0.00  0.00    +0.000 HD
BRANCH  13  15
ATOM     15  C   UNL     1       1.712   9.096  19.133  0.00  0.00    +0.000 C 
ATOM     16  C   UNL     1       2.001   9.720  17.772  0.00  0.00    +0.000 C 
ATOM     17  C   UNL     1       0.351   9.552  19.656  0.00  0.00    +0.000 C 
ENDBRANCH  13  15
ENDBRANCH   8  11
BRANCH   1  18
ATOM     18  N   UNL     1       5.617   5.481  16.361  0.00  0.00    +0.000 NA
BRANCH  18  19
ATOM     19  C   UNL     1       5.913   6.792  16.970  0.00  0.00    +0.000 C 
BRANCH  19  21
ATOM     20  C   UNL     1       7.728   6.151  18.700  0.00  0.00    +0.000 C 
ATOM     21  C   UNL     1       7.312   7.063  17.560  0.00  0.00    +0.000 C 
ENDBRANCH  19  21
ENDBRANCH  18  19
BRANCH  18  22
ATOM     22  C   UNL     1       5.745   5.470  14.898  0.00  0.00    +0.000 C 
BRANCH  22  23
ATOM     23  C   UNL     1       6.621   4.323  14.366  0.00  0.00    +0.000 C 
ATOM     24  C   UNL     1       6.036   3.683  13.111  0.00  0.00    +0.000 C 
ENDBRANCH  22  23
ENDBRANCH  18  22
ENDBRANCH   1  18
TORSDOF 7
ENDMDL
MODEL 8
REMARK VINA RESULT:      -6.7      1.134      2.721
REMARK  Name = 
REMARK  11 active torsions:
REMARK  status: ('A' for Active; 'I' for Inactive)
REMARK    1  A    between atoms: C_1  and  C_2
REMARK    2  A    between atoms: C_2  and  C_3
REMARK    3  A    between atoms: C_3  and  N_4
REMARK    4  A    between atoms: N_4  and  C_5
REMARK    5  A    between atoms: N_4  and  C_8
REMARK    6  A    between atoms: C_5  and  C_6
REMARK    7  A    between atoms: C_6  and  C_7
REMARK    8  A    between atoms: C_15  and  C_16
REMARK    9  A    between atoms: N_18  and  C_19
REMARK   10  A    between atoms: C_19  and  C_20
REMARK   11  A    between atoms: C_19  and  C_21
REMARK                            x       y       z     vdW  Elec       q    Type
REMARK                         _______ _______ _______ _____ _____    ______ ____
ROOT
ATOM      1  C   UNL     1       5.437   5.489  17.558  0.00  0.00    +0.000 C 
ATOM      2  C   UNL     1       5.935   4.521  18.653  0.00  0.00    +0.000 C 
ATOM      3  O   UNL     1       4.882   3.726  19.202  0.00  0.00    +0.000 OA
ATOM      4  C   UNL     1       3.791   4.431  19.619  0.00  0.00    +0.000 A 
ATOM      5  C   UNL     1       2.931   3.718  20.457  0.00  0.00    +0.000 A 
ATOM      6  C   UNL     1       1.789   4.320  20.964  0.00  0.00    +0.000 A 
ATOM      7  C   UNL     1       1.509   5.642  20.628  0.00  0.00    +0.000 A 
ATOM      8  C   UNL     1       2.344   6.357  19.750  0.00  0.00    +0.000 A 
ATOM      9  C   UNL     1       3.506   5.743  19.226  0.00  0.00    +0.000 A 
ATOM     10  C   UNL     1       4.451   6.453  18.279  0.00  0.00    +0.000 C 
ENDROOT
BRANCH   8  11
ATOM     11  C   UNL     1       1.975   7.779  19.434  0.00  0.00    +0.000 C 
ATOM     12  O   UNL     1       2.293   8.304  18.377  0.00  0.00    +0.000 OA
ATOM     13  N   UNL     1       1.270   8.432  20.432  0.00  0.00    +0.000 N 
ATOM     14  H   UNL     1       0.848   7.877  21.163  0.00  0.00    +0.000 HD
BRANCH  13  15
ATOM     15  C   UNL     1       0.835   9.817  20.316  0.00  0.00    +0.000 C 
ATOM     16  C   UNL     1      -0.352   9.922  19.365  0.00  0.00    +0.000 C 
ATOM     17  C   UNL     1       0.468  10.359  21.697  0.00  0.00    +0.000 C 
ENDBRANCH  13  15
ENDBRANCH   8  11
BRANCH   1  18
ATOM     18  N   UNL     1       6.502   6.240  16.843  0.00  0.00    +0.000 NA
BRANCH  18  19
ATOM     19  C   UNL     1       6.978   5.615  15.594  0.00  0.00    +0.000 C 
BRANCH  19  21
ATOM     20  C   UNL     1       5.858   3.962  13.947  0.00  0.00    +0.000 C 
ATOM     21  C   UNL     1       6.582   4.161  15.267  0.00  0.00    +0.000 C 
ENDBRANCH  19  21
ENDBRANCH  18  19
BRANCH  18  22
ATOM     22  C   UNL     1       7.580   6.808  17.664  0.00  0.00    +0.000 C 
BRANCH  22  23
ATOM     23  C   UNL     1       7.707   8.335  17.540  0.00  0.00    +0.000 C 
ATOM     24  C   UNL     1       8.593   8.933  18.629  0.00  0.00    +0.000 C 
ENDBRANCH  22  23
ENDBRANCH  18  22
ENDBRANCH   1  18
TORSDOF 7
ENDMDL
MODEL 9
REMARK VINA RESULT:      -6.7      1.152      2.682
REMARK  Name = 
REMARK  11 active torsions:
REMARK  status: ('A' for Active; 'I' for Inactive)
REMARK    1  A    between atoms: C_1  and  C_2
REMARK    2  A    between atoms: C_2  and  C_3
REMARK    3  A    between atoms: C_3  and  N_4
REMARK    4  A    between atoms: N_4  and  C_5
REMARK    5  A    between atoms: N_4  and  C_8
REMARK    6  A    between atoms: C_5  and  C_6
REMARK    7  A    between atoms: C_6  and  C_7
REMARK    8  A    between atoms: C_15  and  C_16
REMARK    9  A    between atoms: N_18  and  C_19
REMARK   10  A    between atoms: C_19  and  C_20
REMARK   11  A    between atoms: C_19  and  C_21
REMARK                            x       y       z     vdW  Elec       q    Type
REMARK                         _______ _______ _______ _____ _____    ______ ____
ROOT
ATOM      1  C   UNL     1       4.357   4.597  16.656  0.00  0.00    +0.000 C 
ATOM      2  C   UNL     1       4.969   3.651  17.712  0.00  0.00    +0.000 C 
ATOM      3  O   UNL     1       4.006   3.196  18.664  0.00  0.00    +0.000 OA
ATOM      4  C   UNL     1       3.269   4.184  19.249  0.00  0.00    +0.000 A 
ATOM      5  C   UNL     1       2.593   3.790  20.405  0.00  0.00    +0.000 A 
ATOM      6  C   UNL     1       1.816   4.699  21.107  0.00  0.00    +0.000 A 
ATOM      7  C   UNL     1       1.717   6.009  20.645  0.00  0.00    +0.000 A 
ATOM      8  C   UNL     1       2.358   6.408  19.458  0.00  0.00    +0.000 A 
ATOM      9  C   UNL     1       3.145   5.480  18.736  0.00  0.00    +0.000 A 
ATOM     10  C   UNL     1       3.865   5.839  17.454  0.00  0.00    +0.000 C 
ENDROOT
BRANCH   8  11
ATOM     11  C   UNL     1       2.202   7.838  19.024  0.00  0.00    +0.000 C 
ATOM     12  O   UNL     1       2.836   8.295  18.083  0.00  0.00    +0.000 OA
ATOM     13  N   UNL     1       1.308   8.580  19.777  0.00  0.00    +0.000 N 
ATOM     14  H   UNL     1       0.660   8.087  20.375  0.00  0.00    +0.000 HD
BRANCH  13  15
ATOM     15  C   UNL     1       1.032   9.987  19.518  0.00  0.00    +0.000 C 
ATOM     16  C   UNL     1      -0.097  10.127  18.502  0.00  0.00    +0.000 C 
ATOM     17  C   UNL     1       0.670  10.690  20.825  0.00  0.00    +0.000 C 
ENDBRANCH  13  15
ENDBRANCH   8  11
BRANCH   1  18
ATOM     18  N   UNL     1       5.270   4.990  15.551  0.00  0.00    +0.000 NA
BRANCH  18  19
ATOM     19  C   UNL     1       5.995   3.876  14.912  0.00  0.00    +0.000 C 
BRANCH  19  21
ATOM     20  C   UNL     1       5.792   3.274  12.402  0.00  0.00    +0.000 C 
ATOM     21  C   UNL     1       6.541   4.040  13.479  0.00  0.00    +0.000 C 
ENDBRANCH  19  21
ENDBRANCH  18  19
BRANCH  18  22
ATOM     22  C   UNL     1       6.098   6.184  15.767  0.00  0.00    +0.000 C 
BRANCH  22  23
ATOM     23  C   UNL     1       7.275   5.950  16.729  0.00  0.00    +0.000 C 
ATOM     24  C   UNL     1       7.507   7.137  17.659  0.00  0.00    +0.000 C 
ENDBRANCH  22  23
ENDBRANCH  18  22
ENDBRANCH   1  18
TORSDOF 7
ENDMDL
