MODEL 1
REMARK VINA RESULT:      -7.9      0.000      0.000
REMARK  Name = 
REMARK  11 active torsions:
REMARK  status: ('A' for Active; 'I' for Inactive)
REMARK    1  A    between atoms: C_1  and  O_2
REMARK    2  A    between atoms: O_2  and  C_3
REMARK    3  A    between atoms: C_3  and  C_5
REMARK    4  A    between atoms: C_5  and  C_6
REMARK    5  A    between atoms: C_6  and  C_7
REMARK    6  A    between atoms: C_7  and  O_8
REMARK    7  A    between atoms: C_7  and  C_28
REMARK    8  A    between atoms: O_8  and  C_9
REMARK    9  A    between atoms: C_13  and  C_14
REMARK   10  A    between atoms: C_18  and  C_19
REMARK   11  A    between atoms: C_23  and  C_24
REMARK                            x       y       z     vdW  Elec       q    Type
REMARK                         _______ _______ _______ _____ _____    ______ ____
ROOT
ATOM      1  C   UNL     1       5.401   5.479  18.522  0.00  0.00    +0.000 C 
ATOM      2  O   UNL     1       4.816   5.005  19.804  0.00  0.00    +0.000 OA
ATOM      3  C   UNL     1       3.338   5.196  19.942  0.00  0.00    +0.000 C 
ATOM      4  O   UNL     1       2.674   4.627  21.106  0.00  0.00    +0.000 OA
ATOM      5  C   UNL     1       1.289   3.937  20.847  0.00  0.00    +0.000 C 
ATOM      6  C   UNL     1       0.598   2.703  19.851  0.00  0.00    +0.000 C 
ATOM      7  C   UNL     1       1.436   3.033  21.996  0.00  0.00    +0.000 C 
ATOM      8  C   UNL     1       2.688   2.249  21.368  0.00  0.00    +0.000 C 
ATOM      9  C   UNL     1       3.209   2.754  19.756  0.00  0.00    +0.000 C 
ATOM     10  C   UNL     1       3.542   1.596  18.818  0.00  0.00    +0.000 C 
ATOM     11  C   UNL     1       4.588   0.677  19.497  0.00  0.00    +0.000 C 
ATOM     12  C   UNL     1       4.097   2.126  17.487  0.00  0.00    +0.000 C 
ATOM     13  C   UNL     1       3.250   3.214  16.821  0.00  0.00    +0.000 C 
ATOM     14  C   UNL     1       3.158   4.558  17.564  0.00  0.00    +0.000 C 
ATOM     15  C   UNL     1       4.320   5.576  17.467  0.00  0.00    +0.000 C 
ATOM     16  C   UNL     1       3.980   7.080  17.432  0.00  0.00    +0.000 C 
ATOM     17  C   UNL     1       2.692   4.299  18.970  0.00  0.00    +0.000 C 
ATOM     18  O   UNL     1       1.264   4.825  18.880  0.00  0.00    +0.000 OA
ATOM     19  O   UNL     1       0.647   4.975  20.244  0.00  0.00    +0.000 OA
ENDROOT
BRANCH   1  20
ATOM     20  O   UNL     1       6.521   4.769  17.904  0.00  0.00    +0.000 OA
BRANCH  20  21
ATOM     21  C   UNL     1       7.315   5.451  16.830  0.00  0.00    +0.000 C 
BRANCH  21  22
ATOM     22  C   UNL     1       7.108   5.017  15.314  0.00  0.00    +0.000 A 
ATOM     23  C   UNL     1       6.164   4.035  14.898  0.00  0.00    +0.000 A 
ATOM     24  C   UNL     1       5.984   3.673  13.546  0.00  0.00    +0.000 A 
ATOM     25  C   UNL     1       6.788   4.246  12.583  0.00  0.00    +0.000 A 
ATOM     26  F   UNL     1       6.677   3.843  11.304  0.00  0.00    +0.000 F 
ATOM     27  C   UNL     1       7.744   5.183  12.924  0.00  0.00    +0.000 A 
ATOM     28  C   UNL     1       7.886   5.585  14.286  0.00  0.00    +0.000 A 
ENDBRANCH  21  22
BRANCH  21  29
ATOM     29  C   UNL     1       7.373   7.014  16.943  0.00  0.00    +0.000 C 
BRANCH  29  30
ATOM     30  C   UNL     1       8.063   7.630  18.154  0.00  0.00    +0.000 C 
BRANCH  30  31
ATOM     31  C   UNL     1       8.298   9.113  18.188  0.00  0.00    +0.000 C 
ATOM     32  O   UNL     1       7.651   9.883  17.498  0.00  0.00    +0.000 OA
BRANCH  31  34
ATOM     33  C   UNL     1       9.597  10.848  18.993  0.00  0.00    +0.000 C 
ATOM     34  O   UNL     1       9.254   9.469  19.076  0.00  0.00    +0.000 OA
ENDBRANCH  31  34
ENDBRANCH  30  31
ENDBRANCH  29  30
ENDBRANCH  21  29
ENDBRANCH  20  21
ENDBRANCH   1  20
TORSDOF 7
ENDMDL
MODEL 2
REMARK VINA RESULT:      -7.4      1.400      1.974
REMARK  Name = 
REMARK  11 active torsions:
REMARK  status: ('A' for Active; 'I' for Inactive)
REMARK    1  A    between atoms: C_1  and  O_2
REMARK    2  A    between atoms: O_2  and  C_3
REMARK    3  A    between atoms: C_3  and  C_5
REMARK    4  A    between atoms: C_5  and  C_6
REMARK    5  A    between atoms: C_6  and  C_7
REMARK    6  A    between atoms: C_7  and  O_8
REMARK    7  A    between atoms: C_7  and  C_28
REMARK    8  A    between atoms: O_8  and  C_9
REMARK    9  A    between atoms: C_13  and  C_14
REMARK   10  A    between atoms: C_18  and  C_19
REMARK   11  A    between atoms: C_23  and  C_24
REMARK                            x       y       z     vdW  Elec       q    Type
REMARK                         _______ _______ _______ _____ _____    ______ ____
ROOT
ATOM      1  C   UNL     1       4.160   6.538  17.967  0.00  0.00    +0.000 C 
ATOM      2  O   UNL     1       4.383   5.608  19.105  0.00  0.00    +0.000 OA
ATOM      3  C   UNL     1       3.218   5.435  20.028  0.00  0.00    +0.000 C 
ATOM      4  O   UNL     1       3.313   4.433  21.080  0.00  0.00    +0.000 OA
ATOM      5  C   UNL     1       2.030   3.567  21.333  0.00  0.00    +0.000 C 
ATOM      6  C   UNL     1       0.937   2.547  20.462  0.00  0.00    +0.000 C 
ATOM      7  C   UNL     1       2.804   2.428  21.845  0.00  0.00    +0.000 C 
ATOM      8  C   UNL     1       3.527   2.137  20.441  0.00  0.00    +0.000 C 
ATOM      9  C   UNL     1       3.068   3.175  19.087  0.00  0.00    +0.000 C 
ATOM     10  C   UNL     1       2.862   2.427  17.772  0.00  0.00    +0.000 C 
ATOM     11  C   UNL     1       4.131   1.597  17.455  0.00  0.00    +0.000 C 
ATOM     12  C   UNL     1       2.584   3.417  16.629  0.00  0.00    +0.000 C 
ATOM     13  C   UNL     1       1.485   4.443  16.915  0.00  0.00    +0.000 C 
ATOM     14  C   UNL     1       1.782   5.471  18.020  0.00  0.00    +0.000 C 
ATOM     15  C   UNL     1       2.675   6.697  17.716  0.00  0.00    +0.000 C 
ATOM     16  C   UNL     1       2.335   8.042  18.390  0.00  0.00    +0.000 C 
ATOM     17  C   UNL     1       2.167   4.732  19.273  0.00  0.00    +0.000 C 
ATOM     18  O   UNL     1       0.911   4.948  20.108  0.00  0.00    +0.000 OA
ATOM     19  O   UNL     1       1.138   4.572  21.548  0.00  0.00    +0.000 OA
ENDROOT
BRANCH   1  20
ATOM     20  O   UNL     1       4.775   6.286  16.664  0.00  0.00    +0.000 OA
BRANCH  20  21
ATOM     21  C   UNL     1       5.363   4.935  16.383  0.00  0.00    +0.000 C 
BRANCH  21  22
ATOM     22  C   UNL     1       5.931   4.621  14.930  0.00  0.00    +0.000 A 
ATOM     23  C   UNL     1       5.312   3.715  14.022  0.00  0.00    +0.000 A 
ATOM     24  C   UNL     1       5.823   3.459  12.731  0.00  0.00    +0.000 A 
ATOM     25  C   UNL     1       6.999   4.063  12.341  0.00  0.00    +0.000 A 
ATOM     26  F   UNL     1       7.534   3.759  11.144  0.00  0.00    +0.000 F 
ATOM     27  C   UNL     1       7.665   4.930  13.186  0.00  0.00    +0.000 A 
ATOM     28  C   UNL     1       7.117   5.226  14.471  0.00  0.00    +0.000 A 
ENDBRANCH  21  22
BRANCH  21  29
ATOM     29  C   UNL     1       6.352   4.404  17.477  0.00  0.00    +0.000 C 
BRANCH  29  30
ATOM     30  C   UNL     1       7.646   5.169  17.720  0.00  0.00    +0.000 C 
BRANCH  30  31
ATOM     31  C   UNL     1       7.811   5.944  18.995  0.00  0.00    +0.000 C 
ATOM     32  O   UNL     1       7.554   5.456  20.083  0.00  0.00    +0.000 OA
BRANCH  31  34
ATOM     33  C   UNL     1       7.763   7.805  17.623  0.00  0.00    +0.000 C 
ATOM     34  O   UNL     1       8.299   7.189  18.790  0.00  0.00    +0.000 OA
ENDBRANCH  31  34
ENDBRANCH  30  31
ENDBRANCH  29  30
ENDBRANCH  21  29
ENDBRANCH  20  21
ENDBRANCH   1  20
TORSDOF 7
ENDMDL
MODEL 3
REMARK VINA RESULT:      -7.2      9.961     12.381
REMARK  Name = 
REMARK  11 active torsions:
REMARK  status: ('A' for Active; 'I' for Inactive)
REMARK    1  A    between atoms: C_1  and  O_2
REMARK    2  A    between atoms: O_2  and  C_3
REMARK    3  A    between atoms: C_3  and  C_5
REMARK    4  A    between atoms: C_5  and  C_6
REMARK    5  A    between atoms: C_6  and  C_7
REMARK    6  A    between atoms: C_7  and  O_8
REMARK    7  A    between atoms: C_7  and  C_28
REMARK    8  A    between atoms: O_8  and  C_9
REMARK    9  A    between atoms: C_13  and  C_14
REMARK   10  A    between atoms: C_18  and  C_19
REMARK   11  A    between atoms: C_23  and  C_24
REMARK                            x       y       z     vdW  Elec       q    Type
REMARK                         _______ _______ _______ _____ _____    ______ ____
ROOT
ATOM      1  C   UNL     1      -2.777  12.596  21.666  0.00  0.00    +0.000 C 
ATOM      2  O   UNL     1      -3.815  12.399  22.711  0.00  0.00    +0.000 OA
ATOM      3  C   UNL     1      -4.483  13.648  23.193  0.00  0.00    +0.000 C 
ATOM      4  O   UNL     1      -5.608  13.521  24.109  0.00  0.00    +0.000 OA
ATOM      5  C   UNL     1      -6.827  14.473  23.849  0.00  0.00    +0.000 C 
ATOM      6  C   UNL     1      -7.916  14.901  22.574  0.00  0.00    +0.000 C 
ATOM      7  C   UNL     1      -7.786  13.540  24.456  0.00  0.00    +0.000 C 
ATOM      8  C   UNL     1      -7.581  12.413  23.332  0.00  0.00    +0.000 C 
ATOM      9  C   UNL     1      -6.463  12.800  22.019  0.00  0.00    +0.000 C 
ATOM     10  C   UNL     1      -6.962  12.393  20.636  0.00  0.00    +0.000 C 
ATOM     11  C   UNL     1      -7.329  10.888  20.651  0.00  0.00    +0.000 C 
ATOM     12  C   UNL     1      -5.881  12.657  19.575  0.00  0.00    +0.000 C 
ATOM     13  C   UNL     1      -5.277  14.063  19.605  0.00  0.00    +0.000 C 
ATOM     14  C   UNL     1      -4.448  14.423  20.850  0.00  0.00    +0.000 C 
ATOM     15  C   UNL     1      -2.987  13.927  20.975  0.00  0.00    +0.000 C 
ATOM     16  C   UNL     1      -1.951  14.851  21.645  0.00  0.00    +0.000 C 
ATOM     17  C   UNL     1      -5.284  14.171  22.074  0.00  0.00    +0.000 C 
ATOM     18  O   UNL     1      -5.595  15.605  22.486  0.00  0.00    +0.000 OA
ATOM     19  O   UNL     1      -6.171  15.665  23.875  0.00  0.00    +0.000 OA
ENDROOT
BRANCH   1  20
ATOM     20  O   UNL     1      -2.585  11.606  20.606  0.00  0.00    +0.000 OA
BRANCH  20  21
ATOM     21  C   UNL     1      -1.330  11.646  19.787  0.00  0.00    +0.000 C 
BRANCH  21  22
ATOM     22  C   UNL     1      -0.298  10.439  19.885  0.00  0.00    +0.000 A 
ATOM     23  C   UNL     1      -0.099   9.668  21.066  0.00  0.00    +0.000 A 
ATOM     24  C   UNL     1       0.812   8.592  21.130  0.00  0.00    +0.000 A 
ATOM     25  C   UNL     1       1.588   8.300  20.029  0.00  0.00    +0.000 A 
ATOM     26  F   UNL     1       2.516   7.329  20.112  0.00  0.00    +0.000 F 
ATOM     27  C   UNL     1       1.466   9.030  18.862  0.00  0.00    +0.000 A 
ATOM     28  C   UNL     1       0.505  10.083  18.784  0.00  0.00    +0.000 A 
ENDBRANCH  21  22
BRANCH  21  29
ATOM     29  C   UNL     1      -1.532  12.064  18.289  0.00  0.00    +0.000 C 
BRANCH  29  30
ATOM     30  C   UNL     1      -2.795  11.605  17.570  0.00  0.00    +0.000 C 
BRANCH  30  31
ATOM     31  C   UNL     1      -2.879  10.193  17.066  0.00  0.00    +0.000 C 
ATOM     32  O   UNL     1      -3.409   9.308  17.717  0.00  0.00    +0.000 OA
BRANCH  31  34
ATOM     33  C   UNL     1      -3.290  10.305  14.793  0.00  0.00    +0.000 C 
ATOM     34  O   UNL     1      -2.349  10.048  15.831  0.00  0.00    +0.000 OA
ENDBRANCH  31  34
ENDBRANCH  30  31
ENDBRANCH  29  30
ENDBRANCH  21  29
ENDBRANCH  20  21
ENDBRANCH   1  20
TORSDOF 7
ENDMDL
MODEL 4
REMARK VINA RESULT:      -7.1     10.534     13.489
REMARK  Name = 
REMARK  11 active torsions:
REMARK  status: ('A' for Active; 'I' for Inactive)
REMARK    1  A    between atoms: C_1  and  O_2
REMARK    2  A    between atoms: O_2  and  C_3
REMARK    3  A    between atoms: C_3  and  C_5
REMARK    4  A    between atoms: C_5  and  C_6
REMARK    5  A    between atoms: C_6  and  C_7
REMARK    6  A    between atoms: C_7  and  O_8
REMARK    7  A    between atoms: C_7  and  C_28
REMARK    8  A    between atoms: O_8  and  C_9
REMARK    9  A    between atoms: C_13  and  C_14
REMARK   10  A    between atoms: C_18  and  C_19
REMARK   11  A    between atoms: C_23  and  C_24
REMARK                            x       y       z     vdW  Elec       q    Type
REMARK                         _______ _______ _______ _____ _____    ______ ____
ROOT
ATOM      1  C   UNL     1      -4.871  13.818  20.866  0.00  0.00    +0.000 C 
ATOM      2  O   UNL     1      -3.626  14.630  20.862  0.00  0.00    +0.000 OA
ATOM      3  C   UNL     1      -3.506  15.622  21.976  0.00  0.00    +0.000 C 
ATOM      4  O   UNL     1      -2.253  16.350  22.120  0.00  0.00    +0.000 OA
ATOM      5  C   UNL     1      -1.723  16.536  23.584  0.00  0.00    +0.000 C 
ATOM      6  C   UNL     1      -1.326  15.584  24.973  0.00  0.00    +0.000 C 
ATOM      7  C   UNL     1      -0.322  16.621  23.150  0.00  0.00    +0.000 C 
ATOM      8  C   UNL     1      -0.272  15.107  22.620  0.00  0.00    +0.000 C 
ATOM      9  C   UNL     1      -1.741  14.148  22.829  0.00  0.00    +0.000 C 
ATOM     10  C   UNL     1      -1.491  12.723  23.316  0.00  0.00    +0.000 C 
ATOM     11  C   UNL     1      -0.484  12.030  22.362  0.00  0.00    +0.000 C 
ATOM     12  C   UNL     1      -2.807  11.929  23.354  0.00  0.00    +0.000 C 
ATOM     13  C   UNL     1      -3.957  12.621  24.089  0.00  0.00    +0.000 C 
ATOM     14  C   UNL     1      -4.502  13.907  23.446  0.00  0.00    +0.000 C 
ATOM     15  C   UNL     1      -5.483  13.819  22.252  0.00  0.00    +0.000 C 
ATOM     16  C   UNL     1      -6.613  14.863  22.148  0.00  0.00    +0.000 C 
ATOM     17  C   UNL     1      -3.357  14.857  23.225  0.00  0.00    +0.000 C 
ATOM     18  O   UNL     1      -3.644  15.881  24.317  0.00  0.00    +0.000 OA
ATOM     19  O   UNL     1      -2.820  17.126  24.132  0.00  0.00    +0.000 OA
ENDROOT
BRANCH   1  20
ATOM     20  O   UNL     1      -4.856  12.424  20.423  0.00  0.00    +0.000 OA
BRANCH  20  21
ATOM     21  C   UNL     1      -4.581  12.118  18.981  0.00  0.00    +0.000 C 
BRANCH  21  22
ATOM     22  C   UNL     1      -3.222  11.392  18.584  0.00  0.00    +0.000 A 
ATOM     23  C   UNL     1      -1.965  11.693  19.183  0.00  0.00    +0.000 A 
ATOM     24  C   UNL     1      -0.772  11.028  18.827  0.00  0.00    +0.000 A 
ATOM     25  C   UNL     1      -0.800  10.086  17.821  0.00  0.00    +0.000 A 
ATOM     26  F   UNL     1       0.349   9.510  17.422  0.00  0.00    +0.000 F 
ATOM     27  C   UNL     1      -1.982   9.770  17.178  0.00  0.00    +0.000 A 
ATOM     28  C   UNL     1      -3.196  10.407  17.578  0.00  0.00    +0.000 A 
ENDBRANCH  21  22
BRANCH  21  29
ATOM     29  C   UNL     1      -5.783  11.482  18.200  0.00  0.00    +0.000 C 
BRANCH  29  30
ATOM     30  C   UNL     1      -6.600  10.394  18.885  0.00  0.00    +0.000 C 
BRANCH  30  31
ATOM     31  C   UNL     1      -7.371  10.729  20.129  0.00  0.00    +0.000 C 
ATOM     32  O   UNL     1      -7.899  11.817  20.285  0.00  0.00    +0.000 OA
BRANCH  31  34
ATOM     33  C   UNL     1      -7.428   8.427  20.349  0.00  0.00    +0.000 C 
ATOM     34  O   UNL     1      -7.433   9.695  20.999  0.00  0.00    +0.000 OA
ENDBRANCH  31  34
ENDBRANCH  30  31
ENDBRANCH  29  30
ENDBRANCH  21  29
ENDBRANCH  20  21
ENDBRANCH   1  20
TORSDOF 7
ENDMDL
MODEL 5
REMARK VINA RESULT:      -7.1      8.185     11.504
REMARK  Name = 
REMARK  11 active torsions:
REMARK  status: ('A' for Active; 'I' for Inactive)
REMARK    1  A    between atoms: C_1  and  O_2
REMARK    2  A    between atoms: O_2  and  C_3
REMARK    3  A    between atoms: C_3  and  C_5
REMARK    4  A    between atoms: C_5  and  C_6
REMARK    5  A    between atoms: C_6  and  C_7
REMARK    6  A    between atoms: C_7  and  O_8
REMARK    7  A    between atoms: C_7  and  C_28
REMARK    8  A    between atoms: O_8  and  C_9
REMARK    9  A    between atoms: C_13  and  C_14
REMARK   10  A    between atoms: C_18  and  C_19
REMARK   11  A    between atoms: C_23  and  C_24
REMARK                            x       y       z     vdW  Elec       q    Type
REMARK                         _______ _______ _______ _____ _____    ______ ____
ROOT
ATOM      1  C   UNL     1      -0.092  12.892  19.188  0.00  0.00    +0.000 C 
ATOM      2  O   UNL     1      -0.079  14.106  18.331  0.00  0.00    +0.000 OA
ATOM      3  C   UNL     1      -0.460  15.379  19.019  0.00  0.00    +0.000 C 
ATOM      4  O   UNL     1      -0.330  16.628  18.281  0.00  0.00    +0.000 OA
ATOM      5  C   UNL     1       0.253  17.848  19.076  0.00  0.00    +0.000 C 
ATOM      6  C   UNL     1       1.644  18.263  20.017  0.00  0.00    +0.000 C 
ATOM      7  C   UNL     1       0.791  18.481  17.864  0.00  0.00    +0.000 C 
ATOM      8  C   UNL     1       1.854  17.311  17.583  0.00  0.00    +0.000 C 
ATOM      9  C   UNL     1       1.902  15.989  18.755  0.00  0.00    +0.000 C 
ATOM     10  C   UNL     1       3.312  15.544  19.133  0.00  0.00    +0.000 C 
ATOM     11  C   UNL     1       4.098  15.196  17.844  0.00  0.00    +0.000 C 
ATOM     12  C   UNL     1       3.258  14.318  20.060  0.00  0.00    +0.000 C 
ATOM     13  C   UNL     1       2.329  14.462  21.268  0.00  0.00    +0.000 C 
ATOM     14  C   UNL     1       0.825  14.567  20.964  0.00  0.00    +0.000 C 
ATOM     15  C   UNL     1       0.010  13.290  20.646  0.00  0.00    +0.000 C 
ATOM     16  C   UNL     1      -1.445  13.200  21.149  0.00  0.00    +0.000 C 
ATOM     17  C   UNL     1       0.609  15.687  19.984  0.00  0.00    +0.000 C 
ATOM     18  O   UNL     1      -0.017  16.729  20.902  0.00  0.00    +0.000 OA
ATOM     19  O   UNL     1      -0.625  17.859  20.115  0.00  0.00    +0.000 OA
ENDROOT
BRANCH   1  20
ATOM     20  O   UNL     1       0.883  11.821  18.983  0.00  0.00    +0.000 OA
BRANCH  20  21
ATOM     21  C   UNL     1       0.416  10.499  18.451  0.00  0.00    +0.000 C 
BRANCH  21  22
ATOM     22  C   UNL     1       1.259   9.189  18.774  0.00  0.00    +0.000 A 
ATOM     23  C   UNL     1       2.043   8.498  17.806  0.00  0.00    +0.000 A 
ATOM     24  C   UNL     1       2.795   7.344  18.116  0.00  0.00    +0.000 A 
ATOM     25  C   UNL     1       2.733   6.822  19.390  0.00  0.00    +0.000 A 
ATOM     26  F   UNL     1       3.382   5.676  19.667  0.00  0.00    +0.000 F 
ATOM     27  C   UNL     1       1.966   7.427  20.368  0.00  0.00    +0.000 A 
ATOM     28  C   UNL     1       1.249   8.624  20.065  0.00  0.00    +0.000 A 
ENDBRANCH  21  22
BRANCH  21  29
ATOM     29  C   UNL     1      -1.115  10.217  18.633  0.00  0.00    +0.000 C 
BRANCH  29  30
ATOM     30  C   UNL     1      -1.986  10.101  17.389  0.00  0.00    +0.000 C 
BRANCH  30  31
ATOM     31  C   UNL     1      -3.189  10.988  17.250  0.00  0.00    +0.000 C 
ATOM     32  O   UNL     1      -3.472  11.824  18.091  0.00  0.00    +0.000 OA
BRANCH  31  34
ATOM     33  C   UNL     1      -3.008  10.435  15.011  0.00  0.00    +0.000 C 
ATOM     34  O   UNL     1      -3.865  10.774  16.098  0.00  0.00    +0.000 OA
ENDBRANCH  31  34
ENDBRANCH  30  31
ENDBRANCH  29  30
ENDBRANCH  21  29
ENDBRANCH  20  21
ENDBRANCH   1  20
TORSDOF 7
ENDMDL
MODEL 6
REMARK VINA RESULT:      -7.1      9.569     11.734
REMARK  Name = 
REMARK  11 active torsions:
REMARK  status: ('A' for Active; 'I' for Inactive)
REMARK    1  A    between atoms: C_1  and  O_2
REMARK    2  A    between atoms: O_2  and  C_3
REMARK    3  A    between atoms: C_3  and  C_5
REMARK    4  A    between atoms: C_5  and  C_6
REMARK    5  A    between atoms: C_6  and  C_7
REMARK    6  A    between atoms: C_7  and  O_8
REMARK    7  A    between atoms: C_7  and  C_28
REMARK    8  A    between atoms: O_8  and  C_9
REMARK    9  A    between atoms: C_13  and  C_14
REMARK   10  A    between atoms: C_18  and  C_19
REMARK   11  A    between atoms: C_23  and  C_24
REMARK                            x       y       z     vdW  Elec       q    Type
REMARK                         _______ _______ _______ _____ _____    ______ ____
ROOT
ATOM      1  C   UNL     1      -0.729  12.695  21.149  0.00  0.00    +0.000 C 
ATOM      2  O   UNL     1      -0.542  13.204  22.533  0.00  0.00    +0.000 OA
ATOM      3  C   UNL     1      -0.579  14.693  22.676  0.00  0.00    +0.000 C 
ATOM      4  O   UNL     1      -0.547  15.259  24.018  0.00  0.00    +0.000 OA
ATOM      5  C   UNL     1      -1.507  16.470  24.285  0.00  0.00    +0.000 C 
ATOM      6  C   UNL     1      -3.183  16.876  24.155  0.00  0.00    +0.000 C 
ATOM      7  C   UNL     1      -1.612  16.174  25.720  0.00  0.00    +0.000 C 
ATOM      8  C   UNL     1      -2.366  14.775  25.494  0.00  0.00    +0.000 C 
ATOM      9  C   UNL     1      -2.717  14.326  23.821  0.00  0.00    +0.000 C 
ATOM     10  C   UNL     1      -4.113  13.746  23.612  0.00  0.00    +0.000 C 
ATOM     11  C   UNL     1      -4.318  12.554  24.580  0.00  0.00    +0.000 C 
ATOM     12  C   UNL     1      -4.287  13.276  22.159  0.00  0.00    +0.000 C 
ATOM     13  C   UNL     1      -3.900  14.307  21.096  0.00  0.00    +0.000 C 
ATOM     14  C   UNL     1      -2.410  14.684  21.021  0.00  0.00    +0.000 C 
ATOM     15  C   UNL     1      -1.411  13.748  20.300  0.00  0.00    +0.000 C 
ATOM     16  C   UNL     1      -0.250  14.381  19.506  0.00  0.00    +0.000 C 
ATOM     17  C   UNL     1      -1.957  15.124  22.386  0.00  0.00    +0.000 C 
ATOM     18  O   UNL     1      -1.831  16.625  22.156  0.00  0.00    +0.000 OA
ATOM     19  O   UNL     1      -1.089  17.292  23.283  0.00  0.00    +0.000 OA
ENDROOT
BRANCH   1  20
ATOM     20  O   UNL     1      -1.442  11.441  20.904  0.00  0.00    +0.000 OA
BRANCH  20  21
ATOM     21  C   UNL     1      -1.058  10.600  19.724  0.00  0.00    +0.000 C 
BRANCH  21  22
ATOM     22  C   UNL     1      -1.960  10.639  18.413  0.00  0.00    +0.000 A 
ATOM     23  C   UNL     1      -3.167  11.388  18.310  0.00  0.00    +0.000 A 
ATOM     24  C   UNL     1      -3.946  11.421  17.135  0.00  0.00    +0.000 A 
ATOM     25  C   UNL     1      -3.565  10.658  16.052  0.00  0.00    +0.000 A 
ATOM     26  F   UNL     1      -4.349  10.622  14.959  0.00  0.00    +0.000 F 
ATOM     27  C   UNL     1      -2.420   9.885  16.098  0.00  0.00    +0.000 A 
ATOM     28  C   UNL     1      -1.606   9.895  17.270  0.00  0.00    +0.000 A 
ENDBRANCH  21  22
BRANCH  21  29
ATOM     29  C   UNL     1       0.461  10.658  19.337  0.00  0.00    +0.000 C 
BRANCH  29  30
ATOM     30  C   UNL     1       1.317   9.420  19.567  0.00  0.00    +0.000 C 
BRANCH  30  31
ATOM     31  C   UNL     1       1.951   8.738  18.389  0.00  0.00    +0.000 C 
ATOM     32  O   UNL     1       2.080   9.299  17.313  0.00  0.00    +0.000 OA
BRANCH  31  34
ATOM     33  C   UNL     1       3.423   7.049  17.816  0.00  0.00    +0.000 C 
ATOM     34  O   UNL     1       2.377   7.487  18.677  0.00  0.00    +0.000 OA
ENDBRANCH  31  34
ENDBRANCH  30  31
ENDBRANCH  29  30
ENDBRANCH  21  29
ENDBRANCH  20  21
ENDBRANCH   1  20
TORSDOF 7
ENDMDL
MODEL 7
REMARK VINA RESULT:      -7.1      9.313     11.646
REMARK  Name = 
REMARK  11 active torsions:
REMARK  status: ('A' for Active; 'I' for Inactive)
REMARK    1  A    between atoms: C_1  and  O_2
REMARK    2  A    between atoms: O_2  and  C_3
REMARK    3  A    between atoms: C_3  and  C_5
REMARK    4  A    between atoms: C_5  and  C_6
REMARK    5  A    between atoms: C_6  and  C_7
REMARK    6  A    between atoms: C_7  and  O_8
REMARK    7  A    between atoms: C_7  and  C_28
REMARK    8  A    between atoms: O_8  and  C_9
REMARK    9  A    between atoms: C_13  and  C_14
REMARK   10  A    between atoms: C_18  and  C_19
REMARK   11  A    between atoms: C_23  and  C_24
REMARK                            x       y       z     vdW  Elec       q    Type
REMARK                         _______ _______ _______ _____ _____    ______ ____
ROOT
ATOM      1  C   UNL     1       0.070  12.959  21.429  0.00  0.00    +0.000 C 
ATOM      2  O   UNL     1      -0.019  13.545  22.792  0.00  0.00    +0.000 OA
ATOM      3  C   UNL     1      -0.265  15.020  22.839  0.00  0.00    +0.000 C 
ATOM      4  O   UNL     1      -0.508  15.639  24.134  0.00  0.00    +0.000 OA
ATOM      5  C   UNL     1      -1.642  16.721  24.186  0.00  0.00    +0.000 C 
ATOM      6  C   UNL     1      -3.318  16.894  23.793  0.00  0.00    +0.000 C 
ATOM      7  C   UNL     1      -1.923  16.472  25.607  0.00  0.00    +0.000 C 
ATOM      8  C   UNL     1      -2.452  14.977  25.360  0.00  0.00    +0.000 C 
ATOM      9  C   UNL     1      -2.487  14.417  23.684  0.00  0.00    +0.000 C 
ATOM     10  C   UNL     1      -3.752  13.648  23.311  0.00  0.00    +0.000 C 
ATOM     11  C   UNL     1      -3.948  12.479  24.310  0.00  0.00    +0.000 C 
ATOM     12  C   UNL     1      -3.644  13.099  21.879  0.00  0.00    +0.000 C 
ATOM     13  C   UNL     1      -3.234  14.128  20.823  0.00  0.00    +0.000 C 
ATOM     14  C   UNL     1      -1.811  14.698  20.941  0.00  0.00    +0.000 C 
ATOM     15  C   UNL     1      -0.604  13.875  20.428  0.00  0.00    +0.000 C 
ATOM     16  C   UNL     1       0.574  14.625  19.773  0.00  0.00    +0.000 C 
ATOM     17  C   UNL     1      -1.627  15.250  22.328  0.00  0.00    +0.000 C 
ATOM     18  O   UNL     1      -1.659  16.743  22.028  0.00  0.00    +0.000 OA
ATOM     19  O   UNL     1      -1.186  17.550  23.208  0.00  0.00    +0.000 OA
ENDROOT
BRANCH   1  20
ATOM     20  O   UNL     1      -0.434  11.612  21.160  0.00  0.00    +0.000 OA
BRANCH  20  21
ATOM     21  C   UNL     1      -0.381  11.078  19.760  0.00  0.00    +0.000 C 
BRANCH  21  22
ATOM     22  C   UNL     1       0.585   9.857  19.428  0.00  0.00    +0.000 A 
ATOM     23  C   UNL     1       1.010   8.905  20.398  0.00  0.00    +0.000 A 
ATOM     24  C   UNL     1       1.856   7.820  20.082  0.00  0.00    +0.000 A 
ATOM     25  C   UNL     1       2.343   7.698  18.798  0.00  0.00    +0.000 A 
ATOM     26  F   UNL     1       3.216   6.714  18.512  0.00  0.00    +0.000 F 
ATOM     27  C   UNL     1       1.993   8.606  17.817  0.00  0.00    +0.000 A 
ATOM     28  C   UNL     1       1.094   9.671  18.128  0.00  0.00    +0.000 A 
ENDBRANCH  21  22
BRANCH  21  29
ATOM     29  C   UNL     1      -1.779  10.861  19.082  0.00  0.00    +0.000 C 
BRANCH  29  30
ATOM     30  C   UNL     1      -2.015  11.453  17.699  0.00  0.00    +0.000 C 
BRANCH  30  31
ATOM     31  C   UNL     1      -2.318  10.535  16.550  0.00  0.00    +0.000 C 
ATOM     32  O   UNL     1      -1.980   9.363  16.557  0.00  0.00    +0.000 OA
BRANCH  31  34
ATOM     33  C   UNL     1      -3.387  10.251  14.519  0.00  0.00    +0.000 C 
ATOM     34  O   UNL     1      -3.019  11.143  15.567  0.00  0.00    +0.000 OA
ENDBRANCH  31  34
ENDBRANCH  30  31
ENDBRANCH  29  30
ENDBRANCH  21  29
ENDBRANCH  20  21
ENDBRANCH   1  20
TORSDOF 7
ENDMDL
MODEL 8
REMARK VINA RESULT:      -7.1      9.152     11.735
REMARK  Name = 
REMARK  11 active torsions:
REMARK  status: ('A' for Active; 'I' for Inactive)
REMARK    1  A    between atoms: C_1  and  O_2
REMARK    2  A    between atoms: O_2  and  C_3
REMARK    3  A    between atoms: C_3  and  C_5
REMARK    4  A    between atoms: C_5  and  C_6
REMARK    5  A    between atoms: C_6  and  C_7
REMARK    6  A    between atoms: C_7  and  O_8
REMARK    7  A    between atoms: C_7  and  C_28
REMARK    8  A    between atoms: O_8  and  C_9
REMARK    9  A    between atoms: C_13  and  C_14
REMARK   10  A    between atoms: C_18  and  C_19
REMARK   11  A    between atoms: C_23  and  C_24
REMARK                            x       y       z     vdW  Elec       q    Type
REMARK                         _______ _______ _______ _____ _____    ______ ____
ROOT
ATOM      1  C   UNL     1      -1.321  11.926  21.141  0.00  0.00    +0.000 C 
ATOM      2  O   UNL     1      -2.689  12.451  20.892  0.00  0.00    +0.000 OA
ATOM      3  C   UNL     1      -3.566  12.550  22.100  0.00  0.00    +0.000 C 
ATOM      4  O   UNL     1      -4.867  13.188  21.959  0.00  0.00    +0.000 OA
ATOM      5  C   UNL     1      -5.299  14.150  23.121  0.00  0.00    +0.000 C 
ATOM      6  C   UNL     1      -4.712  15.539  23.968  0.00  0.00    +0.000 C 
ATOM      7  C   UNL     1      -6.157  14.956  22.241  0.00  0.00    +0.000 C 
ATOM      8  C   UNL     1      -4.934  15.502  21.355  0.00  0.00    +0.000 C 
ATOM      9  C   UNL     1      -3.316  14.975  21.832  0.00  0.00    +0.000 C 
ATOM     10  C   UNL     1      -2.268  16.084  21.804  0.00  0.00    +0.000 C 
ATOM     11  C   UNL     1      -2.266  16.747  20.404  0.00  0.00    +0.000 C 
ATOM     12  C   UNL     1      -0.874  15.513  22.115  0.00  0.00    +0.000 C 
ATOM     13  C   UNL     1      -0.798  14.646  23.373  0.00  0.00    +0.000 C 
ATOM     14  C   UNL     1      -1.569  13.316  23.333  0.00  0.00    +0.000 C 
ATOM     15  C   UNL     1      -0.964  12.092  22.603  0.00  0.00    +0.000 C 
ATOM     16  C   UNL     1      -1.201  10.689  23.196  0.00  0.00    +0.000 C 
ATOM     17  C   UNL     1      -2.999  13.600  22.963  0.00  0.00    +0.000 C 
ATOM     18  O   UNL     1      -3.674  13.372  24.310  0.00  0.00    +0.000 OA
ATOM     19  O   UNL     1      -5.170  13.287  24.165  0.00  0.00    +0.000 OA
ENDROOT
BRANCH   1  20
ATOM     20  O   UNL     1      -0.178  12.427  20.377  0.00  0.00    +0.000 OA
BRANCH  20  21
ATOM     21  C   UNL     1       0.211  11.733  19.105  0.00  0.00    +0.000 C 
BRANCH  21  22
ATOM     22  C   UNL     1       0.908  10.304  19.180  0.00  0.00    +0.000 A 
ATOM     23  C   UNL     1       1.569   9.692  18.077  0.00  0.00    +0.000 A 
ATOM     24  C   UNL     1       2.194   8.430  18.167  0.00  0.00    +0.000 A 
ATOM     25  C   UNL     1       2.120   7.724  19.349  0.00  0.00    +0.000 A 
ATOM     26  F   UNL     1       2.641   6.486  19.413  0.00  0.00    +0.000 F 
ATOM     27  C   UNL     1       1.466   8.249  20.448  0.00  0.00    +0.000 A 
ATOM     28  C   UNL     1       0.881   9.549  20.369  0.00  0.00    +0.000 A 
ENDBRANCH  21  22
BRANCH  21  29
ATOM     29  C   UNL     1      -0.885  11.743  17.985  0.00  0.00    +0.000 C 
BRANCH  29  30
ATOM     30  C   UNL     1      -1.913  10.618  17.964  0.00  0.00    +0.000 C 
BRANCH  30  31
ATOM     31  C   UNL     1      -3.033  10.667  16.966  0.00  0.00    +0.000 C 
ATOM     32  O   UNL     1      -4.184  10.413  17.277  0.00  0.00    +0.000 OA
BRANCH  31  34
ATOM     33  C   UNL     1      -3.043  10.161  14.709  0.00  0.00    +0.000 C 
ATOM     34  O   UNL     1      -2.619  11.051  15.737  0.00  0.00    +0.000 OA
ENDBRANCH  31  34
ENDBRANCH  30  31
ENDBRANCH  29  30
ENDBRANCH  21  29
ENDBRANCH  20  21
ENDBRANCH   1  20
TORSDOF 7
ENDMDL
MODEL 9
REMARK VINA RESULT:      -7.0      9.049     11.722
REMARK  Name = 
REMARK  11 active torsions:
REMARK  status: ('A' for Active; 'I' for Inactive)
REMARK    1  A    between atoms: C_1  and  O_2
REMARK    2  A    between atoms: O_2  and  C_3
REMARK    3  A    between atoms: C_3  and  C_5
REMARK    4  A    between atoms: C_5  and  C_6
REMARK    5  A    between atoms: C_6  and  C_7
REMARK    6  A    between atoms: C_7  and  O_8
REMARK    7  A    between atoms: C_7  and  C_28
REMARK    8  A    between atoms: O_8  and  C_9
REMARK    9  A    between atoms: C_13  and  C_14
REMARK   10  A    between atoms: C_18  and  C_19
REMARK   11  A    between atoms: C_23  and  C_24
REMARK                            x       y       z     vdW  Elec       q    Type
REMARK                         _______ _______ _______ _____ _____    ______ ____
ROOT
ATOM      1  C   UNL     1      -1.393  11.904  20.759  0.00  0.00    +0.000 C 
ATOM      2  O   UNL     1      -2.564  12.811  20.626  0.00  0.00    +0.000 OA
ATOM      3  C   UNL     1      -3.085  13.374  21.911  0.00  0.00    +0.000 C 
ATOM      4  O   UNL     1      -4.135  14.381  21.847  0.00  0.00    +0.000 OA
ATOM      5  C   UNL     1      -3.997  15.592  22.834  0.00  0.00    +0.000 C 
ATOM      6  C   UNL     1      -2.853  16.816  23.266  0.00  0.00    +0.000 C 
ATOM      7  C   UNL     1      -4.746  16.498  21.953  0.00  0.00    +0.000 C 
ATOM      8  C   UNL     1      -3.640  16.469  20.789  0.00  0.00    +0.000 C 
ATOM      9  C   UNL     1      -2.189  15.510  21.101  0.00  0.00    +0.000 C 
ATOM     10  C   UNL     1      -0.891  16.189  20.675  0.00  0.00    +0.000 C 
ATOM     11  C   UNL     1      -0.998  16.598  19.184  0.00  0.00    +0.000 C 
ATOM     12  C   UNL     1       0.302  15.240  20.872  0.00  0.00    +0.000 C 
ATOM     13  C   UNL     1       0.390  14.592  22.256  0.00  0.00    +0.000 C 
ATOM     14  C   UNL     1      -0.732  13.605  22.621  0.00  0.00    +0.000 C 
ATOM     15  C   UNL     1      -0.693  12.156  22.078  0.00  0.00    +0.000 C 
ATOM     16  C   UNL     1      -1.201  11.016  22.982  0.00  0.00    +0.000 C 
ATOM     17  C   UNL     1      -2.057  14.291  22.431  0.00  0.00    +0.000 C 
ATOM     18  O   UNL     1      -2.458  14.503  23.886  0.00  0.00    +0.000 OA
ATOM     19  O   UNL     1      -3.905  14.901  24.003  0.00  0.00    +0.000 OA
ENDROOT
BRANCH   1  20
ATOM     20  O   UNL     1      -0.349  11.876  19.734  0.00  0.00    +0.000 OA
BRANCH  20  21
ATOM     21  C   UNL     1      -0.329  10.752  18.742  0.00  0.00    +0.000 C 
BRANCH  21  22
ATOM     22  C   UNL     1       0.695   9.551  18.948  0.00  0.00    +0.000 A 
ATOM     23  C   UNL     1       1.467   8.985  17.893  0.00  0.00    +0.000 A 
ATOM     24  C   UNL     1       2.380   7.929  18.098  0.00  0.00    +0.000 A 
ATOM     25  C   UNL     1       2.498   7.375  19.354  0.00  0.00    +0.000 A 
ATOM     26  F   UNL     1       3.306   6.314  19.536  0.00  0.00    +0.000 F 
ATOM     27  C   UNL     1       1.755   7.857  20.415  0.00  0.00    +0.000 A 
ATOM     28  C   UNL     1       0.871   8.961  20.215  0.00  0.00    +0.000 A 
ENDBRANCH  21  22
BRANCH  21  29
ATOM     29  C   UNL     1      -1.740  10.198  18.341  0.00  0.00    +0.000 C 
BRANCH  29  30
ATOM     30  C   UNL     1      -2.191  10.337  16.893  0.00  0.00    +0.000 C 
BRANCH  30  31
ATOM     31  C   UNL     1      -3.510  10.989  16.595  0.00  0.00    +0.000 C 
ATOM     32  O   UNL     1      -4.060  11.724  17.398  0.00  0.00    +0.000 OA
BRANCH  31  34
ATOM     33  C   UNL     1      -2.982  10.075  14.537  0.00  0.00    +0.000 C 
ATOM     34  O   UNL     1      -3.967  10.699  15.356  0.00  0.00    +0.000 OA
ENDBRANCH  31  34
ENDBRANCH  30  31
ENDBRANCH  29  30
ENDBRANCH  21  29
ENDBRANCH  20  21
ENDBRANCH   1  20
TORSDOF 7
ENDMDL
