MODEL 1
REMARK VINA RESULT:      -7.7      0.000      0.000
REMARK  Name = 
REMARK  8 active torsions:
REMARK  status: ('A' for Active; 'I' for Inactive)
REMARK    1  A    between atoms: C_1  and  C_2
REMARK    2  A    between atoms: C_2  and  C_3
REMARK    3  A    between atoms: C_3  and  O_4
REMARK    4  A    between atoms: O_4  and  C_5
REMARK    5  A    between atoms: C_5  and  C_7
REMARK    6  A    between atoms: C_8  and  N_9
REMARK    7  A    between atoms: C_10  and  C_12
REMARK    8  A    between atoms: C_31  and  C_32
REMARK                            x       y       z     vdW  Elec       q    Type
REMARK                         _______ _______ _______ _____ _____    ______ ____
ROOT
ATOM      1  N   UNL     1       0.933  10.694  19.279  0.00  0.00    +0.000 N 
ATOM      2  C   UNL     1      -0.165  11.172  18.552  0.00  0.00    +0.000 C 
ATOM      3  O   UNL     1      -0.893  10.502  17.813  0.00  0.00    +0.000 OA
ATOM      4  H   UNL     1       1.600  11.369  19.648  0.00  0.00    +0.000 HD
ENDROOT
BRANCH   2   5
ATOM      5  C   UNL     1      -0.454  12.673  18.634  0.00  0.00    +0.000 C 
ATOM      6  C   UNL     1       0.788  13.508  18.840  0.00  0.00    +0.000 A 
ATOM      7  C   UNL     1       1.994  13.212  18.183  0.00  0.00    +0.000 A 
ATOM      8  C   UNL     1       3.112  14.031  18.351  0.00  0.00    +0.000 A 
ATOM      9  C   UNL     1       3.028  15.168  19.149  0.00  0.00    +0.000 A 
ATOM     10  C   UNL     1       1.825  15.488  19.775  0.00  0.00    +0.000 A 
ATOM     11  C   UNL     1       0.712  14.660  19.624  0.00  0.00    +0.000 A 
ATOM     12  O   UNL     1      -0.425  15.068  20.273  0.00  0.00    +0.000 OA
ATOM     13  C   UNL     1      -1.513  14.231  20.291  0.00  0.00    +0.000 A 
ATOM     14  C   UNL     1      -2.584  14.656  21.081  0.00  0.00    +0.000 A 
ATOM     15  C   UNL     1      -3.745  13.893  21.156  0.00  0.00    +0.000 A 
ATOM     16  C   UNL     1      -3.842  12.712  20.425  0.00  0.00    +0.000 A 
ATOM     17  C   UNL     1      -2.777  12.292  19.623  0.00  0.00    +0.000 A 
ATOM     18  C   UNL     1      -1.588  13.041  19.564  0.00  0.00    +0.000 A 
ENDBRANCH   2   5
BRANCH   1  20
ATOM     19  C   UNL     1       1.063   8.336  20.236  0.00  0.00    +0.000 A 
ATOM     20  C   UNL     1       1.326   9.348  19.302  0.00  0.00    +0.000 A 
ATOM     21  S   UNL     1       2.212   8.756  17.970  0.00  0.00    +0.000 S 
ATOM     22  C   UNL     1       2.509   7.283  18.709  0.00  0.00    +0.000 A 
ATOM     23  C   UNL     1       1.801   7.118  19.882  0.00  0.00    +0.000 A 
ATOM     24  C   UNL     1       1.857   5.801  20.619  0.00  0.00    +0.000 C 
ATOM     25  C   UNL     1       2.955   4.857  20.085  0.00  0.00    +0.000 C 
ATOM     26  C   UNL     1       3.112   4.879  18.551  0.00  0.00    +0.000 C 
ATOM     27  C   UNL     1       1.871   4.346  17.827  0.00  0.00    +0.000 C 
ATOM     28  C   UNL     1       3.449   6.302  18.088  0.00  0.00    +0.000 C 
BRANCH  19  29
ATOM     29  C   UNL     1       0.251   8.538  21.447  0.00  0.00    +0.000 C 
ATOM     30  O   UNL     1      -0.814   7.955  21.638  0.00  0.00    +0.000 OA
BRANCH  29  31
ATOM     31  O   UNL     1       0.760   9.482  22.291  0.00  0.00    +0.000 OA
BRANCH  31  32
ATOM     32  C   UNL     1      -0.150  10.100  23.221  0.00  0.00    +0.000 C 
BRANCH  32  34
ATOM     33  C   UNL     1      -2.162  11.656  23.353  0.00  0.00    +0.000 C 
ATOM     34  C   UNL     1      -0.813  11.374  22.709  0.00  0.00    +0.000 C 
ENDBRANCH  32  34
ENDBRANCH  31  32
ENDBRANCH  29  31
ENDBRANCH  19  29
ENDBRANCH   1  20
TORSDOF 6
ENDMDL
MODEL 2
REMARK VINA RESULT:      -7.4      2.561      8.598
REMARK  Name = 
REMARK  8 active torsions:
REMARK  status: ('A' for Active; 'I' for Inactive)
REMARK    1  A    between atoms: C_1  and  C_2
REMARK    2  A    between atoms: C_2  and  C_3
REMARK    3  A    between atoms: C_3  and  O_4
REMARK    4  A    between atoms: O_4  and  C_5
REMARK    5  A    between atoms: C_5  and  C_7
REMARK    6  A    between atoms: C_8  and  N_9
REMARK    7  A    between atoms: C_10  and  C_12
REMARK    8  A    between atoms: C_31  and  C_32
REMARK                            x       y       z     vdW  Elec       q    Type
REMARK                         _______ _______ _______ _____ _____    ______ ____
ROOT
ATOM      1  N   UNL     1       1.890   7.867  18.046  0.00  0.00    +0.000 N 
ATOM      2  C   UNL     1       2.878   6.964  18.457  0.00  0.00    +0.000 C 
ATOM      3  O   UNL     1       3.787   7.198  19.259  0.00  0.00    +0.000 OA
ATOM      4  H   UNL     1       1.354   7.649  17.209  0.00  0.00    +0.000 HD
ENDROOT
BRANCH   2   5
ATOM      5  C   UNL     1       2.866   5.576  17.810  0.00  0.00    +0.000 C 
ATOM      6  C   UNL     1       2.449   4.479  18.761  0.00  0.00    +0.000 A 
ATOM      7  C   UNL     1       1.412   4.664  19.692  0.00  0.00    +0.000 A 
ATOM      8  C   UNL     1       1.011   3.617  20.523  0.00  0.00    +0.000 A 
ATOM      9  C   UNL     1       1.617   2.369  20.412  0.00  0.00    +0.000 A 
ATOM     10  C   UNL     1       2.621   2.168  19.467  0.00  0.00    +0.000 A 
ATOM     11  C   UNL     1       3.036   3.219  18.648  0.00  0.00    +0.000 A 
ATOM     12  O   UNL     1       4.023   2.915  17.745  0.00  0.00    +0.000 OA
ATOM     13  C   UNL     1       4.583   3.930  17.011  0.00  0.00    +0.000 A 
ATOM     14  C   UNL     1       5.669   3.564  16.212  0.00  0.00    +0.000 A 
ATOM     15  C   UNL     1       6.301   4.512  15.411  0.00  0.00    +0.000 A 
ATOM     16  C   UNL     1       5.833   5.823  15.396  0.00  0.00    +0.000 A 
ATOM     17  C   UNL     1       4.738   6.189  16.185  0.00  0.00    +0.000 A 
ATOM     18  C   UNL     1       4.112   5.245  17.019  0.00  0.00    +0.000 A 
ENDBRANCH   2   5
BRANCH   1  20
ATOM     19  C   UNL     1       1.281   9.642  19.770  0.00  0.00    +0.000 A 
ATOM     20  C   UNL     1       1.773   9.173  18.543  0.00  0.00    +0.000 A 
ATOM     21  S   UNL     1       2.373  10.446  17.582  0.00  0.00    +0.000 S 
ATOM     22  C   UNL     1       1.752  11.624  18.597  0.00  0.00    +0.000 A 
ATOM     23  C   UNL     1       1.248  11.109  19.774  0.00  0.00    +0.000 A 
ATOM     24  C   UNL     1       0.756  12.039  20.857  0.00  0.00    +0.000 C 
ATOM     25  C   UNL     1       0.627  13.502  20.383  0.00  0.00    +0.000 C 
ATOM     26  C   UNL     1       1.760  13.960  19.442  0.00  0.00    +0.000 C 
ATOM     27  C   UNL     1       3.126  13.981  20.135  0.00  0.00    +0.000 C 
ATOM     28  C   UNL     1       1.790  13.063  18.197  0.00  0.00    +0.000 C 
BRANCH  19  29
ATOM     29  C   UNL     1       0.773   8.759  20.834  0.00  0.00    +0.000 C 
ATOM     30  O   UNL     1       1.424   7.821  21.287  0.00  0.00    +0.000 OA
BRANCH  29  31
ATOM     31  O   UNL     1      -0.509   9.043  21.207  0.00  0.00    +0.000 OA
BRANCH  31  32
ATOM     32  C   UNL     1      -0.822   8.966  22.611  0.00  0.00    +0.000 C 
BRANCH  32  34
ATOM     33  C   UNL     1      -1.737  11.281  23.148  0.00  0.00    +0.000 C 
ATOM     34  C   UNL     1      -0.625  10.270  23.378  0.00  0.00    +0.000 C 
ENDBRANCH  32  34
ENDBRANCH  31  32
ENDBRANCH  29  31
ENDBRANCH  19  29
ENDBRANCH   1  20
TORSDOF 6
ENDMDL
MODEL 3
REMARK VINA RESULT:      -7.4      2.279      5.414
REMARK  Name = 
REMARK  8 active torsions:
REMARK  status: ('A' for Active; 'I' for Inactive)
REMARK    1  A    between atoms: C_1  and  C_2
REMARK    2  A    between atoms: C_2  and  C_3
REMARK    3  A    between atoms: C_3  and  O_4
REMARK    4  A    between atoms: O_4  and  C_5
REMARK    5  A    between atoms: C_5  and  C_7
REMARK    6  A    between atoms: C_8  and  N_9
REMARK    7  A    between atoms: C_10  and  C_12
REMARK    8  A    between atoms: C_31  and  C_32
REMARK                            x       y       z     vdW  Elec       q    Type
REMARK                         _______ _______ _______ _____ _____    ______ ____
ROOT
ATOM      1  N   UNL     1       2.030   8.593  20.420  0.00  0.00    +0.000 N 
ATOM      2  C   UNL     1       1.095   9.538  19.980  0.00  0.00    +0.000 C 
ATOM      3  O   UNL     1       0.242   9.363  19.105  0.00  0.00    +0.000 OA
ATOM      4  H   UNL     1       2.832   8.918  20.956  0.00  0.00    +0.000 HD
ENDROOT
BRANCH   2   5
ATOM      5  C   UNL     1       1.175  10.937  20.598  0.00  0.00    +0.000 C 
ATOM      6  C   UNL     1       0.024  11.243  21.527  0.00  0.00    +0.000 A 
ATOM      7  C   UNL     1      -0.491  10.277  22.409  0.00  0.00    +0.000 A 
ATOM      8  C   UNL     1      -1.520  10.602  23.294  0.00  0.00    +0.000 A 
ATOM      9  C   UNL     1      -2.022  11.900  23.330  0.00  0.00    +0.000 A 
ATOM     10  C   UNL     1      -1.492  12.872  22.484  0.00  0.00    +0.000 A 
ATOM     11  C   UNL     1      -0.477  12.544  21.586  0.00  0.00    +0.000 A 
ATOM     12  O   UNL     1      -0.018  13.574  20.805  0.00  0.00    +0.000 OA
ATOM     13  C   UNL     1       0.874  13.296  19.799  0.00  0.00    +0.000 A 
ATOM     14  C   UNL     1       1.192  14.370  18.965  0.00  0.00    +0.000 A 
ATOM     15  C   UNL     1       2.101  14.204  17.924  0.00  0.00    +0.000 A 
ATOM     16  C   UNL     1       2.706  12.965  17.729  0.00  0.00    +0.000 A 
ATOM     17  C   UNL     1       2.399  11.891  18.571  0.00  0.00    +0.000 A 
ATOM     18  C   UNL     1       1.460  12.042  19.607  0.00  0.00    +0.000 A 
ENDBRANCH   2   5
BRANCH   1  20
ATOM     19  C   UNL     1       2.624   6.752  18.761  0.00  0.00    +0.000 A 
ATOM     20  C   UNL     1       2.086   7.274  19.946  0.00  0.00    +0.000 A 
ATOM     21  S   UNL     1       1.486   6.040  20.958  0.00  0.00    +0.000 S 
ATOM     22  C   UNL     1       1.648   4.867  19.773  0.00  0.00    +0.000 A 
ATOM     23  C   UNL     1       2.327   5.318  18.660  0.00  0.00    +0.000 A 
ATOM     24  C   UNL     1       2.667   4.360  17.543  0.00  0.00    +0.000 C 
ATOM     25  C   UNL     1       1.948   3.001  17.674  0.00  0.00    +0.000 C 
ATOM     26  C   UNL     1       1.850   2.479  19.123  0.00  0.00    +0.000 C 
ATOM     27  C   UNL     1       3.222   2.160  19.725  0.00  0.00    +0.000 C 
ATOM     28  C   UNL     1       1.094   3.497  19.987  0.00  0.00    +0.000 C 
BRANCH  19  29
ATOM     29  C   UNL     1       3.283   7.576  17.734  0.00  0.00    +0.000 C 
ATOM     30  O   UNL     1       2.696   8.454  17.108  0.00  0.00    +0.000 OA
BRANCH  29  31
ATOM     31  O   UNL     1       4.579   7.218  17.502  0.00  0.00    +0.000 OA
BRANCH  31  32
ATOM     32  C   UNL     1       4.931   6.835  16.159  0.00  0.00    +0.000 C 
BRANCH  32  34
ATOM     33  C   UNL     1       5.553   4.764  14.813  0.00  0.00    +0.000 C 
ATOM     34  C   UNL     1       5.810   5.592  16.062  0.00  0.00    +0.000 C 
ENDBRANCH  32  34
ENDBRANCH  31  32
ENDBRANCH  29  31
ENDBRANCH  19  29
ENDBRANCH   1  20
TORSDOF 6
ENDMDL
MODEL 4
REMARK VINA RESULT:      -7.2      2.258      7.870
REMARK  Name = 
REMARK  8 active torsions:
REMARK  status: ('A' for Active; 'I' for Inactive)
REMARK    1  A    between atoms: C_1  and  C_2
REMARK    2  A    between atoms: C_2  and  C_3
REMARK    3  A    between atoms: C_3  and  O_4
REMARK    4  A    between atoms: O_4  and  C_5
REMARK    5  A    between atoms: C_5  and  C_7
REMARK    6  A    between atoms: C_8  and  N_9
REMARK    7  A    between atoms: C_10  and  C_12
REMARK    8  A    between atoms: C_31  and  C_32
REMARK                            x       y       z     vdW  Elec       q    Type
REMARK                         _______ _______ _______ _____ _____    ______ ____
ROOT
ATOM      1  N   UNL     1       2.249   8.121  19.499  0.00  0.00    +0.000 N 
ATOM      2  C   UNL     1       2.283   7.158  18.482  0.00  0.00    +0.000 C 
ATOM      3  O   UNL     1       1.601   7.166  17.453  0.00  0.00    +0.000 OA
ATOM      4  H   UNL     1       2.661   7.887  20.400  0.00  0.00    +0.000 HD
ENDROOT
BRANCH   2   5
ATOM      5  C   UNL     1       3.206   5.954  18.692  0.00  0.00    +0.000 C 
ATOM      6  C   UNL     1       4.066   5.647  17.489  0.00  0.00    +0.000 A 
ATOM      7  C   UNL     1       4.653   6.668  16.721  0.00  0.00    +0.000 A 
ATOM      8  C   UNL     1       5.487   6.356  15.646  0.00  0.00    +0.000 A 
ATOM      9  C   UNL     1       5.767   5.026  15.347  0.00  0.00    +0.000 A 
ATOM     10  C   UNL     1       5.217   4.009  16.125  0.00  0.00    +0.000 A 
ATOM     11  C   UNL     1       4.369   4.320  17.188  0.00  0.00    +0.000 A 
ATOM     12  O   UNL     1       3.888   3.248  17.898  0.00  0.00    +0.000 OA
ATOM     13  C   UNL     1       2.935   3.466  18.861  0.00  0.00    +0.000 A 
ATOM     14  C   UNL     1       2.400   2.316  19.446  0.00  0.00    +0.000 A 
ATOM     15  C   UNL     1       1.440   2.422  20.449  0.00  0.00    +0.000 A 
ATOM     16  C   UNL     1       1.028   3.681  20.878  0.00  0.00    +0.000 A 
ATOM     17  C   UNL     1       1.573   4.834  20.303  0.00  0.00    +0.000 A 
ATOM     18  C   UNL     1       2.522   4.736  19.270  0.00  0.00    +0.000 A 
ENDBRANCH   2   5
BRANCH   1  20
ATOM     19  C   UNL     1       0.416   9.700  20.296  0.00  0.00    +0.000 A 
ATOM     20  C   UNL     1       1.453   9.274  19.454  0.00  0.00    +0.000 A 
ATOM     21  S   UNL     1       1.793  10.428  18.247  0.00  0.00    +0.000 S 
ATOM     22  C   UNL     1       0.439  11.342  18.613  0.00  0.00    +0.000 A 
ATOM     23  C   UNL     1      -0.198  10.922  19.763  0.00  0.00    +0.000 A 
ATOM     24  C   UNL     1      -1.369  11.705  20.308  0.00  0.00    +0.000 C 
ATOM     25  C   UNL     1      -1.894  12.770  19.321  0.00  0.00    +0.000 C 
ATOM     26  C   UNL     1      -0.784  13.503  18.539  0.00  0.00    +0.000 C 
ATOM     27  C   UNL     1       0.117  14.344  19.448  0.00  0.00    +0.000 C 
ATOM     28  C   UNL     1       0.039  12.485  17.738  0.00  0.00    +0.000 C 
BRANCH  19  29
ATOM     29  C   UNL     1      -0.039   8.943  21.474  0.00  0.00    +0.000 C 
ATOM     30  O   UNL     1      -0.588   7.848  21.389  0.00  0.00    +0.000 OA
BRANCH  29  31
ATOM     31  O   UNL     1       0.145   9.609  22.651  0.00  0.00    +0.000 OA
BRANCH  31  32
ATOM     32  C   UNL     1      -1.032  10.060  23.349  0.00  0.00    +0.000 C 
BRANCH  32  34
ATOM     33  C   UNL     1      -2.742  11.942  23.492  0.00  0.00    +0.000 C 
ATOM     34  C   UNL     1      -1.289  11.560  23.258  0.00  0.00    +0.000 C 
ENDBRANCH  32  34
ENDBRANCH  31  32
ENDBRANCH  29  31
ENDBRANCH  19  29
ENDBRANCH   1  20
TORSDOF 6
ENDMDL
MODEL 5
REMARK VINA RESULT:      -6.9      2.580      8.848
REMARK  Name = 
REMARK  8 active torsions:
REMARK  status: ('A' for Active; 'I' for Inactive)
REMARK    1  A    between atoms: C_1  and  C_2
REMARK    2  A    between atoms: C_2  and  C_3
REMARK    3  A    between atoms: C_3  and  O_4
REMARK    4  A    between atoms: O_4  and  C_5
REMARK    5  A    between atoms: C_5  and  C_7
REMARK    6  A    between atoms: C_8  and  N_9
REMARK    7  A    between atoms: C_10  and  C_12
REMARK    8  A    between atoms: C_31  and  C_32
REMARK                            x       y       z     vdW  Elec       q    Type
REMARK                         _______ _______ _______ _____ _____    ______ ____
ROOT
ATOM      1  N   UNL     1       1.646   8.064  18.740  0.00  0.00    +0.000 N 
ATOM      2  C   UNL     1       2.382   6.999  19.273  0.00  0.00    +0.000 C 
ATOM      3  O   UNL     1       2.700   6.857  20.457  0.00  0.00    +0.000 OA
ATOM      4  H   UNL     1       1.658   8.204  17.732  0.00  0.00    +0.000 HD
ENDROOT
BRANCH   2   5
ATOM      5  C   UNL     1       2.890   5.941  18.288  0.00  0.00    +0.000 C 
ATOM      6  C   UNL     1       2.482   4.536  18.662  0.00  0.00    +0.000 A 
ATOM      7  C   UNL     1       1.204   4.249  19.172  0.00  0.00    +0.000 A 
ATOM      8  C   UNL     1       0.835   2.933  19.460  0.00  0.00    +0.000 A 
ATOM      9  C   UNL     1       1.724   1.892  19.212  0.00  0.00    +0.000 A 
ATOM     10  C   UNL     1       2.979   2.165  18.673  0.00  0.00    +0.000 A 
ATOM     11  C   UNL     1       3.357   3.481  18.403  0.00  0.00    +0.000 A 
ATOM     12  O   UNL     1       4.609   3.642  17.865  0.00  0.00    +0.000 OA
ATOM     13  C   UNL     1       5.104   4.912  17.711  0.00  0.00    +0.000 A 
ATOM     14  C   UNL     1       6.432   4.991  17.283  0.00  0.00    +0.000 A 
ATOM     15  C   UNL     1       7.029   6.231  17.076  0.00  0.00    +0.000 A 
ATOM     16  C   UNL     1       6.290   7.394  17.279  0.00  0.00    +0.000 A 
ATOM     17  C   UNL     1       4.957   7.317  17.695  0.00  0.00    +0.000 A 
ATOM     18  C   UNL     1       4.354   6.070  17.935  0.00  0.00    +0.000 A 
ENDBRANCH   2   5
BRANCH   1  20
ATOM     19  C   UNL     1       1.195  10.499  19.340  0.00  0.00    +0.000 A 
ATOM     20  C   UNL     1       1.118   9.109  19.511  0.00  0.00    +0.000 A 
ATOM     21  S   UNL     1       0.152   8.697  20.854  0.00  0.00    +0.000 S 
ATOM     22  C   UNL     1       0.062  10.281  21.389  0.00  0.00    +0.000 A 
ATOM     23  C   UNL     1       0.584  11.184  20.486  0.00  0.00    +0.000 A 
ATOM     24  C   UNL     1       0.479  12.667  20.752  0.00  0.00    +0.000 C 
ATOM     25  C   UNL     1       0.017  12.990  22.189  0.00  0.00    +0.000 C 
ATOM     26  C   UNL     1      -1.072  12.040  22.728  0.00  0.00    +0.000 C 
ATOM     27  C   UNL     1      -2.387  12.153  21.950  0.00  0.00    +0.000 C 
ATOM     28  C   UNL     1      -0.548  10.597  22.715  0.00  0.00    +0.000 C 
BRANCH  19  29
ATOM     29  C   UNL     1       1.896  11.143  18.217  0.00  0.00    +0.000 C 
ATOM     30  O   UNL     1       2.606  10.520  17.431  0.00  0.00    +0.000 OA
BRANCH  29  31
ATOM     31  O   UNL     1       1.737  12.498  18.183  0.00  0.00    +0.000 OA
BRANCH  31  32
ATOM     32  C   UNL     1       2.928  13.307  18.221  0.00  0.00    +0.000 C 
BRANCH  32  34
ATOM     33  C   UNL     1       3.537  15.633  17.382  0.00  0.00    +0.000 C 
ATOM     34  C   UNL     1       2.674  14.807  18.322  0.00  0.00    +0.000 C 
ENDBRANCH  32  34
ENDBRANCH  31  32
ENDBRANCH  29  31
ENDBRANCH  19  29
ENDBRANCH   1  20
TORSDOF 6
ENDMDL
MODEL 6
REMARK VINA RESULT:      -6.9      2.311      4.780
REMARK  Name = 
REMARK  8 active torsions:
REMARK  status: ('A' for Active; 'I' for Inactive)
REMARK    1  A    between atoms: C_1  and  C_2
REMARK    2  A    between atoms: C_2  and  C_3
REMARK    3  A    between atoms: C_3  and  O_4
REMARK    4  A    between atoms: O_4  and  C_5
REMARK    5  A    between atoms: C_5  and  C_7
REMARK    6  A    between atoms: C_8  and  N_9
REMARK    7  A    between atoms: C_10  and  C_12
REMARK    8  A    between atoms: C_31  and  C_32
REMARK                            x       y       z     vdW  Elec       q    Type
REMARK                         _______ _______ _______ _____ _____    ______ ____
ROOT
ATOM      1  N   UNL     1       1.471   8.545  19.237  0.00  0.00    +0.000 N 
ATOM      2  C   UNL     1       1.174   9.750  18.589  0.00  0.00    +0.000 C 
ATOM      3  O   UNL     1       1.742  10.194  17.586  0.00  0.00    +0.000 OA
ATOM      4  H   UNL     1       1.116   8.403  20.181  0.00  0.00    +0.000 HD
ENDROOT
BRANCH   2   5
ATOM      5  C   UNL     1       0.085  10.627  19.213  0.00  0.00    +0.000 C 
ATOM      6  C   UNL     1      -1.193  10.653  18.408  0.00  0.00    +0.000 A 
ATOM      7  C   UNL     1      -1.700   9.496  17.791  0.00  0.00    +0.000 A 
ATOM      8  C   UNL     1      -2.911   9.536  17.096  0.00  0.00    +0.000 A 
ATOM      9  C   UNL     1      -3.640  10.720  17.039  0.00  0.00    +0.000 A 
ATOM     10  C   UNL     1      -3.162  11.862  17.678  0.00  0.00    +0.000 A 
ATOM     11  C   UNL     1      -1.942  11.828  18.356  0.00  0.00    +0.000 A 
ATOM     12  O   UNL     1      -1.565  13.001  18.960  0.00  0.00    +0.000 OA
ATOM     13  C   UNL     1      -0.314  13.085  19.517  0.00  0.00    +0.000 A 
ATOM     14  C   UNL     1       0.046  14.348  19.994  0.00  0.00    +0.000 A 
ATOM     15  C   UNL     1       1.286  14.542  20.596  0.00  0.00    +0.000 A 
ATOM     16  C   UNL     1       2.159  13.466  20.739  0.00  0.00    +0.000 A 
ATOM     17  C   UNL     1       1.794  12.199  20.275  0.00  0.00    +0.000 A 
ATOM     18  C   UNL     1       0.556  11.999  19.638  0.00  0.00    +0.000 A 
ENDBRANCH   2   5
BRANCH   1  20
ATOM     19  C   UNL     1       2.785   6.362  19.260  0.00  0.00    +0.000 A 
ATOM     20  C   UNL     1       2.443   7.639  18.790  0.00  0.00    +0.000 A 
ATOM     21  S   UNL     1       3.347   8.060  17.407  0.00  0.00    +0.000 S 
ATOM     22  C   UNL     1       4.373   6.747  17.569  0.00  0.00    +0.000 A 
ATOM     23  C   UNL     1       3.959   5.857  18.538  0.00  0.00    +0.000 A 
ATOM     24  C   UNL     1       4.701   4.557  18.737  0.00  0.00    +0.000 C 
ATOM     25  C   UNL     1       6.045   4.507  17.979  0.00  0.00    +0.000 C 
ATOM     26  C   UNL     1       6.000   5.152  16.578  0.00  0.00    +0.000 C 
ATOM     27  C   UNL     1       5.075   4.401  15.615  0.00  0.00    +0.000 C 
ATOM     28  C   UNL     1       5.584   6.624  16.703  0.00  0.00    +0.000 C 
BRANCH  19  29
ATOM     29  C   UNL     1       2.113   5.705  20.393  0.00  0.00    +0.000 C 
ATOM     30  O   UNL     1       1.330   6.293  21.133  0.00  0.00    +0.000 OA
BRANCH  29  31
ATOM     31  O   UNL     1       2.502   4.410  20.576  0.00  0.00    +0.000 OA
BRANCH  31  32
ATOM     32  C   UNL     1       1.471   3.440  20.849  0.00  0.00    +0.000 C 
BRANCH  32  34
ATOM     33  C   UNL     1       1.680   2.494  18.494  0.00  0.00    +0.000 C 
ATOM     34  C   UNL     1       0.744   2.923  19.612  0.00  0.00    +0.000 C 
ENDBRANCH  32  34
ENDBRANCH  31  32
ENDBRANCH  29  31
ENDBRANCH  19  29
ENDBRANCH   1  20
TORSDOF 6
ENDMDL
MODEL 7
REMARK VINA RESULT:      -6.9      2.578      4.593
REMARK  Name = 
REMARK  8 active torsions:
REMARK  status: ('A' for Active; 'I' for Inactive)
REMARK    1  A    between atoms: C_1  and  C_2
REMARK    2  A    between atoms: C_2  and  C_3
REMARK    3  A    between atoms: C_3  and  O_4
REMARK    4  A    between atoms: O_4  and  C_5
REMARK    5  A    between atoms: C_5  and  C_7
REMARK    6  A    between atoms: C_8  and  N_9
REMARK    7  A    between atoms: C_10  and  C_12
REMARK    8  A    between atoms: C_31  and  C_32
REMARK                            x       y       z     vdW  Elec       q    Type
REMARK                         _______ _______ _______ _____ _____    ______ ____
ROOT
ATOM      1  N   UNL     1       2.496   8.400  18.838  0.00  0.00    +0.000 N 
ATOM      2  C   UNL     1       1.459   9.120  18.232  0.00  0.00    +0.000 C 
ATOM      3  O   UNL     1       1.056   8.977  17.074  0.00  0.00    +0.000 OA
ATOM      4  H   UNL     1       2.904   8.768  19.696  0.00  0.00    +0.000 HD
ENDROOT
BRANCH   2   5
ATOM      5  C   UNL     1       0.803  10.228  19.062  0.00  0.00    +0.000 C 
ATOM      6  C   UNL     1       1.586  11.519  19.055  0.00  0.00    +0.000 A 
ATOM      7  C   UNL     1       2.213  11.997  17.891  0.00  0.00    +0.000 A 
ATOM      8  C   UNL     1       2.886  13.220  17.899  0.00  0.00    +0.000 A 
ATOM      9  C   UNL     1       2.912  13.991  19.057  0.00  0.00    +0.000 A 
ATOM     10  C   UNL     1       2.264  13.541  20.205  0.00  0.00    +0.000 A 
ATOM     11  C   UNL     1       1.607  12.310  20.204  0.00  0.00    +0.000 A 
ATOM     12  O   UNL     1       0.991  11.963  21.380  0.00  0.00    +0.000 OA
ATOM     13  C   UNL     1       0.453  10.706  21.500  0.00  0.00    +0.000 A 
ATOM     14  C   UNL     1      -0.037  10.381  22.767  0.00  0.00    +0.000 A 
ATOM     15  C   UNL     1      -0.621   9.139  22.995  0.00  0.00    +0.000 A 
ATOM     16  C   UNL     1      -0.732   8.227  21.948  0.00  0.00    +0.000 A 
ATOM     17  C   UNL     1      -0.254   8.555  20.676  0.00  0.00    +0.000 A 
ATOM     18  C   UNL     1       0.364   9.797  20.443  0.00  0.00    +0.000 A 
ENDBRANCH   2   5
BRANCH   1  20
ATOM     19  C   UNL     1       3.018   5.972  18.270  0.00  0.00    +0.000 A 
ATOM     20  C   UNL     1       3.196   7.362  18.207  0.00  0.00    +0.000 A 
ATOM     21  S   UNL     1       4.432   7.785  17.113  0.00  0.00    +0.000 S 
ATOM     22  C   UNL     1       4.937   6.199  16.930  0.00  0.00    +0.000 A 
ATOM     23  C   UNL     1       4.085   5.292  17.526  0.00  0.00    +0.000 A 
ATOM     24  C   UNL     1       4.322   3.810  17.359  0.00  0.00    +0.000 C 
ATOM     25  C   UNL     1       5.698   3.486  16.739  0.00  0.00    +0.000 C 
ATOM     26  C   UNL     1       6.128   4.457  15.620  0.00  0.00    +0.000 C 
ATOM     27  C   UNL     1       5.213   4.382  14.394  0.00  0.00    +0.000 C 
ATOM     28  C   UNL     1       6.187   5.886  16.175  0.00  0.00    +0.000 C 
BRANCH  19  29
ATOM     29  C   UNL     1       1.969   5.321  19.072  0.00  0.00    +0.000 C 
ATOM     30  O   UNL     1       1.671   5.693  20.205  0.00  0.00    +0.000 OA
BRANCH  29  31
ATOM     31  O   UNL     1       1.420   4.230  18.464  0.00  0.00    +0.000 OA
BRANCH  31  32
ATOM     32  C   UNL     1       0.971   3.155  19.311  0.00  0.00    +0.000 C 
BRANCH  32  34
ATOM     33  C   UNL     1       1.948   2.518  21.575  0.00  0.00    +0.000 C 
ATOM     34  C   UNL     1       2.084   2.432  20.063  0.00  0.00    +0.000 C 
ENDBRANCH  32  34
ENDBRANCH  31  32
ENDBRANCH  29  31
ENDBRANCH  19  29
ENDBRANCH   1  20
TORSDOF 6
ENDMDL
MODEL 8
REMARK VINA RESULT:      -6.8      2.448      8.223
REMARK  Name = 
REMARK  8 active torsions:
REMARK  status: ('A' for Active; 'I' for Inactive)
REMARK    1  A    between atoms: C_1  and  C_2
REMARK    2  A    between atoms: C_2  and  C_3
REMARK    3  A    between atoms: C_3  and  O_4
REMARK    4  A    between atoms: O_4  and  C_5
REMARK    5  A    between atoms: C_5  and  C_7
REMARK    6  A    between atoms: C_8  and  N_9
REMARK    7  A    between atoms: C_10  and  C_12
REMARK    8  A    between atoms: C_31  and  C_32
REMARK                            x       y       z     vdW  Elec       q    Type
REMARK                         _______ _______ _______ _____ _____    ______ ____
ROOT
ATOM      1  N   UNL     1       2.033   8.218  19.983  0.00  0.00    +0.000 N 
ATOM      2  C   UNL     1       2.043   7.311  18.917  0.00  0.00    +0.000 C 
ATOM      3  O   UNL     1       1.285   7.328  17.942  0.00  0.00    +0.000 OA
ATOM      4  H   UNL     1       2.525   7.966  20.838  0.00  0.00    +0.000 HD
ENDROOT
BRANCH   2   5
ATOM      5  C   UNL     1       3.045   6.155  18.994  0.00  0.00    +0.000 C 
ATOM      6  C   UNL     1       3.863   5.992  17.735  0.00  0.00    +0.000 A 
ATOM      7  C   UNL     1       4.351   7.102  17.022  0.00  0.00    +0.000 A 
ATOM      8  C   UNL     1       5.149   6.922  15.891  0.00  0.00    +0.000 A 
ATOM      9  C   UNL     1       5.494   5.638  15.480  0.00  0.00    +0.000 A 
ATOM     10  C   UNL     1       5.044   4.535  16.201  0.00  0.00    +0.000 A 
ATOM     11  C   UNL     1       4.230   4.712  17.321  0.00  0.00    +0.000 A 
ATOM     12  O   UNL     1       3.849   3.563  17.967  0.00  0.00    +0.000 OA
ATOM     13  C   UNL     1       2.932   3.649  18.984  0.00  0.00    +0.000 A 
ATOM     14  C   UNL     1       2.495   2.428  19.503  0.00  0.00    +0.000 A 
ATOM     15  C   UNL     1       1.580   2.399  20.551  0.00  0.00    +0.000 A 
ATOM     16  C   UNL     1       1.115   3.595  21.093  0.00  0.00    +0.000 A 
ATOM     17  C   UNL     1       1.561   4.818  20.584  0.00  0.00    +0.000 A 
ATOM     18  C   UNL     1       2.464   4.857  19.506  0.00  0.00    +0.000 A 
ENDBRANCH   2   5
BRANCH   1  20
ATOM     19  C   UNL     1       1.142  10.509  19.310  0.00  0.00    +0.000 A 
ATOM     20  C   UNL     1       1.172   9.323  20.058  0.00  0.00    +0.000 A 
ATOM     21  S   UNL     1      -0.117   9.251  21.171  0.00  0.00    +0.000 S 
ATOM     22  C   UNL     1      -0.552  10.847  20.906  0.00  0.00    +0.000 A 
ATOM     23  C   UNL     1       0.125  11.420  19.849  0.00  0.00    +0.000 A 
ATOM     24  C   UNL     1      -0.227  12.816  19.394  0.00  0.00    +0.000 C 
ATOM     25  C   UNL     1      -1.155  13.556  20.380  0.00  0.00    +0.000 C 
ATOM     26  C   UNL     1      -2.244  12.663  21.010  0.00  0.00    +0.000 C 
ATOM     27  C   UNL     1      -3.247  12.143  19.975  0.00  0.00    +0.000 C 
ATOM     28  C   UNL     1      -1.583  11.502  21.765  0.00  0.00    +0.000 C 
BRANCH  19  29
ATOM     29  C   UNL     1       2.085  10.808  18.220  0.00  0.00    +0.000 C 
ATOM     30  O   UNL     1       2.187  10.106  17.217  0.00  0.00    +0.000 OA
BRANCH  29  31
ATOM     31  O   UNL     1       2.877  11.891  18.471  0.00  0.00    +0.000 OA
BRANCH  31  32
ATOM     32  C   UNL     1       2.596  13.100  17.740  0.00  0.00    +0.000 C 
BRANCH  32  34
ATOM     33  C   UNL     1       2.226  15.510  18.476  0.00  0.00    +0.000 C 
ATOM     34  C   UNL     1       3.212  14.361  18.337  0.00  0.00    +0.000 C 
ENDBRANCH  32  34
ENDBRANCH  31  32
ENDBRANCH  29  31
ENDBRANCH  19  29
ENDBRANCH   1  20
TORSDOF 6
ENDMDL
MODEL 9
REMARK VINA RESULT:      -6.8      2.489      8.635
REMARK  Name = 
REMARK  8 active torsions:
REMARK  status: ('A' for Active; 'I' for Inactive)
REMARK    1  A    between atoms: C_1  and  C_2
REMARK    2  A    between atoms: C_2  and  C_3
REMARK    3  A    between atoms: C_3  and  O_4
REMARK    4  A    between atoms: O_4  and  C_5
REMARK    5  A    between atoms: C_5  and  C_7
REMARK    6  A    between atoms: C_8  and  N_9
REMARK    7  A    between atoms: C_10  and  C_12
REMARK    8  A    between atoms: C_31  and  C_32
REMARK                            x       y       z     vdW  Elec       q    Type
REMARK                         _______ _______ _______ _____ _____    ______ ____
ROOT
ATOM      1  N   UNL     1       1.880   8.355  17.897  0.00  0.00    +0.000 N 
ATOM      2  C   UNL     1       2.518   7.356  18.643  0.00  0.00    +0.000 C 
ATOM      3  O   UNL     1       3.065   7.506  19.739  0.00  0.00    +0.000 OA
ATOM      4  H   UNL     1       1.689   8.177  16.913  0.00  0.00    +0.000 HD
ENDROOT
BRANCH   2   5
ATOM      5  C   UNL     1       2.597   5.962  18.014  0.00  0.00    +0.000 C 
ATOM      6  C   UNL     1       2.245   4.854  18.979  0.00  0.00    +0.000 A 
ATOM      7  C   UNL     1       1.195   4.986  19.904  0.00  0.00    +0.000 A 
ATOM      8  C   UNL     1       0.857   3.927  20.748  0.00  0.00    +0.000 A 
ATOM      9  C   UNL     1       1.541   2.718  20.656  0.00  0.00    +0.000 A 
ATOM     10  C   UNL     1       2.560   2.568  19.718  0.00  0.00    +0.000 A 
ATOM     11  C   UNL     1       2.912   3.632  18.886  0.00  0.00    +0.000 A 
ATOM     12  O   UNL     1       3.920   3.379  17.991  0.00  0.00    +0.000 OA
ATOM     13  C   UNL     1       4.418   4.417  17.245  0.00  0.00    +0.000 A 
ATOM     14  C   UNL     1       5.528   4.110  16.454  0.00  0.00    +0.000 A 
ATOM     15  C   UNL     1       6.102   5.084  15.643  0.00  0.00    +0.000 A 
ATOM     16  C   UNL     1       5.553   6.363  15.608  0.00  0.00    +0.000 A 
ATOM     17  C   UNL     1       4.433   6.669  16.388  0.00  0.00    +0.000 A 
ATOM     18  C   UNL     1       3.864   5.700  17.233  0.00  0.00    +0.000 A 
ENDBRANCH   2   5
BRANCH   1  20
ATOM     19  C   UNL     1       0.821  10.245  19.239  0.00  0.00    +0.000 A 
ATOM     20  C   UNL     1       1.731   9.679  18.335  0.00  0.00    +0.000 A 
ATOM     21  S   UNL     1       2.854  10.833  17.772  0.00  0.00    +0.000 S 
ATOM     22  C   UNL     1       2.014  12.112  18.453  0.00  0.00    +0.000 A 
ATOM     23  C   UNL     1       0.985  11.703  19.275  0.00  0.00    +0.000 A 
ATOM     24  C   UNL     1       0.197  12.721  20.065  0.00  0.00    +0.000 C 
ATOM     25  C   UNL     1       0.483  14.174  19.629  0.00  0.00    +0.000 C 
ATOM     26  C   UNL     1       1.963  14.450  19.291  0.00  0.00    +0.000 C 
ATOM     27  C   UNL     1       2.879  14.309  20.511  0.00  0.00    +0.000 C 
ATOM     28  C   UNL     1       2.413  13.521  18.156  0.00  0.00    +0.000 C 
BRANCH  19  29
ATOM     29  C   UNL     1      -0.212   9.470  19.946  0.00  0.00    +0.000 C 
ATOM     30  O   UNL     1       0.057   8.618  20.790  0.00  0.00    +0.000 OA
BRANCH  29  31
ATOM     31  O   UNL     1      -1.480   9.740  19.519  0.00  0.00    +0.000 OA
BRANCH  31  32
ATOM     32  C   UNL     1      -1.649  10.113  18.138  0.00  0.00    +0.000 C 
BRANCH  32  34
ATOM     33  C   UNL     1      -3.049   9.878  16.024  0.00  0.00    +0.000 C 
ATOM     34  C   UNL     1      -2.995   9.724  17.535  0.00  0.00    +0.000 C 
ENDBRANCH  32  34
ENDBRANCH  31  32
ENDBRANCH  29  31
ENDBRANCH  19  29
ENDBRANCH   1  20
TORSDOF 6
ENDMDL
