MODEL 1
REMARK VINA RESULT:      -7.1      0.000      0.000
REMARK  Name = 
REMARK  2 active torsions:
REMARK  status: ('A' for Active; 'I' for Inactive)
REMARK    1  A    between atoms: C_2  and  C_3
REMARK    2  A    between atoms: C_9  and  C_11
REMARK                            x       y       z     vdW  Elec       q    Type
REMARK                         _______ _______ _______ _____ _____    ______ ____
ROOT
ATOM      1  C   UNL     1       4.982   5.136  16.321  0.00  0.00    +0.000 C 
ATOM      2  C   UNL     1       5.164   6.678  16.269  0.00  0.00    +0.000 C 
ATOM      3  O   UNL     1       6.537   7.080  16.370  0.00  0.00    +0.000 OA
ATOM      4  C   UNL     1       7.145   6.574  17.568  0.00  0.00    +0.000 C 
ATOM      5  C   UNL     1       7.042   5.045  17.664  0.00  0.00    +0.000 C 
ATOM      6  N   UNL     1       5.643   4.618  17.528  0.00  0.00    +0.000 N 
ATOM      7  C   UNL     1       5.031   3.941  18.573  0.00  0.00    +0.000 C 
ATOM      8  O   UNL     1       5.614   3.693  19.623  0.00  0.00    +0.000 OA
ENDROOT
BRANCH   7   9
ATOM      9  C   UNL     1       3.611   3.556  18.477  0.00  0.00    +0.000 A 
ATOM     10  C   UNL     1       3.301   2.252  18.079  0.00  0.00    +0.000 A 
ATOM     11  C   UNL     1       1.968   1.881  18.052  0.00  0.00    +0.000 A 
ATOM     12  N   UNL     1       0.956   2.688  18.434  0.00  0.00    +0.000 NA
ATOM     13  C   UNL     1       1.283   3.957  18.775  0.00  0.00    +0.000 A 
ATOM     14  C   UNL     1       2.550   4.427  18.737  0.00  0.00    +0.000 A 
ATOM     15  F   UNL     1       2.727   5.730  19.012  0.00  0.00    +0.000 F 
ENDBRANCH   7   9
BRANCH   1  17
ATOM     16  C   UNL     1       6.227   3.960  14.076  0.00  0.00    +0.000 C 
ATOM     17  C   UNL     1       5.652   4.503  15.112  0.00  0.00    +0.000 C 
ENDBRANCH   1  17
TORSDOF 2
ENDMDL
MODEL 2
REMARK VINA RESULT:      -7.0      1.164      1.626
REMARK  Name = 
REMARK  2 active torsions:
REMARK  status: ('A' for Active; 'I' for Inactive)
REMARK    1  A    between atoms: C_2  and  C_3
REMARK    2  A    between atoms: C_9  and  C_11
REMARK                            x       y       z     vdW  Elec       q    Type
REMARK                         _______ _______ _______ _____ _____    ______ ____
ROOT
ATOM      1  C   UNL     1       4.978   5.112  16.363  0.00  0.00    +0.000 C 
ATOM      2  C   UNL     1       5.164   6.652  16.287  0.00  0.00    +0.000 C 
ATOM      3  O   UNL     1       6.540   7.052  16.350  0.00  0.00    +0.000 OA
ATOM      4  C   UNL     1       7.175   6.559  17.538  0.00  0.00    +0.000 C 
ATOM      5  C   UNL     1       7.071   5.031  17.657  0.00  0.00    +0.000 C 
ATOM      6  N   UNL     1       5.667   4.607  17.560  0.00  0.00    +0.000 N 
ATOM      7  C   UNL     1       5.080   3.945  18.628  0.00  0.00    +0.000 C 
ATOM      8  O   UNL     1       5.687   3.708  19.667  0.00  0.00    +0.000 OA
ENDROOT
BRANCH   7   9
ATOM      9  C   UNL     1       3.657   3.563  18.572  0.00  0.00    +0.000 A 
ATOM     10  C   UNL     1       2.702   4.492  18.999  0.00  0.00    +0.000 A 
ATOM     11  C   UNL     1       1.366   4.149  18.885  0.00  0.00    +0.000 A 
ATOM     12  N   UNL     1       0.932   2.992  18.341  0.00  0.00    +0.000 NA
ATOM     13  C   UNL     1       1.879   2.096  17.974  0.00  0.00    +0.000 A 
ATOM     14  C   UNL     1       3.203   2.315  18.140  0.00  0.00    +0.000 A 
ATOM     15  F   UNL     1       4.033   1.308  17.820  0.00  0.00    +0.000 F 
ENDBRANCH   7   9
BRANCH   1  17
ATOM     16  C   UNL     1       6.166   3.904  14.103  0.00  0.00    +0.000 C 
ATOM     17  C   UNL     1       5.617   4.462  15.147  0.00  0.00    +0.000 C 
ENDBRANCH   1  17
TORSDOF 2
ENDMDL
MODEL 3
REMARK VINA RESULT:      -6.7      2.018      3.094
REMARK  Name = 
REMARK  2 active torsions:
REMARK  status: ('A' for Active; 'I' for Inactive)
REMARK    1  A    between atoms: C_2  and  C_3
REMARK    2  A    between atoms: C_9  and  C_11
REMARK                            x       y       z     vdW  Elec       q    Type
REMARK                         _______ _______ _______ _____ _____    ______ ____
ROOT
ATOM      1  C   UNL     1       5.185   4.720  18.038  0.00  0.00    +0.000 C 
ATOM      2  C   UNL     1       5.599   4.235  16.622  0.00  0.00    +0.000 C 
ATOM      3  O   UNL     1       6.132   5.287  15.805  0.00  0.00    +0.000 OA
ATOM      4  C   UNL     1       5.204   6.374  15.679  0.00  0.00    +0.000 C 
ATOM      5  C   UNL     1       4.784   6.936  17.045  0.00  0.00    +0.000 C 
ATOM      6  N   UNL     1       4.267   5.861  17.903  0.00  0.00    +0.000 N 
ATOM      7  C   UNL     1       2.956   5.919  18.353  0.00  0.00    +0.000 C 
ATOM      8  O   UNL     1       2.200   6.835  18.052  0.00  0.00    +0.000 OA
ENDROOT
BRANCH   7   9
ATOM      9  C   UNL     1       2.403   4.821  19.166  0.00  0.00    +0.000 A 
ATOM     10  C   UNL     1       2.528   4.894  20.557  0.00  0.00    +0.000 A 
ATOM     11  C   UNL     1       1.951   3.890  21.315  0.00  0.00    +0.000 A 
ATOM     12  N   UNL     1       1.234   2.873  20.793  0.00  0.00    +0.000 NA
ATOM     13  C   UNL     1       1.164   2.805  19.442  0.00  0.00    +0.000 A 
ATOM     14  C   UNL     1       1.779   3.693  18.628  0.00  0.00    +0.000 A 
ATOM     15  F   UNL     1       1.706   3.460  17.307  0.00  0.00    +0.000 F 
ENDBRANCH   7   9
BRANCH   1  17
ATOM     16  C   UNL     1       7.471   5.607  19.439  0.00  0.00    +0.000 C 
ATOM     17  C   UNL     1       6.416   5.197  18.792  0.00  0.00    +0.000 C 
ENDBRANCH   1  17
TORSDOF 2
ENDMDL
MODEL 4
REMARK VINA RESULT:      -6.6      2.398      5.311
REMARK  Name = 
REMARK  2 active torsions:
REMARK  status: ('A' for Active; 'I' for Inactive)
REMARK    1  A    between atoms: C_2  and  C_3
REMARK    2  A    between atoms: C_9  and  C_11
REMARK                            x       y       z     vdW  Elec       q    Type
REMARK                         _______ _______ _______ _____ _____    ______ ____
ROOT
ATOM      1  C   UNL     1       2.735   5.004  18.711  0.00  0.00    +0.000 C 
ATOM      2  C   UNL     1       1.595   4.371  17.866  0.00  0.00    +0.000 C 
ATOM      3  O   UNL     1       0.711   3.554  18.645  0.00  0.00    +0.000 OA
ATOM      4  C   UNL     1       1.425   2.513  19.328  0.00  0.00    +0.000 C 
ATOM      5  C   UNL     1       2.541   3.070  20.222  0.00  0.00    +0.000 C 
ATOM      6  N   UNL     1       3.436   3.937  19.442  0.00  0.00    +0.000 N 
ATOM      7  C   UNL     1       4.775   3.600  19.318  0.00  0.00    +0.000 C 
ATOM      8  O   UNL     1       5.247   2.590  19.829  0.00  0.00    +0.000 OA
ENDROOT
BRANCH   7   9
ATOM      9  C   UNL     1       5.674   4.425  18.491  0.00  0.00    +0.000 A 
ATOM     10  C   UNL     1       6.459   5.393  19.125  0.00  0.00    +0.000 A 
ATOM     11  C   UNL     1       7.345   6.121  18.350  0.00  0.00    +0.000 A 
ATOM     12  N   UNL     1       7.530   5.916  17.029  0.00  0.00    +0.000 NA
ATOM     13  C   UNL     1       6.728   5.001  16.435  0.00  0.00    +0.000 A 
ATOM     14  C   UNL     1       5.773   4.316  17.102  0.00  0.00    +0.000 A 
ATOM     15  F   UNL     1       4.984   3.505  16.377  0.00  0.00    +0.000 F 
ENDBRANCH   7   9
BRANCH   1  17
ATOM     16  C   UNL     1       1.630   6.776  20.612  0.00  0.00    +0.000 C 
ATOM     17  C   UNL     1       2.140   5.958  19.734  0.00  0.00    +0.000 C 
ENDBRANCH   1  17
TORSDOF 2
ENDMDL
MODEL 5
REMARK VINA RESULT:      -6.5      2.327      5.146
REMARK  Name = 
REMARK  2 active torsions:
REMARK  status: ('A' for Active; 'I' for Inactive)
REMARK    1  A    between atoms: C_2  and  C_3
REMARK    2  A    between atoms: C_9  and  C_11
REMARK                            x       y       z     vdW  Elec       q    Type
REMARK                         _______ _______ _______ _____ _____    ______ ____
ROOT
ATOM      1  C   UNL     1       2.860   5.164  18.492  0.00  0.00    +0.000 C 
ATOM      2  C   UNL     1       1.669   4.504  17.746  0.00  0.00    +0.000 C 
ATOM      3  O   UNL     1       0.803   3.766  18.619  0.00  0.00    +0.000 OA
ATOM      4  C   UNL     1       1.524   2.757  19.342  0.00  0.00    +0.000 C 
ATOM      5  C   UNL     1       2.693   3.345  20.144  0.00  0.00    +0.000 C 
ATOM      6  N   UNL     1       3.570   4.132  19.265  0.00  0.00    +0.000 N 
ATOM      7  C   UNL     1       4.894   3.753  19.105  0.00  0.00    +0.000 C 
ATOM      8  O   UNL     1       5.366   2.769  19.665  0.00  0.00    +0.000 OA
ENDROOT
BRANCH   7   9
ATOM      9  C   UNL     1       5.773   4.495  18.183  0.00  0.00    +0.000 A 
ATOM     10  C   UNL     1       5.682   4.222  16.815  0.00  0.00    +0.000 A 
ATOM     11  C   UNL     1       6.465   4.967  15.951  0.00  0.00    +0.000 A 
ATOM     12  N   UNL     1       7.273   5.972  16.348  0.00  0.00    +0.000 NA
ATOM     13  C   UNL     1       7.372   6.186  17.681  0.00  0.00    +0.000 A 
ATOM     14  C   UNL     1       6.713   5.441  18.597  0.00  0.00    +0.000 A 
ATOM     15  F   UNL     1       6.969   5.697  19.891  0.00  0.00    +0.000 F 
ENDBRANCH   7   9
BRANCH   1  17
ATOM     16  C   UNL     1       1.885   7.092  20.310  0.00  0.00    +0.000 C 
ATOM     17  C   UNL     1       2.336   6.202  19.471  0.00  0.00    +0.000 C 
ENDBRANCH   1  17
TORSDOF 2
ENDMDL
MODEL 6
REMARK VINA RESULT:      -6.4      1.907      2.886
REMARK  Name = 
REMARK  2 active torsions:
REMARK  status: ('A' for Active; 'I' for Inactive)
REMARK    1  A    between atoms: C_2  and  C_3
REMARK    2  A    between atoms: C_9  and  C_11
REMARK                            x       y       z     vdW  Elec       q    Type
REMARK                         _______ _______ _______ _____ _____    ______ ____
ROOT
ATOM      1  C   UNL     1       4.969   4.639  17.954  0.00  0.00    +0.000 C 
ATOM      2  C   UNL     1       5.486   4.172  16.566  0.00  0.00    +0.000 C 
ATOM      3  O   UNL     1       6.118   5.224  15.823  0.00  0.00    +0.000 OA
ATOM      4  C   UNL     1       5.237   6.344  15.647  0.00  0.00    +0.000 C 
ATOM      5  C   UNL     1       4.722   6.889  16.986  0.00  0.00    +0.000 C 
ATOM      6  N   UNL     1       4.101   5.812  17.770  0.00  0.00    +0.000 N 
ATOM      7  C   UNL     1       2.759   5.903  18.111  0.00  0.00    +0.000 C 
ATOM      8  O   UNL     1       2.059   6.850  17.770  0.00  0.00    +0.000 OA
ENDROOT
BRANCH   7   9
ATOM      9  C   UNL     1       2.105   4.805  18.846  0.00  0.00    +0.000 A 
ATOM     10  C   UNL     1       1.662   3.692  18.125  0.00  0.00    +0.000 A 
ATOM     11  C   UNL     1       1.106   2.640  18.831  0.00  0.00    +0.000 A 
ATOM     12  N   UNL     1       1.010   2.606  20.177  0.00  0.00    +0.000 NA
ATOM     13  C   UNL     1       1.409   3.714  20.846  0.00  0.00    +0.000 A 
ATOM     14  C   UNL     1       1.876   4.821  20.224  0.00  0.00    +0.000 A 
ATOM     15  F   UNL     1       2.151   5.884  20.997  0.00  0.00    +0.000 F 
ENDBRANCH   7   9
BRANCH   1  17
ATOM     16  C   UNL     1       7.154   5.419  19.563  0.00  0.00    +0.000 C 
ATOM     17  C   UNL     1       6.145   5.059  18.820  0.00  0.00    +0.000 C 
ENDBRANCH   1  17
TORSDOF 2
ENDMDL
MODEL 7
REMARK VINA RESULT:      -6.3      2.320      3.138
REMARK  Name = 
REMARK  2 active torsions:
REMARK  status: ('A' for Active; 'I' for Inactive)
REMARK    1  A    between atoms: C_2  and  C_3
REMARK    2  A    between atoms: C_9  and  C_11
REMARK                            x       y       z     vdW  Elec       q    Type
REMARK                         _______ _______ _______ _____ _____    ______ ____
ROOT
ATOM      1  C   UNL     1       4.522   5.348  18.601  0.00  0.00    +0.000 C 
ATOM      2  C   UNL     1       6.065   5.473  18.722  0.00  0.00    +0.000 C 
ATOM      3  O   UNL     1       6.720   5.551  17.448  0.00  0.00    +0.000 OA
ATOM      4  C   UNL     1       6.401   4.419  16.625  0.00  0.00    +0.000 C 
ATOM      5  C   UNL     1       4.888   4.261  16.423  0.00  0.00    +0.000 C 
ATOM      6  N   UNL     1       4.202   4.213  17.722  0.00  0.00    +0.000 N 
ATOM      7  C   UNL     1       3.482   3.080  18.072  0.00  0.00    +0.000 C 
ATOM      8  O   UNL     1       3.404   2.101  17.338  0.00  0.00    +0.000 OA
ENDROOT
BRANCH   7   9
ATOM      9  C   UNL     1       2.837   2.991  19.394  0.00  0.00    +0.000 A 
ATOM     10  C   UNL     1       1.517   3.434  19.521  0.00  0.00    +0.000 A 
ATOM     11  C   UNL     1       0.898   3.289  20.750  0.00  0.00    +0.000 A 
ATOM     12  N   UNL     1       1.477   2.702  21.817  0.00  0.00    +0.000 NA
ATOM     13  C   UNL     1       2.769   2.320  21.678  0.00  0.00    +0.000 A 
ATOM     14  C   UNL     1       3.475   2.511  20.540  0.00  0.00    +0.000 A 
ATOM     15  F   UNL     1       4.774   2.170  20.563  0.00  0.00    +0.000 F 
ENDBRANCH   7   9
BRANCH   1  17
ATOM     16  C   UNL     1       3.475   7.687  17.414  0.00  0.00    +0.000 C 
ATOM     17  C   UNL     1       3.958   6.607  17.962  0.00  0.00    +0.000 C 
ENDBRANCH   1  17
TORSDOF 2
ENDMDL
MODEL 8
REMARK VINA RESULT:      -6.3      2.033      2.762
REMARK  Name = 
REMARK  2 active torsions:
REMARK  status: ('A' for Active; 'I' for Inactive)
REMARK    1  A    between atoms: C_2  and  C_3
REMARK    2  A    between atoms: C_9  and  C_11
REMARK                            x       y       z     vdW  Elec       q    Type
REMARK                         _______ _______ _______ _____ _____    ______ ____
ROOT
ATOM      1  C   UNL     1       4.698   5.385  18.676  0.00  0.00    +0.000 C 
ATOM      2  C   UNL     1       6.182   5.557  19.100  0.00  0.00    +0.000 C 
ATOM      3  O   UNL     1       7.081   5.593  17.983  0.00  0.00    +0.000 OA
ATOM      4  C   UNL     1       6.955   4.415  17.172  0.00  0.00    +0.000 C 
ATOM      5  C   UNL     1       5.517   4.207  16.676  0.00  0.00    +0.000 C 
ATOM      6  N   UNL     1       4.583   4.202  17.810  0.00  0.00    +0.000 N 
ATOM      7  C   UNL     1       3.826   3.067  18.066  0.00  0.00    +0.000 C 
ATOM      8  O   UNL     1       3.916   2.052  17.383  0.00  0.00    +0.000 OA
ENDROOT
BRANCH   7   9
ATOM      9  C   UNL     1       2.927   3.022  19.233  0.00  0.00    +0.000 A 
ATOM     10  C   UNL     1       3.429   2.528  20.441  0.00  0.00    +0.000 A 
ATOM     11  C   UNL     1       2.597   2.548  21.546  0.00  0.00    +0.000 A 
ATOM     12  N   UNL     1       1.349   3.060  21.537  0.00  0.00    +0.000 NA
ATOM     13  C   UNL     1       0.874   3.494  20.345  0.00  0.00    +0.000 A 
ATOM     14  C   UNL     1       1.589   3.422  19.199  0.00  0.00    +0.000 A 
ATOM     15  F   UNL     1       0.969   3.801  18.069  0.00  0.00    +0.000 F 
ENDBRANCH   7   9
BRANCH   1  17
ATOM     16  C   UNL     1       3.874   7.636  17.183  0.00  0.00    +0.000 C 
ATOM     17  C   UNL     1       4.254   6.596  17.873  0.00  0.00    +0.000 C 
ENDBRANCH   1  17
TORSDOF 2
ENDMDL
MODEL 9
REMARK VINA RESULT:      -6.1      3.183      5.291
REMARK  Name = 
REMARK  2 active torsions:
REMARK  status: ('A' for Active; 'I' for Inactive)
REMARK    1  A    between atoms: C_2  and  C_3
REMARK    2  A    between atoms: C_9  and  C_11
REMARK                            x       y       z     vdW  Elec       q    Type
REMARK                         _______ _______ _______ _____ _____    ______ ____
ROOT
ATOM      1  C   UNL     1       1.717   4.090  19.361  0.00  0.00    +0.000 C 
ATOM      2  C   UNL     1       1.355   3.192  18.146  0.00  0.00    +0.000 C 
ATOM      3  O   UNL     1       2.216   2.052  18.019  0.00  0.00    +0.000 OA
ATOM      4  C   UNL     1       3.593   2.444  17.921  0.00  0.00    +0.000 C 
ATOM      5  C   UNL     1       4.036   3.299  19.117  0.00  0.00    +0.000 C 
ATOM      6  N   UNL     1       3.140   4.453  19.278  0.00  0.00    +0.000 N 
ATOM      7  C   UNL     1       3.655   5.737  19.170  0.00  0.00    +0.000 C 
ATOM      8  O   UNL     1       4.839   5.950  18.932  0.00  0.00    +0.000 OA
ENDROOT
BRANCH   7   9
ATOM      9  C   UNL     1       2.762   6.905  19.271  0.00  0.00    +0.000 A 
ATOM     10  C   UNL     1       2.066   7.109  20.466  0.00  0.00    +0.000 A 
ATOM     11  C   UNL     1       1.278   8.242  20.574  0.00  0.00    +0.000 A 
ATOM     12  N   UNL     1       1.181   9.183  19.612  0.00  0.00    +0.000 NA
ATOM     13  C   UNL     1       1.833   8.939  18.451  0.00  0.00    +0.000 A 
ATOM     14  C   UNL     1       2.547   7.812  18.230  0.00  0.00    +0.000 A 
ATOM     15  F   UNL     1       3.069   7.650  17.003  0.00  0.00    +0.000 F 
ENDBRANCH   7   9
BRANCH   1  17
ATOM     16  C   UNL     1       1.328   2.644  21.755  0.00  0.00    +0.000 C 
ATOM     17  C   UNL     1       1.508   3.312  20.649  0.00  0.00    +0.000 C 
ENDBRANCH   1  17
TORSDOF 2
ENDMDL
