MODEL 1
REMARK VINA RESULT:      -7.7      0.000      0.000
REMARK  Name = 
REMARK  8 active torsions:
REMARK  status: ('A' for Active; 'I' for Inactive)
REMARK    1  A    between atoms: C_1  and  C_2
REMARK    2  A    between atoms: C_2  and  C_3
REMARK    3  A    between atoms: C_19  and  C_20
REMARK    4  A    between atoms: C_20  and  C_21
REMARK    5  A    between atoms: C_20  and  C_23
REMARK    6  A    between atoms: C_21  and  O_22
REMARK    7  A    between atoms: C_23  and  O_25
REMARK    8  A    between atoms: O_25  and  C_26
REMARK                            x       y       z     vdW  Elec       q    Type
REMARK                         _______ _______ _______ _____ _____    ______ ____
ROOT
ATOM      1  C   UNL     1       7.008   4.927  18.218  0.00  0.00    +0.000 C 
ATOM      2  C   UNL     1       5.788   4.271  18.907  0.00  0.00    +0.000 C 
ATOM      3  N   UNL     1       4.706   5.224  19.092  0.00  0.00    +0.000 NA
ATOM      4  C   UNL     1       3.554   4.674  19.838  0.00  0.00    +0.000 C 
ATOM      5  C   UNL     1       2.752   5.832  20.477  0.00  0.00    +0.000 C 
ATOM      6  C   UNL     1       2.534   6.919  19.479  0.00  0.00    +0.000 A 
ATOM      7  C   UNL     1       3.236   6.947  18.286  0.00  0.00    +0.000 A 
ATOM      8  N   UNL     1       2.826   8.051  17.591  0.00  0.00    +0.000 N 
ATOM      9  C   UNL     1       1.930   8.777  18.346  0.00  0.00    +0.000 A 
ATOM     10  C   UNL     1       1.292   9.992  18.074  0.00  0.00    +0.000 A 
ATOM     11  C   UNL     1       0.457  10.524  19.063  0.00  0.00    +0.000 A 
ATOM     12  C   UNL     1       0.262   9.864  20.273  0.00  0.00    +0.000 A 
ATOM     13  C   UNL     1       0.892   8.643  20.527  0.00  0.00    +0.000 A 
ATOM     14  C   UNL     1       1.740   8.088  19.546  0.00  0.00    +0.000 A 
ATOM     15  C   UNL     1       4.260   5.929  17.863  0.00  0.00    +0.000 C 
ATOM     16  C   UNL     1       5.454   6.569  17.140  0.00  0.00    +0.000 C 
ATOM     17  C   UNL     1       6.573   5.544  16.853  0.00  0.00    +0.000 C 
ATOM     18  H   UNL     1       3.158   8.327  16.673  0.00  0.00    +0.000 HD
ENDROOT
BRANCH   1  20
ATOM     19  C   UNL     1       8.160   7.223  18.487  0.00  0.00    +0.000 C 
ATOM     20  C   UNL     1       7.680   5.952  19.175  0.00  0.00    +0.000 C 
ENDBRANCH   1  20
BRANCH  17  21
ATOM     21  C   UNL     1       6.182   4.446  15.810  0.00  0.00    +0.000 C 
BRANCH  21  22
ATOM     22  C   UNL     1       6.919   4.680  14.504  0.00  0.00    +0.000 C 
ATOM     23  O   UNL     1       7.784   5.529  14.340  0.00  0.00    +0.000 OA
BRANCH  22  24
ATOM     24  O   UNL     1       6.481   3.816  13.546  0.00  0.00    +0.000 OA
ATOM     25  C   UNL     1       6.983   4.095  12.238  0.00  0.00    +0.000 C 
ENDBRANCH  22  24
ENDBRANCH  21  22
BRANCH  21  26
ATOM     26  C   UNL     1       4.695   4.411  15.436  0.00  0.00    +0.000 C 
BRANCH  26  27
ATOM     27  O   UNL     1       3.947   3.524  16.259  0.00  0.00    +0.000 OA
ATOM     28  H   UNL     1       3.405   4.059  16.865  0.00  0.00    +0.000 HD
ENDBRANCH  26  27
ENDBRANCH  21  26
ENDBRANCH  17  21
TORSDOF 6
ENDMDL
MODEL 2
REMARK VINA RESULT:      -7.7      4.176      8.124
REMARK  Name = 
REMARK  8 active torsions:
REMARK  status: ('A' for Active; 'I' for Inactive)
REMARK    1  A    between atoms: C_1  and  C_2
REMARK    2  A    between atoms: C_2  and  C_3
REMARK    3  A    between atoms: C_19  and  C_20
REMARK    4  A    between atoms: C_20  and  C_21
REMARK    5  A    between atoms: C_20  and  C_23
REMARK    6  A    between atoms: C_21  and  O_22
REMARK    7  A    between atoms: C_23  and  O_25
REMARK    8  A    between atoms: O_25  and  C_26
REMARK                            x       y       z     vdW  Elec       q    Type
REMARK                         _______ _______ _______ _____ _____    ______ ____
ROOT
ATOM      1  C   UNL     1      -0.574  10.635  19.300  0.00  0.00    +0.000 C 
ATOM      2  C   UNL     1      -0.086   9.800  20.507  0.00  0.00    +0.000 C 
ATOM      3  N   UNL     1       0.754   8.692  20.081  0.00  0.00    +0.000 NA
ATOM      4  C   UNL     1       1.165   7.801  21.187  0.00  0.00    +0.000 C 
ATOM      5  C   UNL     1       1.528   6.408  20.622  0.00  0.00    +0.000 C 
ATOM      6  C   UNL     1       2.407   6.552  19.425  0.00  0.00    +0.000 A 
ATOM      7  C   UNL     1       2.571   7.777  18.801  0.00  0.00    +0.000 A 
ATOM      8  N   UNL     1       3.422   7.592  17.746  0.00  0.00    +0.000 N 
ATOM      9  C   UNL     1       3.747   6.258  17.632  0.00  0.00    +0.000 A 
ATOM     10  C   UNL     1       4.536   5.596  16.684  0.00  0.00    +0.000 A 
ATOM     11  C   UNL     1       4.653   4.206  16.792  0.00  0.00    +0.000 A 
ATOM     12  C   UNL     1       4.016   3.507  17.814  0.00  0.00    +0.000 A 
ATOM     13  C   UNL     1       3.245   4.180  18.765  0.00  0.00    +0.000 A 
ATOM     14  C   UNL     1       3.110   5.581  18.673  0.00  0.00    +0.000 A 
ATOM     15  C   UNL     1       1.916   9.061  19.232  0.00  0.00    +0.000 C 
ATOM     16  C   UNL     1       1.466   9.915  18.038  0.00  0.00    +0.000 C 
ATOM     17  C   UNL     1       0.652  11.150  18.484  0.00  0.00    +0.000 C 
ATOM     18  H   UNL     1       3.738   8.317  17.109  0.00  0.00    +0.000 HD
ENDROOT
BRANCH   1  20
ATOM     19  C   UNL     1      -2.137  10.565  17.246  0.00  0.00    +0.000 C 
ATOM     20  C   UNL     1      -1.584   9.814  18.450  0.00  0.00    +0.000 C 
ENDBRANCH   1  20
BRANCH  17  21
ATOM     21  C   UNL     1       1.483  12.210  19.279  0.00  0.00    +0.000 C 
BRANCH  21  22
ATOM     22  C   UNL     1       0.596  13.372  19.684  0.00  0.00    +0.000 C 
ATOM     23  O   UNL     1       0.327  13.667  20.841  0.00  0.00    +0.000 OA
BRANCH  22  24
ATOM     24  O   UNL     1       0.141  14.035  18.584  0.00  0.00    +0.000 OA
ATOM     25  C   UNL     1      -0.121  15.421  18.807  0.00  0.00    +0.000 C 
ENDBRANCH  22  24
ENDBRANCH  21  22
BRANCH  21  26
ATOM     26  C   UNL     1       2.644  12.839  18.499  0.00  0.00    +0.000 C 
BRANCH  26  27
ATOM     27  O   UNL     1       2.353  12.985  17.114  0.00  0.00    +0.000 OA
ATOM     28  H   UNL     1       1.874  13.823  16.992  0.00  0.00    +0.000 HD
ENDBRANCH  26  27
ENDBRANCH  21  26
ENDBRANCH  17  21
TORSDOF 6
ENDMDL
MODEL 3
REMARK VINA RESULT:      -7.4      1.069      1.274
REMARK  Name = 
REMARK  8 active torsions:
REMARK  status: ('A' for Active; 'I' for Inactive)
REMARK    1  A    between atoms: C_1  and  C_2
REMARK    2  A    between atoms: C_2  and  C_3
REMARK    3  A    between atoms: C_19  and  C_20
REMARK    4  A    between atoms: C_20  and  C_21
REMARK    5  A    between atoms: C_20  and  C_23
REMARK    6  A    between atoms: C_21  and  O_22
REMARK    7  A    between atoms: C_23  and  O_25
REMARK    8  A    between atoms: O_25  and  C_26
REMARK                            x       y       z     vdW  Elec       q    Type
REMARK                         _______ _______ _______ _____ _____    ______ ____
ROOT
ATOM      1  C   UNL     1       6.308   4.714  18.387  0.00  0.00    +0.000 C 
ATOM      2  C   UNL     1       5.042   4.003  18.921  0.00  0.00    +0.000 C 
ATOM      3  N   UNL     1       4.030   4.960  19.335  0.00  0.00    +0.000 NA
ATOM      4  C   UNL     1       2.838   4.335  19.948  0.00  0.00    +0.000 C 
ATOM      5  C   UNL     1       2.119   5.366  20.849  0.00  0.00    +0.000 C 
ATOM      6  C   UNL     1       1.983   6.668  20.133  0.00  0.00    +0.000 A 
ATOM      7  C   UNL     1       2.689   6.923  18.970  0.00  0.00    +0.000 A 
ATOM      8  N   UNL     1       2.362   8.184  18.556  0.00  0.00    +0.000 N 
ATOM      9  C   UNL     1       1.517   8.776  19.470  0.00  0.00    +0.000 A 
ATOM     10  C   UNL     1       0.968  10.063  19.495  0.00  0.00    +0.000 A 
ATOM     11  C   UNL     1       0.170  10.408  20.592  0.00  0.00    +0.000 A 
ATOM     12  C   UNL     1      -0.077   9.499  21.617  0.00  0.00    +0.000 A 
ATOM     13  C   UNL     1       0.463   8.212  21.573  0.00  0.00    +0.000 A 
ATOM     14  C   UNL     1       1.274   7.842  20.479  0.00  0.00    +0.000 A 
ATOM     15  C   UNL     1       3.640   5.962  18.309  0.00  0.00    +0.000 C 
ATOM     16  C   UNL     1       4.879   6.666  17.740  0.00  0.00    +0.000 C 
ATOM     17  C   UNL     1       5.924   5.660  17.208  0.00  0.00    +0.000 C 
ATOM     18  H   UNL     1       2.717   8.642  17.722  0.00  0.00    +0.000 HD
ENDROOT
BRANCH   1  20
ATOM     19  C   UNL     1       8.145   6.389  19.087  0.00  0.00    +0.000 C 
ATOM     20  C   UNL     1       7.048   5.438  19.547  0.00  0.00    +0.000 C 
ENDBRANCH   1  20
BRANCH  17  21
ATOM     21  C   UNL     1       5.459   4.865  15.945  0.00  0.00    +0.000 C 
BRANCH  21  22
ATOM     22  C   UNL     1       6.664   4.357  15.175  0.00  0.00    +0.000 C 
ATOM     23  O   UNL     1       7.823   4.662  15.423  0.00  0.00    +0.000 OA
BRANCH  22  24
ATOM     24  O   UNL     1       6.275   3.519  14.173  0.00  0.00    +0.000 OA
ATOM     25  C   UNL     1       6.757   3.894  12.882  0.00  0.00    +0.000 C 
ENDBRANCH  22  24
ENDBRANCH  21  22
BRANCH  21  26
ATOM     26  C   UNL     1       4.645   5.678  14.932  0.00  0.00    +0.000 C 
BRANCH  26  27
ATOM     27  O   UNL     1       5.174   6.983  14.730  0.00  0.00    +0.000 OA
ATOM     28  H   UNL     1       6.092   6.992  15.053  0.00  0.00    +0.000 HD
ENDBRANCH  26  27
ENDBRANCH  21  26
ENDBRANCH  17  21
TORSDOF 6
ENDMDL
MODEL 4
REMARK VINA RESULT:      -7.2      4.522      8.329
REMARK  Name = 
REMARK  8 active torsions:
REMARK  status: ('A' for Active; 'I' for Inactive)
REMARK    1  A    between atoms: C_1  and  C_2
REMARK    2  A    between atoms: C_2  and  C_3
REMARK    3  A    between atoms: C_19  and  C_20
REMARK    4  A    between atoms: C_20  and  C_21
REMARK    5  A    between atoms: C_20  and  C_23
REMARK    6  A    between atoms: C_21  and  O_22
REMARK    7  A    between atoms: C_23  and  O_25
REMARK    8  A    between atoms: O_25  and  C_26
REMARK                            x       y       z     vdW  Elec       q    Type
REMARK                         _______ _______ _______ _____ _____    ______ ____
ROOT
ATOM      1  C   UNL     1      -0.631  11.294  19.434  0.00  0.00    +0.000 C 
ATOM      2  C   UNL     1      -0.124  10.590  20.715  0.00  0.00    +0.000 C 
ATOM      3  N   UNL     1       0.556   9.344  20.402  0.00  0.00    +0.000 NA
ATOM      4  C   UNL     1       0.973   8.580  21.598  0.00  0.00    +0.000 C 
ATOM      5  C   UNL     1       1.139   7.088  21.227  0.00  0.00    +0.000 C 
ATOM      6  C   UNL     1       1.916   6.957  19.960  0.00  0.00    +0.000 A 
ATOM      7  C   UNL     1       2.148   8.052  19.146  0.00  0.00    +0.000 A 
ATOM      8  N   UNL     1       2.876   7.622  18.072  0.00  0.00    +0.000 N 
ATOM      9  C   UNL     1       3.052   6.257  18.138  0.00  0.00    +0.000 A 
ATOM     10  C   UNL     1       3.680   5.380  17.247  0.00  0.00    +0.000 A 
ATOM     11  C   UNL     1       3.665   4.015  17.558  0.00  0.00    +0.000 A 
ATOM     12  C   UNL     1       3.054   3.548  18.718  0.00  0.00    +0.000 A 
ATOM     13  C   UNL     1       2.445   4.435  19.610  0.00  0.00    +0.000 A 
ATOM     14  C   UNL     1       2.446   5.815  19.316  0.00  0.00    +0.000 A 
ATOM     15  C   UNL     1       1.668   9.451  19.423  0.00  0.00    +0.000 C 
ATOM     16  C   UNL     1       1.202  10.171  18.150  0.00  0.00    +0.000 C 
ATOM     17  C   UNL     1       0.562  11.542  18.461  0.00  0.00    +0.000 C 
ATOM     18  H   UNL     1       3.206   8.206  17.310  0.00  0.00    +0.000 HD
ENDROOT
BRANCH   1  20
ATOM     19  C   UNL     1      -2.378  11.112  17.541  0.00  0.00    +0.000 C 
ATOM     20  C   UNL     1      -1.792  10.480  18.797  0.00  0.00    +0.000 C 
ENDBRANCH   1  20
BRANCH  17  21
ATOM     21  C   UNL     1       1.566  12.603  19.021  0.00  0.00    +0.000 C 
BRANCH  21  22
ATOM     22  C   UNL     1       0.888  13.956  19.129  0.00  0.00    +0.000 C 
ATOM     23  O   UNL     1      -0.007  14.343  18.390  0.00  0.00    +0.000 OA
BRANCH  22  24
ATOM     24  O   UNL     1       1.416  14.677  20.158  0.00  0.00    +0.000 OA
ATOM     25  C   UNL     1       1.104  16.069  20.114  0.00  0.00    +0.000 C 
ENDBRANCH  22  24
ENDBRANCH  21  22
BRANCH  21  26
ATOM     26  C   UNL     1       2.807  12.840  18.153  0.00  0.00    +0.000 C 
BRANCH  26  27
ATOM     27  O   UNL     1       2.889  14.176  17.672  0.00  0.00    +0.000 OA
ATOM     28  H   UNL     1       2.396  14.227  16.835  0.00  0.00    +0.000 HD
ENDBRANCH  26  27
ENDBRANCH  21  26
ENDBRANCH  17  21
TORSDOF 6
ENDMDL
MODEL 5
REMARK VINA RESULT:      -7.1      7.212     11.540
REMARK  Name = 
REMARK  8 active torsions:
REMARK  status: ('A' for Active; 'I' for Inactive)
REMARK    1  A    between atoms: C_1  and  C_2
REMARK    2  A    between atoms: C_2  and  C_3
REMARK    3  A    between atoms: C_19  and  C_20
REMARK    4  A    between atoms: C_20  and  C_21
REMARK    5  A    between atoms: C_20  and  C_23
REMARK    6  A    between atoms: C_21  and  O_22
REMARK    7  A    between atoms: C_23  and  O_25
REMARK    8  A    between atoms: O_25  and  C_26
REMARK                            x       y       z     vdW  Elec       q    Type
REMARK                         _______ _______ _______ _____ _____    ______ ____
ROOT
ATOM      1  C   UNL     1      -1.406  14.830  22.368  0.00  0.00    +0.000 C 
ATOM      2  C   UNL     1      -1.828  14.445  20.931  0.00  0.00    +0.000 C 
ATOM      3  N   UNL     1      -1.191  13.210  20.503  0.00  0.00    +0.000 NA
ATOM      4  C   UNL     1      -1.482  12.849  19.099  0.00  0.00    +0.000 C 
ATOM      5  C   UNL     1      -0.370  11.917  18.564  0.00  0.00    +0.000 C 
ATOM      6  C   UNL     1      -0.079  10.842  19.557  0.00  0.00    +0.000 A 
ATOM      7  C   UNL     1      -0.552  10.919  20.856  0.00  0.00    +0.000 A 
ATOM      8  N   UNL     1      -0.125   9.803  21.519  0.00  0.00    +0.000 N 
ATOM      9  C   UNL     1       0.680   9.045  20.695  0.00  0.00    +0.000 A 
ATOM     10  C   UNL     1       1.378   7.859  20.952  0.00  0.00    +0.000 A 
ATOM     11  C   UNL     1       2.166   7.333  19.922  0.00  0.00    +0.000 A 
ATOM     12  C   UNL     1       2.245   7.961  18.682  0.00  0.00    +0.000 A 
ATOM     13  C   UNL     1       1.530   9.136  18.432  0.00  0.00    +0.000 A 
ATOM     14  C   UNL     1       0.732   9.687  19.456  0.00  0.00    +0.000 A 
ATOM     15  C   UNL     1      -1.384  12.046  21.405  0.00  0.00    +0.000 C 
ATOM     16  C   UNL     1      -0.999  12.406  22.847  0.00  0.00    +0.000 C 
ATOM     17  C   UNL     1      -1.742  13.664  23.348  0.00  0.00    +0.000 C 
ATOM     18  H   UNL     1      -0.327   9.578  22.487  0.00  0.00    +0.000 HD
ENDROOT
BRANCH   1  20
ATOM     19  C   UNL     1       0.441  16.365  21.419  0.00  0.00    +0.000 C 
ATOM     20  C   UNL     1       0.091  15.250  22.395  0.00  0.00    +0.000 C 
ENDBRANCH   1  20
BRANCH  17  21
ATOM     21  C   UNL     1      -3.284  13.468  23.520  0.00  0.00    +0.000 C 
BRANCH  21  22
ATOM     22  C   UNL     1      -3.859  14.582  24.375  0.00  0.00    +0.000 C 
ATOM     23  O   UNL     1      -3.298  15.070  25.347  0.00  0.00    +0.000 OA
BRANCH  22  24
ATOM     24  O   UNL     1      -5.084  14.959  23.912  0.00  0.00    +0.000 OA
ATOM     25  C   UNL     1      -5.191  14.963  22.488  0.00  0.00    +0.000 C 
ENDBRANCH  22  24
ENDBRANCH  21  22
BRANCH  21  26
ATOM     26  C   UNL     1      -3.697  12.168  24.218  0.00  0.00    +0.000 C 
BRANCH  26  27
ATOM     27  O   UNL     1      -4.492  12.399  25.375  0.00  0.00    +0.000 OA
ATOM     28  H   UNL     1      -4.170  11.817  26.086  0.00  0.00    +0.000 HD
ENDBRANCH  26  27
ENDBRANCH  21  26
ENDBRANCH  17  21
TORSDOF 6
ENDMDL
MODEL 6
REMARK VINA RESULT:      -7.1      2.109      4.335
REMARK  Name = 
REMARK  8 active torsions:
REMARK  status: ('A' for Active; 'I' for Inactive)
REMARK    1  A    between atoms: C_1  and  C_2
REMARK    2  A    between atoms: C_2  and  C_3
REMARK    3  A    between atoms: C_19  and  C_20
REMARK    4  A    between atoms: C_20  and  C_21
REMARK    5  A    between atoms: C_20  and  C_23
REMARK    6  A    between atoms: C_21  and  O_22
REMARK    7  A    between atoms: C_23  and  O_25
REMARK    8  A    between atoms: O_25  and  C_26
REMARK                            x       y       z     vdW  Elec       q    Type
REMARK                         _______ _______ _______ _____ _____    ______ ____
ROOT
ATOM      1  C   UNL     1       2.736   4.688  17.863  0.00  0.00    +0.000 C 
ATOM      2  C   UNL     1       2.978   6.131  17.357  0.00  0.00    +0.000 C 
ATOM      3  N   UNL     1       2.330   7.109  18.214  0.00  0.00    +0.000 NA
ATOM      4  C   UNL     1       2.445   8.498  17.720  0.00  0.00    +0.000 C 
ATOM      5  C   UNL     1       1.303   9.355  18.315  0.00  0.00    +0.000 C 
ATOM      6  C   UNL     1       1.179   9.101  19.780  0.00  0.00    +0.000 A 
ATOM      7  C   UNL     1       1.816   8.027  20.377  0.00  0.00    +0.000 A 
ATOM      8  N   UNL     1       1.516   8.057  21.710  0.00  0.00    +0.000 N 
ATOM      9  C   UNL     1       0.634   9.084  21.971  0.00  0.00    +0.000 A 
ATOM     10  C   UNL     1       0.015   9.464  23.167  0.00  0.00    +0.000 A 
ATOM     11  C   UNL     1      -0.885  10.535  23.122  0.00  0.00    +0.000 A 
ATOM     12  C   UNL     1      -1.147  11.206  21.930  0.00  0.00    +0.000 A 
ATOM     13  C   UNL     1      -0.509  10.829  20.746  0.00  0.00    +0.000 A 
ATOM     14  C   UNL     1       0.399   9.749  20.766  0.00  0.00    +0.000 A 
ATOM     15  C   UNL     1       2.677   7.025  19.657  0.00  0.00    +0.000 C 
ATOM     16  C   UNL     1       2.474   5.597  20.181  0.00  0.00    +0.000 C 
ATOM     17  C   UNL     1       3.236   4.555  19.334  0.00  0.00    +0.000 C 
ATOM     18  H   UNL     1       1.851   7.398  22.406  0.00  0.00    +0.000 HD
ENDROOT
BRANCH   1  20
ATOM     19  C   UNL     1       0.837   3.029  18.417  0.00  0.00    +0.000 C 
ATOM     20  C   UNL     1       1.243   4.296  17.677  0.00  0.00    +0.000 C 
ENDBRANCH   1  20
BRANCH  17  21
ATOM     21  C   UNL     1       4.793   4.662  19.438  0.00  0.00    +0.000 C 
BRANCH  21  22
ATOM     22  C   UNL     1       5.408   4.679  18.051  0.00  0.00    +0.000 C 
ATOM     23  O   UNL     1       5.352   3.750  17.257  0.00  0.00    +0.000 OA
BRANCH  22  24
ATOM     24  O   UNL     1       6.032   5.868  17.817  0.00  0.00    +0.000 OA
ATOM     25  C   UNL     1       6.888   5.861  16.674  0.00  0.00    +0.000 C 
ENDBRANCH  22  24
ENDBRANCH  21  22
BRANCH  21  26
ATOM     26  C   UNL     1       5.474   3.500  20.169  0.00  0.00    +0.000 C 
BRANCH  26  27
ATOM     27  O   UNL     1       5.007   2.230  19.729  0.00  0.00    +0.000 OA
ATOM     28  H   UNL     1       4.666   2.330  18.822  0.00  0.00    +0.000 HD
ENDBRANCH  26  27
ENDBRANCH  21  26
ENDBRANCH  17  21
TORSDOF 6
ENDMDL
MODEL 7
REMARK VINA RESULT:      -7.0      6.690      9.237
REMARK  Name = 
REMARK  8 active torsions:
REMARK  status: ('A' for Active; 'I' for Inactive)
REMARK    1  A    between atoms: C_1  and  C_2
REMARK    2  A    between atoms: C_2  and  C_3
REMARK    3  A    between atoms: C_19  and  C_20
REMARK    4  A    between atoms: C_20  and  C_21
REMARK    5  A    between atoms: C_20  and  C_23
REMARK    6  A    between atoms: C_21  and  O_22
REMARK    7  A    between atoms: C_23  and  O_25
REMARK    8  A    between atoms: O_25  and  C_26
REMARK                            x       y       z     vdW  Elec       q    Type
REMARK                         _______ _______ _______ _____ _____    ______ ____
ROOT
ATOM      1  C   UNL     1       0.936  10.256  19.738  0.00  0.00    +0.000 C 
ATOM      2  C   UNL     1       0.285  10.042  18.351  0.00  0.00    +0.000 C 
ATOM      3  N   UNL     1      -1.120  10.413  18.361  0.00  0.00    +0.000 NA
ATOM      4  C   UNL     1      -1.816  10.133  17.087  0.00  0.00    +0.000 C 
ATOM      5  C   UNL     1      -3.335  10.001  17.345  0.00  0.00    +0.000 C 
ATOM      6  C   UNL     1      -3.808  11.118  18.214  0.00  0.00    +0.000 A 
ATOM      7  C   UNL     1      -2.911  11.927  18.891  0.00  0.00    +0.000 A 
ATOM      8  N   UNL     1      -3.636  12.846  19.597  0.00  0.00    +0.000 N 
ATOM      9  C   UNL     1      -4.984  12.598  19.449  0.00  0.00    +0.000 A 
ATOM     10  C   UNL     1      -6.091  13.238  20.018  0.00  0.00    +0.000 A 
ATOM     11  C   UNL     1      -7.360  12.730  19.719  0.00  0.00    +0.000 A 
ATOM     12  C   UNL     1      -7.517  11.633  18.876  0.00  0.00    +0.000 A 
ATOM     13  C   UNL     1      -6.405  11.013  18.300  0.00  0.00    +0.000 A 
ATOM     14  C   UNL     1      -5.115  11.505  18.590  0.00  0.00    +0.000 A 
ATOM     15  C   UNL     1      -1.414  11.789  18.839  0.00  0.00    +0.000 C 
ATOM     16  C   UNL     1      -0.757  12.041  20.204  0.00  0.00    +0.000 C 
ATOM     17  C   UNL     1       0.758  11.741  20.181  0.00  0.00    +0.000 C 
ATOM     18  H   UNL     1      -3.249  13.580  20.181  0.00  0.00    +0.000 HD
ENDROOT
BRANCH   1  20
ATOM     19  C   UNL     1       1.375   8.174  21.202  0.00  0.00    +0.000 C 
ATOM     20  C   UNL     1       0.371   9.232  20.762  0.00  0.00    +0.000 C 
ENDBRANCH   1  20
BRANCH  17  21
ATOM     21  C   UNL     1       1.590  12.723  19.293  0.00  0.00    +0.000 C 
BRANCH  21  22
ATOM     22  C   UNL     1       2.630  13.437  20.137  0.00  0.00    +0.000 C 
ATOM     23  O   UNL     1       2.664  13.413  21.360  0.00  0.00    +0.000 OA
BRANCH  22  24
ATOM     24  O   UNL     1       3.513  14.107  19.345  0.00  0.00    +0.000 OA
ATOM     25  C   UNL     1       4.426  14.936  20.065  0.00  0.00    +0.000 C 
ENDBRANCH  22  24
ENDBRANCH  21  22
BRANCH  21  26
ATOM     26  C   UNL     1       0.777  13.837  18.623  0.00  0.00    +0.000 C 
BRANCH  26  27
ATOM     27  O   UNL     1       0.854  15.068  19.331  0.00  0.00    +0.000 OA
ATOM     28  H   UNL     1       1.593  15.584  18.964  0.00  0.00    +0.000 HD
ENDBRANCH  26  27
ENDBRANCH  21  26
ENDBRANCH  17  21
TORSDOF 6
ENDMDL
MODEL 8
REMARK VINA RESULT:      -7.0      7.225     11.670
REMARK  Name = 
REMARK  8 active torsions:
REMARK  status: ('A' for Active; 'I' for Inactive)
REMARK    1  A    between atoms: C_1  and  C_2
REMARK    2  A    between atoms: C_2  and  C_3
REMARK    3  A    between atoms: C_19  and  C_20
REMARK    4  A    between atoms: C_20  and  C_21
REMARK    5  A    between atoms: C_20  and  C_23
REMARK    6  A    between atoms: C_21  and  O_22
REMARK    7  A    between atoms: C_23  and  O_25
REMARK    8  A    between atoms: O_25  and  C_26
REMARK                            x       y       z     vdW  Elec       q    Type
REMARK                         _______ _______ _______ _____ _____    ______ ____
ROOT
ATOM      1  C   UNL     1      -1.761  14.799  21.991  0.00  0.00    +0.000 C 
ATOM      2  C   UNL     1      -2.231  14.292  20.607  0.00  0.00    +0.000 C 
ATOM      3  N   UNL     1      -1.522  13.085  20.215  0.00  0.00    +0.000 NA
ATOM      4  C   UNL     1      -1.861  12.615  18.855  0.00  0.00    +0.000 C 
ATOM      5  C   UNL     1      -0.710  11.738  18.308  0.00  0.00    +0.000 C 
ATOM      6  C   UNL     1      -0.279  10.754  19.343  0.00  0.00    +0.000 A 
ATOM      7  C   UNL     1      -0.683  10.877  20.662  0.00  0.00    +0.000 A 
ATOM      8  N   UNL     1      -0.131   9.840  21.362  0.00  0.00    +0.000 N 
ATOM      9  C   UNL     1       0.685   9.096  20.537  0.00  0.00    +0.000 A 
ATOM     10  C   UNL     1       1.488   7.985  20.819  0.00  0.00    +0.000 A 
ATOM     11  C   UNL     1       2.256   7.457  19.776  0.00  0.00    +0.000 A 
ATOM     12  C   UNL     1       2.216   8.010  18.499  0.00  0.00    +0.000 A 
ATOM     13  C   UNL     1       1.396   9.108  18.224  0.00  0.00    +0.000 A 
ATOM     14  C   UNL     1       0.615   9.660  19.261  0.00  0.00    +0.000 A 
ATOM     15  C   UNL     1      -1.571  11.968  21.194  0.00  0.00    +0.000 C 
ATOM     16  C   UNL     1      -1.135  12.448  22.586  0.00  0.00    +0.000 C 
ATOM     17  C   UNL     1      -1.947  13.674  23.056  0.00  0.00    +0.000 C 
ATOM     18  H   UNL     1      -0.260   9.662  22.352  0.00  0.00    +0.000 HD
ENDROOT
BRANCH   1  20
ATOM     19  C   UNL     1       0.132  16.154  23.108  0.00  0.00    +0.000 C 
ATOM     20  C   UNL     1      -0.303  15.332  21.902  0.00  0.00    +0.000 C 
ENDBRANCH   1  20
BRANCH  17  21
ATOM     21  C   UNL     1      -3.457  13.373  23.333  0.00  0.00    +0.000 C 
BRANCH  21  22
ATOM     22  C   UNL     1      -4.121  14.578  23.973  0.00  0.00    +0.000 C 
ATOM     23  O   UNL     1      -5.175  15.069  23.594  0.00  0.00    +0.000 OA
BRANCH  22  24
ATOM     24  O   UNL     1      -3.380  15.033  25.022  0.00  0.00    +0.000 OA
ATOM     25  C   UNL     1      -3.363  16.456  25.148  0.00  0.00    +0.000 C 
ENDBRANCH  22  24
ENDBRANCH  21  22
BRANCH  21  26
ATOM     26  C   UNL     1      -3.717  12.208  24.295  0.00  0.00    +0.000 C 
BRANCH  26  27
ATOM     27  O   UNL     1      -4.796  12.467  25.185  0.00  0.00    +0.000 OA
ATOM     28  H   UNL     1      -4.435  12.541  26.086  0.00  0.00    +0.000 HD
ENDBRANCH  26  27
ENDBRANCH  21  26
ENDBRANCH  17  21
TORSDOF 6
ENDMDL
MODEL 9
REMARK VINA RESULT:      -6.9      9.361     12.170
REMARK  Name = 
REMARK  8 active torsions:
REMARK  status: ('A' for Active; 'I' for Inactive)
REMARK    1  A    between atoms: C_1  and  C_2
REMARK    2  A    between atoms: C_2  and  C_3
REMARK    3  A    between atoms: C_19  and  C_20
REMARK    4  A    between atoms: C_20  and  C_21
REMARK    5  A    between atoms: C_20  and  C_23
REMARK    6  A    between atoms: C_21  and  O_22
REMARK    7  A    between atoms: C_23  and  O_25
REMARK    8  A    between atoms: O_25  and  C_26
REMARK                            x       y       z     vdW  Elec       q    Type
REMARK                         _______ _______ _______ _____ _____    ______ ____
ROOT
ATOM      1  C   UNL     1       7.886  13.949  26.495  0.00  0.00    +0.000 C 
ATOM      2  C   UNL     1       7.546  14.970  25.383  0.00  0.00    +0.000 C 
ATOM      3  N   UNL     1       8.293  14.698  24.166  0.00  0.00    +0.000 NA
ATOM      4  C   UNL     1       8.082  15.705  23.104  0.00  0.00    +0.000 C 
ATOM      5  C   UNL     1       9.282  15.687  22.128  0.00  0.00    +0.000 C 
ATOM      6  C   UNL     1       9.622  14.283  21.757  0.00  0.00    +0.000 A 
ATOM      7  C   UNL     1       9.099  13.210  22.458  0.00  0.00    +0.000 A 
ATOM      8  N   UNL     1       9.590  12.067  21.891  0.00  0.00    +0.000 N 
ATOM      9  C   UNL     1      10.480  12.383  20.888  0.00  0.00    +0.000 A 
ATOM     10  C   UNL     1      11.260  11.554  20.074  0.00  0.00    +0.000 A 
ATOM     11  C   UNL     1      12.123  12.167  19.158  0.00  0.00    +0.000 A 
ATOM     12  C   UNL     1      12.196  13.554  19.054  0.00  0.00    +0.000 A 
ATOM     13  C   UNL     1      11.400  14.371  19.860  0.00  0.00    +0.000 A 
ATOM     14  C   UNL     1      10.525  13.776  20.793  0.00  0.00    +0.000 A 
ATOM     15  C   UNL     1       8.161  13.319  23.629  0.00  0.00    +0.000 C 
ATOM     16  C   UNL     1       8.466  12.281  24.719  0.00  0.00    +0.000 C 
ATOM     17  C   UNL     1       7.609  12.502  25.985  0.00  0.00    +0.000 C 
ATOM     18  H   UNL     1       9.372  11.121  22.187  0.00  0.00    +0.000 HD
ENDROOT
BRANCH   1  20
ATOM     19  C   UNL     1       9.672  15.605  27.354  0.00  0.00    +0.000 C 
ATOM     20  C   UNL     1       9.344  14.162  26.993  0.00  0.00    +0.000 C 
ENDBRANCH   1  20
BRANCH  17  21
ATOM     21  C   UNL     1       6.082  12.235  25.776  0.00  0.00    +0.000 C 
BRANCH  21  22
ATOM     22  C   UNL     1       5.435  11.846  27.093  0.00  0.00    +0.000 C 
ATOM     23  O   UNL     1       5.955  11.125  27.933  0.00  0.00    +0.000 OA
BRANCH  22  24
ATOM     24  O   UNL     1       4.199  12.410  27.205  0.00  0.00    +0.000 OA
ATOM     25  C   UNL     1       4.100  13.393  28.235  0.00  0.00    +0.000 C 
ENDBRANCH  22  24
ENDBRANCH  21  22
BRANCH  21  26
ATOM     26  C   UNL     1       5.751  11.092  24.809  0.00  0.00    +0.000 C 
BRANCH  26  27
ATOM     27  O   UNL     1       4.740  10.227  25.313  0.00  0.00    +0.000 OA
ATOM     28  H   UNL     1       3.961  10.302  24.735  0.00  0.00    +0.000 HD
ENDBRANCH  26  27
ENDBRANCH  21  26
ENDBRANCH  17  21
TORSDOF 6
ENDMDL
