MODEL 1
REMARK VINA RESULT:      -6.3      0.000      0.000
REMARK  Name = 
REMARK  3 active torsions:
REMARK  status: ('A' for Active; 'I' for Inactive)
REMARK    1  A    between atoms: C_1  and  N_2
REMARK    2  A    between atoms: N_11  and  C_12
REMARK    3  A    between atoms: C_12  and  C_13
REMARK                            x       y       z     vdW  Elec       q    Type
REMARK                         _______ _______ _______ _____ _____    ______ ____
ROOT
ATOM      1  C   UNL     1       3.853   2.393  17.408  0.00  0.00    +0.000 C 
ATOM      2  N   UNL     1       4.386   3.745  17.405  0.00  0.00    +0.000 N 
ATOM      3  C   UNL     1       4.083   4.491  18.540  0.00  0.00    +0.000 C 
ATOM      4  O   UNL     1       3.920   4.006  19.659  0.00  0.00    +0.000 OA
ATOM      5  C   UNL     1       3.640   5.865  18.331  0.00  0.00    +0.000 A 
ATOM      6  C   UNL     1       2.377   6.233  18.803  0.00  0.00    +0.000 A 
ATOM      7  C   UNL     1       1.916   7.523  18.575  0.00  0.00    +0.000 A 
ATOM      8  C   UNL     1       2.770   8.391  17.918  0.00  0.00    +0.000 A 
ATOM      9  N   UNL     1       4.024   8.065  17.514  0.00  0.00    +0.000 NA
ATOM     10  C   UNL     1       4.453   6.791  17.703  0.00  0.00    +0.000 A 
ATOM     11  N   UNL     1       5.738   6.401  17.286  0.00  0.00    +0.000 N 
ATOM     12  C   UNL     1       5.901   5.437  16.271  0.00  0.00    +0.000 A 
ATOM     13  N   UNL     1       6.749   5.750  15.250  0.00  0.00    +0.000 NA
ATOM     14  C   UNL     1       6.915   4.880  14.237  0.00  0.00    +0.000 A 
ATOM     15  C   UNL     1       6.282   3.662  14.176  0.00  0.00    +0.000 A 
ATOM     16  C   UNL     1       5.430   3.322  15.219  0.00  0.00    +0.000 A 
ATOM     17  C   UNL     1       5.208   4.195  16.302  0.00  0.00    +0.000 A 
ENDROOT
BRANCH  11  18
ATOM     18  C   UNL     1       6.738   7.479  17.347  0.00  0.00    +0.000 C 
BRANCH  18  19
ATOM     19  C   UNL     1       7.889   7.067  18.273  0.00  0.00    +0.000 C 
ATOM     20  F   UNL     1       8.599   8.170  18.637  0.00  0.00    +0.000 F 
ENDBRANCH  18  19
ENDBRANCH  11  18
TORSDOF 2
ENDMDL
MODEL 2
REMARK VINA RESULT:      -5.9      7.557      9.430
REMARK  Name = 
REMARK  3 active torsions:
REMARK  status: ('A' for Active; 'I' for Inactive)
REMARK    1  A    between atoms: C_1  and  N_2
REMARK    2  A    between atoms: N_11  and  C_12
REMARK    3  A    between atoms: C_12  and  C_13
REMARK                            x       y       z     vdW  Elec       q    Type
REMARK                         _______ _______ _______ _____ _____    ______ ____
ROOT
ATOM      1  C   UNL     1      -2.716  12.463  22.655  0.00  0.00    +0.000 C 
ATOM      2  N   UNL     1      -1.909  11.975  21.549  0.00  0.00    +0.000 N 
ATOM      3  C   UNL     1      -2.148  12.609  20.334  0.00  0.00    +0.000 C 
ATOM      4  O   UNL     1      -2.511  13.781  20.227  0.00  0.00    +0.000 OA
ATOM      5  C   UNL     1      -2.266  11.758  19.155  0.00  0.00    +0.000 A 
ATOM      6  C   UNL     1      -3.460  11.798  18.428  0.00  0.00    +0.000 A 
ATOM      7  C   UNL     1      -3.613  10.962  17.329  0.00  0.00    +0.000 A 
ATOM      8  C   UNL     1      -2.537  10.159  16.992  0.00  0.00    +0.000 A 
ATOM      9  N   UNL     1      -1.350  10.161  17.650  0.00  0.00    +0.000 NA
ATOM     10  C   UNL     1      -1.221  10.949  18.748  0.00  0.00    +0.000 A 
ATOM     11  N   UNL     1      -0.017  10.972  19.473  0.00  0.00    +0.000 N 
ATOM     12  C   UNL     1       0.028  10.513  20.805  0.00  0.00    +0.000 A 
ATOM     13  N   UNL     1       1.012   9.623  21.121  0.00  0.00    +0.000 NA
ATOM     14  C   UNL     1       1.080   9.126  22.370  0.00  0.00    +0.000 A 
ATOM     15  C   UNL     1       0.209   9.482  23.372  0.00  0.00    +0.000 A 
ATOM     16  C   UNL     1      -0.786  10.402  23.069  0.00  0.00    +0.000 A 
ATOM     17  C   UNL     1      -0.914  10.949  21.778  0.00  0.00    +0.000 A 
ENDROOT
BRANCH  11  18
ATOM     18  C   UNL     1       1.180  10.741  18.649  0.00  0.00    +0.000 C 
BRANCH  18  19
ATOM     19  C   UNL     1       1.995  12.037  18.543  0.00  0.00    +0.000 C 
ATOM     20  F   UNL     1       1.170  13.071  18.223  0.00  0.00    +0.000 F 
ENDBRANCH  18  19
ENDBRANCH  11  18
TORSDOF 2
ENDMDL
MODEL 3
REMARK VINA RESULT:      -5.8      2.039      4.399
REMARK  Name = 
REMARK  3 active torsions:
REMARK  status: ('A' for Active; 'I' for Inactive)
REMARK    1  A    between atoms: C_1  and  N_2
REMARK    2  A    between atoms: N_11  and  C_12
REMARK    3  A    between atoms: C_12  and  C_13
REMARK                            x       y       z     vdW  Elec       q    Type
REMARK                         _______ _______ _______ _____ _____    ______ ____
ROOT
ATOM      1  C   UNL     1       1.739   5.890  17.889  0.00  0.00    +0.000 C 
ATOM      2  N   UNL     1       3.140   5.520  17.997  0.00  0.00    +0.000 N 
ATOM      3  C   UNL     1       4.017   6.373  17.332  0.00  0.00    +0.000 C 
ATOM      4  O   UNL     1       3.814   7.575  17.164  0.00  0.00    +0.000 OA
ATOM      5  C   UNL     1       5.072   5.751  16.540  0.00  0.00    +0.000 A 
ATOM      6  C   UNL     1       5.124   6.032  15.171  0.00  0.00    +0.000 A 
ATOM      7  C   UNL     1       6.092   5.415  14.388  0.00  0.00    +0.000 A 
ATOM      8  C   UNL     1       6.986   4.579  15.032  0.00  0.00    +0.000 A 
ATOM      9  N   UNL     1       6.987   4.351  16.371  0.00  0.00    +0.000 NA
ATOM     10  C   UNL     1       6.013   4.924  17.124  0.00  0.00    +0.000 A 
ATOM     11  N   UNL     1       5.962   4.704  18.512  0.00  0.00    +0.000 N 
ATOM     12  C   UNL     1       4.873   4.023  19.090  0.00  0.00    +0.000 A 
ATOM     13  N   UNL     1       5.165   2.999  19.943  0.00  0.00    +0.000 NA
ATOM     14  C   UNL     1       4.162   2.292  20.497  0.00  0.00    +0.000 A 
ATOM     15  C   UNL     1       2.834   2.555  20.264  0.00  0.00    +0.000 A 
ATOM     16  C   UNL     1       2.522   3.608  19.413  0.00  0.00    +0.000 A 
ATOM     17  C   UNL     1       3.527   4.377  18.795  0.00  0.00    +0.000 A 
ENDROOT
BRANCH  11  18
ATOM     18  C   UNL     1       7.280   4.500  19.132  0.00  0.00    +0.000 C 
BRANCH  18  19
ATOM     19  C   UNL     1       7.821   5.837  19.657  0.00  0.00    +0.000 C 
ATOM     20  F   UNL     1       8.222   6.609  18.610  0.00  0.00    +0.000 F 
ENDBRANCH  18  19
ENDBRANCH  11  18
TORSDOF 2
ENDMDL
MODEL 4
REMARK VINA RESULT:      -5.7      2.931      5.508
REMARK  Name = 
REMARK  3 active torsions:
REMARK  status: ('A' for Active; 'I' for Inactive)
REMARK    1  A    between atoms: C_1  and  N_2
REMARK    2  A    between atoms: N_11  and  C_12
REMARK    3  A    between atoms: C_12  and  C_13
REMARK                            x       y       z     vdW  Elec       q    Type
REMARK                         _______ _______ _______ _____ _____    ______ ____
ROOT
ATOM      1  C   UNL     1       5.718   6.539  16.763  0.00  0.00    +0.000 C 
ATOM      2  N   UNL     1       4.708   6.043  17.683  0.00  0.00    +0.000 N 
ATOM      3  C   UNL     1       4.958   4.771  18.188  0.00  0.00    +0.000 C 
ATOM      4  O   UNL     1       6.085   4.310  18.367  0.00  0.00    +0.000 OA
ATOM      5  C   UNL     1       3.837   3.838  18.219  0.00  0.00    +0.000 A 
ATOM      6  C   UNL     1       3.953   2.640  17.508  0.00  0.00    +0.000 A 
ATOM      7  C   UNL     1       2.881   1.757  17.485  0.00  0.00    +0.000 A 
ATOM      8  C   UNL     1       1.759   2.108  18.216  0.00  0.00    +0.000 A 
ATOM      9  N   UNL     1       1.660   3.236  18.964  0.00  0.00    +0.000 NA
ATOM     10  C   UNL     1       2.696   4.114  18.949  0.00  0.00    +0.000 A 
ATOM     11  N   UNL     1       2.632   5.306  19.694  0.00  0.00    +0.000 N 
ATOM     12  C   UNL     1       2.630   6.557  19.047  0.00  0.00    +0.000 A 
ATOM     13  N   UNL     1       1.662   7.444  19.417  0.00  0.00    +0.000 NA
ATOM     14  C   UNL     1       1.593   8.642  18.807  0.00  0.00    +0.000 A 
ATOM     15  C   UNL     1       2.466   9.040  17.824  0.00  0.00    +0.000 A 
ATOM     16  C   UNL     1       3.469   8.153  17.450  0.00  0.00    +0.000 A 
ATOM     17  C   UNL     1       3.586   6.882  18.045  0.00  0.00    +0.000 A 
ENDROOT
BRANCH  11  18
ATOM     18  C   UNL     1       1.844   5.194  20.931  0.00  0.00    +0.000 C 
BRANCH  18  19
ATOM     19  C   UNL     1       2.294   3.961  21.725  0.00  0.00    +0.000 C 
ATOM     20  F   UNL     1       1.240   3.116  21.893  0.00  0.00    +0.000 F 
ENDBRANCH  18  19
ENDBRANCH  11  18
TORSDOF 2
ENDMDL
MODEL 5
REMARK VINA RESULT:      -5.6      6.291      8.983
REMARK  Name = 
REMARK  3 active torsions:
REMARK  status: ('A' for Active; 'I' for Inactive)
REMARK    1  A    between atoms: C_1  and  N_2
REMARK    2  A    between atoms: N_11  and  C_12
REMARK    3  A    between atoms: C_12  and  C_13
REMARK                            x       y       z     vdW  Elec       q    Type
REMARK                         _______ _______ _______ _____ _____    ______ ____
ROOT
ATOM      1  C   UNL     1       1.858   8.090  20.054  0.00  0.00    +0.000 C 
ATOM      2  N   UNL     1       1.113   9.333  19.952  0.00  0.00    +0.000 N 
ATOM      3  C   UNL     1       1.141   9.925  18.693  0.00  0.00    +0.000 C 
ATOM      4  O   UNL     1       1.239   9.297  17.639  0.00  0.00    +0.000 OA
ATOM      5  C   UNL     1       1.372  11.364  18.643  0.00  0.00    +0.000 A 
ATOM      6  C   UNL     1       2.485  11.832  17.939  0.00  0.00    +0.000 A 
ATOM      7  C   UNL     1       2.751  13.195  17.917  0.00  0.00    +0.000 A 
ATOM      8  C   UNL     1       1.855  14.023  18.569  0.00  0.00    +0.000 A 
ATOM      9  N   UNL     1       0.734  13.587  19.198  0.00  0.00    +0.000 NA
ATOM     10  C   UNL     1       0.502  12.250  19.252  0.00  0.00    +0.000 A 
ATOM     11  N   UNL     1      -0.636  11.748  19.908  0.00  0.00    +0.000 N 
ATOM     12  C   UNL     1      -0.506  10.945  21.058  0.00  0.00    +0.000 A 
ATOM     13  N   UNL     1      -1.257  11.290  22.143  0.00  0.00    +0.000 NA
ATOM     14  C   UNL     1      -1.146  10.577  23.279  0.00  0.00    +0.000 A 
ATOM     15  C   UNL     1      -0.317   9.489  23.410  0.00  0.00    +0.000 A 
ATOM     16  C   UNL     1       0.441   9.115  22.307  0.00  0.00    +0.000 A 
ATOM     17  C   UNL     1       0.375   9.828  21.094  0.00  0.00    +0.000 A 
ENDROOT
BRANCH  11  18
ATOM     18  C   UNL     1      -1.801  12.646  19.851  0.00  0.00    +0.000 C 
BRANCH  18  19
ATOM     19  C   UNL     1      -2.929  11.982  19.051  0.00  0.00    +0.000 C 
ATOM     20  F   UNL     1      -2.466  10.844  18.466  0.00  0.00    +0.000 F 
ENDBRANCH  18  19
ENDBRANCH  11  18
TORSDOF 2
ENDMDL
MODEL 6
REMARK VINA RESULT:      -5.6      9.467     11.020
REMARK  Name = 
REMARK  3 active torsions:
REMARK  status: ('A' for Active; 'I' for Inactive)
REMARK    1  A    between atoms: C_1  and  N_2
REMARK    2  A    between atoms: N_11  and  C_12
REMARK    3  A    between atoms: C_12  and  C_13
REMARK                            x       y       z     vdW  Elec       q    Type
REMARK                         _______ _______ _______ _____ _____    ______ ____
ROOT
ATOM      1  C   UNL     1      11.928  11.949  18.965  0.00  0.00    +0.000 C 
ATOM      2  N   UNL     1      10.885  12.955  18.854  0.00  0.00    +0.000 N 
ATOM      3  C   UNL     1      10.864  13.636  17.640  0.00  0.00    +0.000 C 
ATOM      4  O   UNL     1      11.222  13.147  16.569  0.00  0.00    +0.000 OA
ATOM      5  C   UNL     1      10.698  15.084  17.697  0.00  0.00    +0.000 A 
ATOM      6  C   UNL     1      11.701  15.887  17.146  0.00  0.00    +0.000 A 
ATOM      7  C   UNL     1      11.587  17.269  17.229  0.00  0.00    +0.000 A 
ATOM      8  C   UNL     1      10.445  17.773  17.827  0.00  0.00    +0.000 A 
ATOM      9  N   UNL     1       9.433  17.004  18.305  0.00  0.00    +0.000 NA
ATOM     10  C   UNL     1       9.570  15.654  18.258  0.00  0.00    +0.000 A 
ATOM     11  N   UNL     1       8.557  14.816  18.757  0.00  0.00    +0.000 N 
ATOM     12  C   UNL     1       8.797  13.983  19.867  0.00  0.00    +0.000 A 
ATOM     13  N   UNL     1       7.887  14.025  20.881  0.00  0.00    +0.000 NA
ATOM     14  C   UNL     1       8.085  13.274  21.981  0.00  0.00    +0.000 A 
ATOM     15  C   UNL     1       9.164  12.438  22.140  0.00  0.00    +0.000 A 
ATOM     16  C   UNL     1      10.090  12.371  21.106  0.00  0.00    +0.000 A 
ATOM     17  C   UNL     1       9.942  13.140  19.935  0.00  0.00    +0.000 A 
ENDROOT
BRANCH  11  18
ATOM     18  C   UNL     1       7.202  15.375  18.625  0.00  0.00    +0.000 C 
BRANCH  18  19
ATOM     19  C   UNL     1       6.378  14.515  17.658  0.00  0.00    +0.000 C 
ATOM     20  F   UNL     1       5.111  15.005  17.578  0.00  0.00    +0.000 F 
ENDBRANCH  18  19
ENDBRANCH  11  18
TORSDOF 2
ENDMDL
MODEL 7
REMARK VINA RESULT:      -5.6      6.176      8.807
REMARK  Name = 
REMARK  3 active torsions:
REMARK  status: ('A' for Active; 'I' for Inactive)
REMARK    1  A    between atoms: C_1  and  N_2
REMARK    2  A    between atoms: N_11  and  C_12
REMARK    3  A    between atoms: C_12  and  C_13
REMARK                            x       y       z     vdW  Elec       q    Type
REMARK                         _______ _______ _______ _____ _____    ______ ____
ROOT
ATOM      1  C   UNL     1      -2.496  12.677  21.126  0.00  0.00    +0.000 C 
ATOM      2  N   UNL     1      -1.451  12.044  20.338  0.00  0.00    +0.000 N 
ATOM      3  C   UNL     1      -0.183  12.096  20.908  0.00  0.00    +0.000 C 
ATOM      4  O   UNL     1       0.028  12.113  22.120  0.00  0.00    +0.000 OA
ATOM      5  C   UNL     1       0.924  12.454  20.028  0.00  0.00    +0.000 A 
ATOM      6  C   UNL     1       1.678  13.589  20.340  0.00  0.00    +0.000 A 
ATOM      7  C   UNL     1       2.708  13.975  19.491  0.00  0.00    +0.000 A 
ATOM      8  C   UNL     1       2.953  13.172  18.391  0.00  0.00    +0.000 A 
ATOM      9  N   UNL     1       2.272  12.031  18.114  0.00  0.00    +0.000 NA
ATOM     10  C   UNL     1       1.240  11.682  18.925  0.00  0.00    +0.000 A 
ATOM     11  N   UNL     1       0.493  10.518  18.668  0.00  0.00    +0.000 N 
ATOM     12  C   UNL     1      -0.872  10.602  18.331  0.00  0.00    +0.000 A 
ATOM     13  N   UNL     1      -1.282   9.910  17.229  0.00  0.00    +0.000 NA
ATOM     14  C   UNL     1      -2.569   9.982  16.842  0.00  0.00    +0.000 A 
ATOM     15  C   UNL     1      -3.519  10.714  17.513  0.00  0.00    +0.000 A 
ATOM     16  C   UNL     1      -3.120  11.409  18.648  0.00  0.00    +0.000 A 
ATOM     17  C   UNL     1      -1.785  11.380  19.096  0.00  0.00    +0.000 A 
ENDROOT
BRANCH  11  18
ATOM     18  C   UNL     1       1.269   9.438  18.040  0.00  0.00    +0.000 C 
BRANCH  18  19
ATOM     19  C   UNL     1       1.805   8.487  19.118  0.00  0.00    +0.000 C 
ATOM     20  F   UNL     1       1.168   8.728  20.297  0.00  0.00    +0.000 F 
ENDBRANCH  18  19
ENDBRANCH  11  18
TORSDOF 2
ENDMDL
MODEL 8
REMARK VINA RESULT:      -5.5      8.320     10.184
REMARK  Name = 
REMARK  3 active torsions:
REMARK  status: ('A' for Active; 'I' for Inactive)
REMARK    1  A    between atoms: C_1  and  N_2
REMARK    2  A    between atoms: N_11  and  C_12
REMARK    3  A    between atoms: C_12  and  C_13
REMARK                            x       y       z     vdW  Elec       q    Type
REMARK                         _______ _______ _______ _____ _____    ______ ____
ROOT
ATOM      1  C   UNL     1      -3.066  12.267  23.481  0.00  0.00    +0.000 C 
ATOM      2  N   UNL     1      -2.400  12.097  22.201  0.00  0.00    +0.000 N 
ATOM      3  C   UNL     1      -2.864  12.934  21.190  0.00  0.00    +0.000 C 
ATOM      4  O   UNL     1      -3.325  14.058  21.384  0.00  0.00    +0.000 OA
ATOM      5  C   UNL     1      -3.094  12.328  19.883  0.00  0.00    +0.000 A 
ATOM      6  C   UNL     1      -4.383  12.389  19.344  0.00  0.00    +0.000 A 
ATOM      7  C   UNL     1      -4.636  11.779  18.122  0.00  0.00    +0.000 A 
ATOM      8  C   UNL     1      -3.567  11.175  17.484  0.00  0.00    +0.000 A 
ATOM      9  N   UNL     1      -2.297  11.168  17.966  0.00  0.00    +0.000 NA
ATOM     10  C   UNL     1      -2.065  11.730  19.180  0.00  0.00    +0.000 A 
ATOM     11  N   UNL     1      -0.770  11.732  19.729  0.00  0.00    +0.000 N 
ATOM     12  C   UNL     1      -0.493  11.023  20.915  0.00  0.00    +0.000 A 
ATOM     13  N   UNL     1       0.591  10.195  20.902  0.00  0.00    +0.000 NA
ATOM     14  C   UNL     1       0.882   9.468  21.997  0.00  0.00    +0.000 A 
ATOM     15  C   UNL     1       0.147   9.523  23.157  0.00  0.00    +0.000 A 
ATOM     16  C   UNL     1      -0.948  10.377  23.190  0.00  0.00    +0.000 A 
ATOM     17  C   UNL     1      -1.308  11.155  22.073  0.00  0.00    +0.000 A 
ENDROOT
BRANCH  11  18
ATOM     18  C   UNL     1       0.303  11.796  18.725  0.00  0.00    +0.000 C 
BRANCH  18  19
ATOM     19  C   UNL     1       0.877  13.218  18.669  0.00  0.00    +0.000 C 
ATOM     20  F   UNL     1      -0.094  14.087  18.278  0.00  0.00    +0.000 F 
ENDBRANCH  18  19
ENDBRANCH  11  18
TORSDOF 2
ENDMDL
MODEL 9
REMARK VINA RESULT:      -5.5     10.100     12.503
REMARK  Name = 
REMARK  3 active torsions:
REMARK  status: ('A' for Active; 'I' for Inactive)
REMARK    1  A    between atoms: C_1  and  N_2
REMARK    2  A    between atoms: N_11  and  C_12
REMARK    3  A    between atoms: C_12  and  C_13
REMARK                            x       y       z     vdW  Elec       q    Type
REMARK                         _______ _______ _______ _____ _____    ______ ____
ROOT
ATOM      1  C   UNL     1      -1.765  12.517  20.551  0.00  0.00    +0.000 C 
ATOM      2  N   UNL     1      -3.036  12.461  19.849  0.00  0.00    +0.000 N 
ATOM      3  C   UNL     1      -4.029  13.276  20.382  0.00  0.00    +0.000 C 
ATOM      4  O   UNL     1      -3.811  14.338  20.964  0.00  0.00    +0.000 OA
ATOM      5  C   UNL     1      -5.359  12.693  20.524  0.00  0.00    +0.000 A 
ATOM      6  C   UNL     1      -5.923  12.633  21.801  0.00  0.00    +0.000 A 
ATOM      7  C   UNL     1      -7.168  12.040  21.967  0.00  0.00    +0.000 A 
ATOM      8  C   UNL     1      -7.802  11.575  20.828  0.00  0.00    +0.000 A 
ATOM      9  N   UNL     1      -7.294  11.688  19.574  0.00  0.00    +0.000 NA
ATOM     10  C   UNL     1      -6.058  12.231  19.424  0.00  0.00    +0.000 A 
ATOM     11  N   UNL     1      -5.483  12.353  18.147  0.00  0.00    +0.000 N 
ATOM     12  C   UNL     1      -4.314  11.639  17.816  0.00  0.00    +0.000 A 
ATOM     13  N   UNL     1      -4.330  10.932  16.650  0.00  0.00    +0.000 NA
ATOM     14  C   UNL     1      -3.252  10.204  16.302  0.00  0.00    +0.000 A 
ATOM     15  C   UNL     1      -2.106  10.143  17.058  0.00  0.00    +0.000 A 
ATOM     16  C   UNL     1      -2.069  10.874  18.239  0.00  0.00    +0.000 A 
ATOM     17  C   UNL     1      -3.169  11.646  18.661  0.00  0.00    +0.000 A 
ENDROOT
BRANCH  11  18
ATOM     18  C   UNL     1      -6.461  12.564  17.069  0.00  0.00    +0.000 C 
BRANCH  18  19
ATOM     19  C   UNL     1      -6.707  14.067  16.877  0.00  0.00    +0.000 C 
ATOM     20  F   UNL     1      -7.917  14.402  17.403  0.00  0.00    +0.000 F 
ENDBRANCH  18  19
ENDBRANCH  11  18
TORSDOF 2
ENDMDL
