MODEL 1
REMARK VINA RESULT:      -8.2      0.000      0.000
REMARK  Name = 
REMARK  9 active torsions:
REMARK  status: ('A' for Active; 'I' for Inactive)
REMARK    1  A    between atoms: C_1  and  O_2
REMARK    2  A    between atoms: O_2  and  C_3
REMARK    3  A    between atoms: C_6  and  C_7
REMARK    4  A    between atoms: C_7  and  C_9
REMARK    5  A    between atoms: C_10  and  C_11
REMARK    6  A    between atoms: N_13  and  C_14
REMARK    7  A    between atoms: C_21  and  C_22
REMARK    8  A    between atoms: C_28  and  O_29
REMARK    9  A    between atoms: O_29  and  C_30
REMARK                            x       y       z     vdW  Elec       q    Type
REMARK                         _______ _______ _______ _____ _____    ______ ____
ROOT
ATOM      1  C   UNL     1       1.469   9.038  18.514  0.00  0.00    +0.000 A 
ATOM      2  C   UNL     1       2.222   8.347  17.601  0.00  0.00    +0.000 A 
ATOM      3  N   UNL     1       2.773   7.275  18.267  0.00  0.00    +0.000 N 
ATOM      4  N   UNL     1       2.376   7.246  19.567  0.00  0.00    +0.000 NA
ATOM      5  C   UNL     1       1.589   8.323  19.740  0.00  0.00    +0.000 A 
ENDROOT
BRANCH   3   6
ATOM      6  C   UNL     1       3.674   6.306  17.742  0.00  0.00    +0.000 A 
ATOM      7  C   UNL     1       4.778   6.690  16.966  0.00  0.00    +0.000 A 
ATOM      8  C   UNL     1       5.661   5.727  16.470  0.00  0.00    +0.000 A 
ATOM      9  C   UNL     1       5.447   4.377  16.737  0.00  0.00    +0.000 A 
ATOM     10  C   UNL     1       4.351   3.984  17.503  0.00  0.00    +0.000 A 
ATOM     11  C   UNL     1       3.467   4.942  18.009  0.00  0.00    +0.000 A 
ENDBRANCH   3   6
BRANCH   5  12
ATOM     12  C   UNL     1       1.030   8.650  21.055  0.00  0.00    +0.000 A 
ATOM     13  C   UNL     1      -0.332   8.518  21.342  0.00  0.00    +0.000 A 
ATOM     14  C   UNL     1      -0.830   8.903  22.586  0.00  0.00    +0.000 A 
ATOM     15  C   UNL     1       0.058   9.399  23.524  0.00  0.00    +0.000 A 
ATOM     16  N   UNL     1       1.383   9.525  23.303  0.00  0.00    +0.000 NA
ATOM     17  C   UNL     1       1.836   9.144  22.078  0.00  0.00    +0.000 A 
ENDBRANCH   5  12
BRANCH   1  19
ATOM     18  C   UNL     1      -0.478  10.481  18.585  0.00  0.00    +0.000 C 
ATOM     19  C   UNL     1       0.795  10.259  18.221  0.00  0.00    +0.000 C 
BRANCH  18  20
ATOM     20  C   UNL     1      -1.167  11.752  18.221  0.00  0.00    +0.000 C 
ATOM     21  O   UNL     1      -0.518  12.773  18.017  0.00  0.00    +0.000 OA
BRANCH  20  25
ATOM     22  C   UNL     1      -5.477  11.742  17.923  0.00  0.00    +0.000 A 
ATOM     23  C   UNL     1      -4.847  12.108  19.108  0.00  0.00    +0.000 A 
ATOM     24  C   UNL     1      -3.457  12.075  19.210  0.00  0.00    +0.000 A 
ATOM     25  C   UNL     1      -2.663  11.715  18.107  0.00  0.00    +0.000 A 
ATOM     26  C   UNL     1      -3.298  11.332  16.905  0.00  0.00    +0.000 A 
ATOM     27  C   UNL     1      -4.704  11.338  16.834  0.00  0.00    +0.000 A 
BRANCH  22  29
ATOM     28  C   UNL     1      -7.454  11.955  19.235  0.00  0.00    +0.000 C 
ATOM     29  O   UNL     1      -6.841  11.831  17.958  0.00  0.00    +0.000 OA
ENDBRANCH  22  29
BRANCH  26  30
ATOM     30  O   UNL     1      -2.498  11.003  15.841  0.00  0.00    +0.000 OA
ATOM     31  C   UNL     1      -3.027  10.139  14.842  0.00  0.00    +0.000 C 
ENDBRANCH  26  30
ENDBRANCH  20  25
ENDBRANCH  18  20
ENDBRANCH   1  19
TORSDOF 7
ENDMDL
MODEL 2
REMARK VINA RESULT:      -7.7      0.786      2.001
REMARK  Name = 
REMARK  9 active torsions:
REMARK  status: ('A' for Active; 'I' for Inactive)
REMARK    1  A    between atoms: C_1  and  O_2
REMARK    2  A    between atoms: O_2  and  C_3
REMARK    3  A    between atoms: C_6  and  C_7
REMARK    4  A    between atoms: C_7  and  C_9
REMARK    5  A    between atoms: C_10  and  C_11
REMARK    6  A    between atoms: N_13  and  C_14
REMARK    7  A    between atoms: C_21  and  C_22
REMARK    8  A    between atoms: C_28  and  O_29
REMARK    9  A    between atoms: O_29  and  C_30
REMARK                            x       y       z     vdW  Elec       q    Type
REMARK                         _______ _______ _______ _____ _____    ______ ____
ROOT
ATOM      1  C   UNL     1       1.518   9.056  18.607  0.00  0.00    +0.000 A 
ATOM      2  C   UNL     1       2.258   8.367  17.683  0.00  0.00    +0.000 A 
ATOM      3  N   UNL     1       2.788   7.274  18.331  0.00  0.00    +0.000 N 
ATOM      4  N   UNL     1       2.390   7.229  19.630  0.00  0.00    +0.000 NA
ATOM      5  C   UNL     1       1.623   8.319  19.821  0.00  0.00    +0.000 A 
ENDROOT
BRANCH   3   6
ATOM      6  C   UNL     1       3.671   6.296  17.790  0.00  0.00    +0.000 A 
ATOM      7  C   UNL     1       3.478   4.929  18.041  0.00  0.00    +0.000 A 
ATOM      8  C   UNL     1       4.345   3.982  17.491  0.00  0.00    +0.000 A 
ATOM      9  C   UNL     1       5.413   4.388  16.695  0.00  0.00    +0.000 A 
ATOM     10  C   UNL     1       5.617   5.744  16.443  0.00  0.00    +0.000 A 
ATOM     11  C   UNL     1       4.749   6.697  16.983  0.00  0.00    +0.000 A 
ENDBRANCH   3   6
BRANCH   5  12
ATOM     12  C   UNL     1       1.070   8.634  21.141  0.00  0.00    +0.000 A 
ATOM     13  C   UNL     1      -0.292   8.498  21.432  0.00  0.00    +0.000 A 
ATOM     14  C   UNL     1      -0.784   8.872  22.682  0.00  0.00    +0.000 A 
ATOM     15  C   UNL     1       0.107   9.359  23.620  0.00  0.00    +0.000 A 
ATOM     16  N   UNL     1       1.432   9.488  23.395  0.00  0.00    +0.000 NA
ATOM     17  C   UNL     1       1.880   9.118  22.165  0.00  0.00    +0.000 A 
ENDBRANCH   5  12
BRANCH   1  19
ATOM     18  C   UNL     1      -0.438  10.488  18.577  0.00  0.00    +0.000 C 
ATOM     19  C   UNL     1       0.868  10.294  18.335  0.00  0.00    +0.000 C 
BRANCH  18  20
ATOM     20  C   UNL     1      -1.097  11.782  18.237  0.00  0.00    +0.000 C 
ATOM     21  O   UNL     1      -0.422  12.780  18.011  0.00  0.00    +0.000 OA
BRANCH  20  25
ATOM     22  C   UNL     1      -5.412  11.716  18.025  0.00  0.00    +0.000 A 
ATOM     23  C   UNL     1      -4.640  11.335  16.933  0.00  0.00    +0.000 A 
ATOM     24  C   UNL     1      -3.249  11.393  16.994  0.00  0.00    +0.000 A 
ATOM     25  C   UNL     1      -2.597  11.793  18.174  0.00  0.00    +0.000 A 
ATOM     26  C   UNL     1      -3.375  12.192  19.282  0.00  0.00    +0.000 A 
ATOM     27  C   UNL     1      -4.780  12.160  19.187  0.00  0.00    +0.000 A 
BRANCH  22  29
ATOM     28  C   UNL     1      -7.610  12.313  18.722  0.00  0.00    +0.000 C 
ATOM     29  O   UNL     1      -6.760  11.600  17.832  0.00  0.00    +0.000 OA
ENDBRANCH  22  29
BRANCH  26  30
ATOM     30  O   UNL     1      -2.712  12.560  20.424  0.00  0.00    +0.000 OA
ATOM     31  C   UNL     1      -3.481  13.000  21.538  0.00  0.00    +0.000 C 
ENDBRANCH  26  30
ENDBRANCH  20  25
ENDBRANCH  18  20
ENDBRANCH   1  19
TORSDOF 7
ENDMDL
MODEL 3
REMARK VINA RESULT:      -7.7      4.843      9.687
REMARK  Name = 
REMARK  9 active torsions:
REMARK  status: ('A' for Active; 'I' for Inactive)
REMARK    1  A    between atoms: C_1  and  O_2
REMARK    2  A    between atoms: O_2  and  C_3
REMARK    3  A    between atoms: C_6  and  C_7
REMARK    4  A    between atoms: C_7  and  C_9
REMARK    5  A    between atoms: C_10  and  C_11
REMARK    6  A    between atoms: N_13  and  C_14
REMARK    7  A    between atoms: C_21  and  C_22
REMARK    8  A    between atoms: C_28  and  O_29
REMARK    9  A    between atoms: O_29  and  C_30
REMARK                            x       y       z     vdW  Elec       q    Type
REMARK                         _______ _______ _______ _____ _____    ______ ____
ROOT
ATOM      1  C   UNL     1       3.487   7.027  17.789  0.00  0.00    +0.000 A 
ATOM      2  C   UNL     1       2.989   8.280  18.033  0.00  0.00    +0.000 A 
ATOM      3  N   UNL     1       1.959   8.132  18.935  0.00  0.00    +0.000 N 
ATOM      4  N   UNL     1       1.800   6.830  19.293  0.00  0.00    +0.000 NA
ATOM      5  C   UNL     1       2.717   6.138  18.593  0.00  0.00    +0.000 A 
ENDROOT
BRANCH   3   6
ATOM      6  C   UNL     1       1.106   9.153  19.443  0.00  0.00    +0.000 A 
ATOM      7  C   UNL     1       0.745   9.184  20.799  0.00  0.00    +0.000 A 
ATOM      8  C   UNL     1      -0.081  10.201  21.285  0.00  0.00    +0.000 A 
ATOM      9  C   UNL     1      -0.558  11.187  20.426  0.00  0.00    +0.000 A 
ATOM     10  C   UNL     1      -0.210  11.163  19.076  0.00  0.00    +0.000 A 
ATOM     11  C   UNL     1       0.623  10.153  18.583  0.00  0.00    +0.000 A 
ENDBRANCH   3   6
BRANCH   5  12
ATOM     12  C   UNL     1       2.791   4.677  18.679  0.00  0.00    +0.000 A 
ATOM     13  C   UNL     1       2.486   3.848  17.594  0.00  0.00    +0.000 A 
ATOM     14  C   UNL     1       2.506   2.462  17.740  0.00  0.00    +0.000 A 
ATOM     15  C   UNL     1       2.849   1.936  18.973  0.00  0.00    +0.000 A 
ATOM     16  N   UNL     1       3.172   2.692  20.043  0.00  0.00    +0.000 NA
ATOM     17  C   UNL     1       3.139   4.041  19.868  0.00  0.00    +0.000 A 
ENDBRANCH   5  12
BRANCH   1  19
ATOM     18  C   UNL     1       5.654   6.123  17.188  0.00  0.00    +0.000 C 
ATOM     19  C   UNL     1       4.521   6.756  16.847  0.00  0.00    +0.000 C 
BRANCH  18  20
ATOM     20  C   UNL     1       6.736   5.898  16.187  0.00  0.00    +0.000 C 
ATOM     21  O   UNL     1       7.844   6.398  16.347  0.00  0.00    +0.000 OA
BRANCH  20  25
ATOM     22  C   UNL     1       5.697   3.455  12.777  0.00  0.00    +0.000 A 
ATOM     23  C   UNL     1       4.879   3.491  13.902  0.00  0.00    +0.000 A 
ATOM     24  C   UNL     1       5.238   4.252  15.013  0.00  0.00    +0.000 A 
ATOM     25  C   UNL     1       6.407   5.033  15.004  0.00  0.00    +0.000 A 
ATOM     26  C   UNL     1       7.246   4.991  13.870  0.00  0.00    +0.000 A 
ATOM     27  C   UNL     1       6.884   4.188  12.771  0.00  0.00    +0.000 A 
BRANCH  22  29
ATOM     28  C   UNL     1       4.072   3.146  11.063  0.00  0.00    +0.000 C 
ATOM     29  O   UNL     1       5.221   2.678  11.758  0.00  0.00    +0.000 OA
ENDBRANCH  22  29
BRANCH  26  30
ATOM     30  O   UNL     1       8.370   5.777  13.881  0.00  0.00    +0.000 OA
ATOM     31  C   UNL     1       9.007   6.062  12.642  0.00  0.00    +0.000 C 
ENDBRANCH  26  30
ENDBRANCH  20  25
ENDBRANCH  18  20
ENDBRANCH   1  19
TORSDOF 7
ENDMDL
MODEL 4
REMARK VINA RESULT:      -7.6      4.946      9.915
REMARK  Name = 
REMARK  9 active torsions:
REMARK  status: ('A' for Active; 'I' for Inactive)
REMARK    1  A    between atoms: C_1  and  O_2
REMARK    2  A    between atoms: O_2  and  C_3
REMARK    3  A    between atoms: C_6  and  C_7
REMARK    4  A    between atoms: C_7  and  C_9
REMARK    5  A    between atoms: C_10  and  C_11
REMARK    6  A    between atoms: N_13  and  C_14
REMARK    7  A    between atoms: C_21  and  C_22
REMARK    8  A    between atoms: C_28  and  O_29
REMARK    9  A    between atoms: O_29  and  C_30
REMARK                            x       y       z     vdW  Elec       q    Type
REMARK                         _______ _______ _______ _____ _____    ______ ____
ROOT
ATOM      1  C   UNL     1       3.593   6.845  18.039  0.00  0.00    +0.000 A 
ATOM      2  C   UNL     1       3.041   8.034  18.437  0.00  0.00    +0.000 A 
ATOM      3  N   UNL     1       2.082   7.734  19.378  0.00  0.00    +0.000 N 
ATOM      4  N   UNL     1       2.021   6.395  19.611  0.00  0.00    +0.000 NA
ATOM      5  C   UNL     1       2.929   5.834  18.791  0.00  0.00    +0.000 A 
ENDROOT
BRANCH   3   6
ATOM      6  C   UNL     1       1.206   8.643  20.037  0.00  0.00    +0.000 A 
ATOM      7  C   UNL     1       0.807   9.838  19.419  0.00  0.00    +0.000 A 
ATOM      8  C   UNL     1      -0.064  10.713  20.073  0.00  0.00    +0.000 A 
ATOM      9  C   UNL     1      -0.536  10.409  21.348  0.00  0.00    +0.000 A 
ATOM     10  C   UNL     1      -0.141   9.228  21.973  0.00  0.00    +0.000 A 
ATOM     11  C   UNL     1       0.724   8.343  21.322  0.00  0.00    +0.000 A 
ENDBRANCH   3   6
BRANCH   5  12
ATOM     12  C   UNL     1       3.092   4.380  18.724  0.00  0.00    +0.000 A 
ATOM     13  C   UNL     1       3.920   3.679  19.607  0.00  0.00    +0.000 A 
ATOM     14  C   UNL     1       4.096   2.303  19.465  0.00  0.00    +0.000 A 
ATOM     15  C   UNL     1       3.421   1.657  18.445  0.00  0.00    +0.000 A 
ATOM     16  N   UNL     1       2.594   2.284  17.582  0.00  0.00    +0.000 NA
ATOM     17  C   UNL     1       2.447   3.626  17.746  0.00  0.00    +0.000 A 
ENDBRANCH   5  12
BRANCH   1  19
ATOM     18  C   UNL     1       5.618   5.891  17.109  0.00  0.00    +0.000 C 
ATOM     19  C   UNL     1       4.578   6.734  17.015  0.00  0.00    +0.000 C 
BRANCH  18  20
ATOM     20  C   UNL     1       6.656   5.834  16.039  0.00  0.00    +0.000 C 
ATOM     21  O   UNL     1       7.697   6.472  16.151  0.00  0.00    +0.000 OA
BRANCH  20  25
ATOM     22  C   UNL     1       5.741   3.370  12.610  0.00  0.00    +0.000 A 
ATOM     23  C   UNL     1       4.893   3.398  13.713  0.00  0.00    +0.000 A 
ATOM     24  C   UNL     1       5.212   4.166  14.831  0.00  0.00    +0.000 A 
ATOM     25  C   UNL     1       6.370   4.963  14.850  0.00  0.00    +0.000 A 
ATOM     26  C   UNL     1       7.240   4.930  13.739  0.00  0.00    +0.000 A 
ATOM     27  C   UNL     1       6.918   4.119  12.634  0.00  0.00    +0.000 A 
BRANCH  22  29
ATOM     28  C   UNL     1       6.062   1.421  11.279  0.00  0.00    +0.000 C 
ATOM     29  O   UNL     1       5.303   2.585  11.580  0.00  0.00    +0.000 OA
ENDBRANCH  22  29
BRANCH  26  30
ATOM     30  O   UNL     1       8.352   5.730  13.778  0.00  0.00    +0.000 OA
ATOM     31  C   UNL     1       8.955   6.109  12.547  0.00  0.00    +0.000 C 
ENDBRANCH  26  30
ENDBRANCH  20  25
ENDBRANCH  18  20
ENDBRANCH   1  19
TORSDOF 7
ENDMDL
MODEL 5
REMARK VINA RESULT:      -7.5      3.156      4.868
REMARK  Name = 
REMARK  9 active torsions:
REMARK  status: ('A' for Active; 'I' for Inactive)
REMARK    1  A    between atoms: C_1  and  O_2
REMARK    2  A    between atoms: O_2  and  C_3
REMARK    3  A    between atoms: C_6  and  C_7
REMARK    4  A    between atoms: C_7  and  C_9
REMARK    5  A    between atoms: C_10  and  C_11
REMARK    6  A    between atoms: N_13  and  C_14
REMARK    7  A    between atoms: C_21  and  C_22
REMARK    8  A    between atoms: C_28  and  O_29
REMARK    9  A    between atoms: O_29  and  C_30
REMARK                            x       y       z     vdW  Elec       q    Type
REMARK                         _______ _______ _______ _____ _____    ______ ____
ROOT
ATOM      1  C   UNL     1       1.435   8.676  20.156  0.00  0.00    +0.000 A 
ATOM      2  C   UNL     1       2.200   7.550  20.005  0.00  0.00    +0.000 A 
ATOM      3  N   UNL     1       2.292   7.307  18.653  0.00  0.00    +0.000 N 
ATOM      4  N   UNL     1       1.632   8.256  17.936  0.00  0.00    +0.000 NA
ATOM      5  C   UNL     1       1.091   9.094  18.839  0.00  0.00    +0.000 A 
ENDROOT
BRANCH   3   6
ATOM      6  C   UNL     1       2.943   6.212  18.015  0.00  0.00    +0.000 A 
ATOM      7  C   UNL     1       2.351   4.941  17.981  0.00  0.00    +0.000 A 
ATOM      8  C   UNL     1       2.996   3.880  17.339  0.00  0.00    +0.000 A 
ATOM      9  C   UNL     1       4.236   4.076  16.735  0.00  0.00    +0.000 A 
ATOM     10  C   UNL     1       4.835   5.335  16.768  0.00  0.00    +0.000 A 
ATOM     11  C   UNL     1       4.192   6.403  17.401  0.00  0.00    +0.000 A 
ENDBRANCH   3   6
BRANCH   5  12
ATOM     12  C   UNL     1       0.242  10.212  18.420  0.00  0.00    +0.000 A 
ATOM     13  C   UNL     1       0.586  11.545  18.668  0.00  0.00    +0.000 A 
ATOM     14  C   UNL     1      -0.284  12.575  18.310  0.00  0.00    +0.000 A 
ATOM     15  C   UNL     1      -1.477  12.242  17.694  0.00  0.00    +0.000 A 
ATOM     16  N   UNL     1      -1.844  10.974  17.413  0.00  0.00    +0.000 NA
ATOM     17  C   UNL     1      -0.975   9.993  17.779  0.00  0.00    +0.000 A 
ENDBRANCH   5  12
BRANCH   1  19
ATOM     18  C   UNL     1      -0.121   9.832  21.611  0.00  0.00    +0.000 C 
ATOM     19  C   UNL     1       1.052   9.207  21.421  0.00  0.00    +0.000 C 
BRANCH  18  20
ATOM     20  C   UNL     1      -0.470  10.417  22.938  0.00  0.00    +0.000 C 
ATOM     21  O   UNL     1      -0.095   9.876  23.972  0.00  0.00    +0.000 OA
BRANCH  20  25
ATOM     22  C   UNL     1      -2.806  14.050  23.045  0.00  0.00    +0.000 A 
ATOM     23  C   UNL     1      -3.329  12.854  23.525  0.00  0.00    +0.000 A 
ATOM     24  C   UNL     1      -2.585  11.678  23.454  0.00  0.00    +0.000 A 
ATOM     25  C   UNL     1      -1.276  11.684  22.940  0.00  0.00    +0.000 A 
ATOM     26  C   UNL     1      -0.745  12.892  22.441  0.00  0.00    +0.000 A 
ATOM     27  C   UNL     1      -1.526  14.063  22.489  0.00  0.00    +0.000 A 
BRANCH  22  29
ATOM     28  C   UNL     1      -3.920  15.564  24.508  0.00  0.00    +0.000 C 
ATOM     29  O   UNL     1      -3.637  15.127  23.185  0.00  0.00    +0.000 OA
ENDBRANCH  22  29
BRANCH  26  30
ATOM     30  O   UNL     1       0.540  12.872  21.962  0.00  0.00    +0.000 OA
ATOM     31  C   UNL     1       1.088  14.081  21.451  0.00  0.00    +0.000 C 
ENDBRANCH  26  30
ENDBRANCH  20  25
ENDBRANCH  18  20
ENDBRANCH   1  19
TORSDOF 7
ENDMDL
MODEL 6
REMARK VINA RESULT:      -7.5      1.118      1.957
REMARK  Name = 
REMARK  9 active torsions:
REMARK  status: ('A' for Active; 'I' for Inactive)
REMARK    1  A    between atoms: C_1  and  O_2
REMARK    2  A    between atoms: O_2  and  C_3
REMARK    3  A    between atoms: C_6  and  C_7
REMARK    4  A    between atoms: C_7  and  C_9
REMARK    5  A    between atoms: C_10  and  C_11
REMARK    6  A    between atoms: N_13  and  C_14
REMARK    7  A    between atoms: C_21  and  C_22
REMARK    8  A    between atoms: C_28  and  O_29
REMARK    9  A    between atoms: O_29  and  C_30
REMARK                            x       y       z     vdW  Elec       q    Type
REMARK                         _______ _______ _______ _____ _____    ______ ____
ROOT
ATOM      1  C   UNL     1       1.601   8.883  18.530  0.00  0.00    +0.000 A 
ATOM      2  C   UNL     1       2.446   8.187  17.706  0.00  0.00    +0.000 A 
ATOM      3  N   UNL     1       3.012   7.188  18.465  0.00  0.00    +0.000 N 
ATOM      4  N   UNL     1       2.538   7.208  19.739  0.00  0.00    +0.000 NA
ATOM      5  C   UNL     1       1.684   8.246  19.801  0.00  0.00    +0.000 A 
ENDROOT
BRANCH   3   6
ATOM      6  C   UNL     1       3.996   6.244  18.052  0.00  0.00    +0.000 A 
ATOM      7  C   UNL     1       4.535   6.281  16.756  0.00  0.00    +0.000 A 
ATOM      8  C   UNL     1       5.509   5.358  16.371  0.00  0.00    +0.000 A 
ATOM      9  C   UNL     1       5.949   4.387  17.269  0.00  0.00    +0.000 A 
ATOM     10  C   UNL     1       5.417   4.338  18.557  0.00  0.00    +0.000 A 
ATOM     11  C   UNL     1       4.447   5.265  18.952  0.00  0.00    +0.000 A 
ENDBRANCH   3   6
BRANCH   5  12
ATOM     12  C   UNL     1       1.028   8.612  21.059  0.00  0.00    +0.000 A 
ATOM     13  C   UNL     1      -0.345   8.438  21.265  0.00  0.00    +0.000 A 
ATOM     14  C   UNL     1      -0.937   8.862  22.453  0.00  0.00    +0.000 A 
ATOM     15  C   UNL     1      -0.132   9.438  23.420  0.00  0.00    +0.000 A 
ATOM     16  N   UNL     1       1.199   9.607  23.279  0.00  0.00    +0.000 NA
ATOM     17  C   UNL     1       1.746   9.186  22.106  0.00  0.00    +0.000 A 
ENDBRANCH   5  12
BRANCH   1  19
ATOM     18  C   UNL     1       0.341  10.897  19.011  0.00  0.00    +0.000 C 
ATOM     19  C   UNL     1       0.881  10.044  18.127  0.00  0.00    +0.000 C 
BRANCH  18  20
ATOM     20  C   UNL     1      -0.446  12.078  18.553  0.00  0.00    +0.000 C 
ATOM     21  O   UNL     1       0.115  13.141  18.312  0.00  0.00    +0.000 OA
BRANCH  20  25
ATOM     22  C   UNL     1      -4.695  11.454  18.074  0.00  0.00    +0.000 A 
ATOM     23  C   UNL     1      -3.805  11.095  17.067  0.00  0.00    +0.000 A 
ATOM     24  C   UNL     1      -2.439  11.332  17.212  0.00  0.00    +0.000 A 
ATOM     25  C   UNL     1      -1.928  11.896  18.394  0.00  0.00    +0.000 A 
ATOM     26  C   UNL     1      -2.827  12.273  19.414  0.00  0.00    +0.000 A 
ATOM     27  C   UNL     1      -4.207  12.058  19.234  0.00  0.00    +0.000 A 
BRANCH  22  29
ATOM     28  C   UNL     1      -6.719  10.426  18.792  0.00  0.00    +0.000 C 
ATOM     29  O   UNL     1      -6.001  11.155  17.806  0.00  0.00    +0.000 OA
ENDBRANCH  22  29
BRANCH  26  30
ATOM     30  O   UNL     1      -2.299  12.804  20.563  0.00  0.00    +0.000 OA
ATOM     31  C   UNL     1      -2.744  14.089  20.979  0.00  0.00    +0.000 C 
ENDBRANCH  26  30
ENDBRANCH  20  25
ENDBRANCH  18  20
ENDBRANCH   1  19
TORSDOF 7
ENDMDL
MODEL 7
REMARK VINA RESULT:      -7.5      4.732      9.352
REMARK  Name = 
REMARK  9 active torsions:
REMARK  status: ('A' for Active; 'I' for Inactive)
REMARK    1  A    between atoms: C_1  and  O_2
REMARK    2  A    between atoms: O_2  and  C_3
REMARK    3  A    between atoms: C_6  and  C_7
REMARK    4  A    between atoms: C_7  and  C_9
REMARK    5  A    between atoms: C_10  and  C_11
REMARK    6  A    between atoms: N_13  and  C_14
REMARK    7  A    between atoms: C_21  and  C_22
REMARK    8  A    between atoms: C_28  and  O_29
REMARK    9  A    between atoms: O_29  and  C_30
REMARK                            x       y       z     vdW  Elec       q    Type
REMARK                         _______ _______ _______ _____ _____    ______ ____
ROOT
ATOM      1  C   UNL     1       3.029   6.914  19.113  0.00  0.00    +0.000 A 
ATOM      2  C   UNL     1       2.676   8.227  18.943  0.00  0.00    +0.000 A 
ATOM      3  N   UNL     1       1.485   8.409  19.609  0.00  0.00    +0.000 N 
ATOM      4  N   UNL     1       1.080   7.263  20.218  0.00  0.00    +0.000 NA
ATOM      5  C   UNL     1       2.005   6.334  19.914  0.00  0.00    +0.000 A 
ENDROOT
BRANCH   3   6
ATOM      6  C   UNL     1       0.704   9.599  19.668  0.00  0.00    +0.000 A 
ATOM      7  C   UNL     1       0.052  10.093  18.528  0.00  0.00    +0.000 A 
ATOM      8  C   UNL     1      -0.723  11.253  18.606  0.00  0.00    +0.000 A 
ATOM      9  C   UNL     1      -0.847  11.933  19.815  0.00  0.00    +0.000 A 
ATOM     10  C   UNL     1      -0.199  11.453  20.953  0.00  0.00    +0.000 A 
ATOM     11  C   UNL     1       0.571  10.288  20.885  0.00  0.00    +0.000 A 
ENDBRANCH   3   6
BRANCH   5  12
ATOM     12  C   UNL     1       1.855   4.944  20.353  0.00  0.00    +0.000 A 
ATOM     13  C   UNL     1       1.172   3.990  19.591  0.00  0.00    +0.000 A 
ATOM     14  C   UNL     1       0.997   2.695  20.077  0.00  0.00    +0.000 A 
ATOM     15  C   UNL     1       1.527   2.381  21.316  0.00  0.00    +0.000 A 
ATOM     16  N   UNL     1       2.212   3.259  22.078  0.00  0.00    +0.000 NA
ATOM     17  C   UNL     1       2.362   4.515  21.577  0.00  0.00    +0.000 A 
ENDBRANCH   5  12
BRANCH   1  19
ATOM     18  C   UNL     1       5.043   5.567  19.201  0.00  0.00    +0.000 C 
ATOM     19  C   UNL     1       4.174   6.319  18.508  0.00  0.00    +0.000 C 
BRANCH  18  20
ATOM     20  C   UNL     1       6.255   4.997  18.546  0.00  0.00    +0.000 C 
ATOM     21  O   UNL     1       7.271   4.787  19.198  0.00  0.00    +0.000 OA
BRANCH  20  25
ATOM     22  C   UNL     1       5.885   4.127  14.329  0.00  0.00    +0.000 A 
ATOM     23  C   UNL     1       5.105   3.457  15.265  0.00  0.00    +0.000 A 
ATOM     24  C   UNL     1       5.254   3.715  16.627  0.00  0.00    +0.000 A 
ATOM     25  C   UNL     1       6.162   4.689  17.079  0.00  0.00    +0.000 A 
ATOM     26  C   UNL     1       6.964   5.365  16.135  0.00  0.00    +0.000 A 
ATOM     27  C   UNL     1       6.824   5.063  14.767  0.00  0.00    +0.000 A 
BRANCH  22  29
ATOM     28  C   UNL     1       6.735   3.734  12.139  0.00  0.00    +0.000 C 
ATOM     29  O   UNL     1       5.629   3.786  13.031  0.00  0.00    +0.000 OA
ENDBRANCH  22  29
BRANCH  26  30
ATOM     30  O   UNL     1       7.827   6.322  16.603  0.00  0.00    +0.000 OA
ATOM     31  C   UNL     1       7.289   7.574  17.011  0.00  0.00    +0.000 C 
ENDBRANCH  26  30
ENDBRANCH  20  25
ENDBRANCH  18  20
ENDBRANCH   1  19
TORSDOF 7
ENDMDL
MODEL 8
REMARK VINA RESULT:      -7.5      3.893      8.417
REMARK  Name = 
REMARK  9 active torsions:
REMARK  status: ('A' for Active; 'I' for Inactive)
REMARK    1  A    between atoms: C_1  and  O_2
REMARK    2  A    between atoms: O_2  and  C_3
REMARK    3  A    between atoms: C_6  and  C_7
REMARK    4  A    between atoms: C_7  and  C_9
REMARK    5  A    between atoms: C_10  and  C_11
REMARK    6  A    between atoms: N_13  and  C_14
REMARK    7  A    between atoms: C_21  and  C_22
REMARK    8  A    between atoms: C_28  and  O_29
REMARK    9  A    between atoms: O_29  and  C_30
REMARK                            x       y       z     vdW  Elec       q    Type
REMARK                         _______ _______ _______ _____ _____    ______ ____
ROOT
ATOM      1  C   UNL     1       0.513  10.707  18.485  0.00  0.00    +0.000 A 
ATOM      2  C   UNL     1      -0.796  10.388  18.235  0.00  0.00    +0.000 A 
ATOM      3  N   UNL     1      -1.523  11.549  18.370  0.00  0.00    +0.000 N 
ATOM      4  N   UNL     1      -0.719  12.602  18.674  0.00  0.00    +0.000 NA
ATOM      5  C   UNL     1       0.528  12.104  18.761  0.00  0.00    +0.000 A 
ENDROOT
BRANCH   3   6
ATOM      6  C   UNL     1      -2.935  11.699  18.257  0.00  0.00    +0.000 A 
ATOM      7  C   UNL     1      -3.696  12.197  19.325  0.00  0.00    +0.000 A 
ATOM      8  C   UNL     1      -5.079  12.353  19.194  0.00  0.00    +0.000 A 
ATOM      9  C   UNL     1      -5.712  12.006  18.003  0.00  0.00    +0.000 A 
ATOM     10  C   UNL     1      -4.966  11.505  16.937  0.00  0.00    +0.000 A 
ATOM     11  C   UNL     1      -3.581  11.355  17.058  0.00  0.00    +0.000 A 
ENDBRANCH   3   6
BRANCH   5  12
ATOM     12  C   UNL     1       1.658  12.955  19.145  0.00  0.00    +0.000 A 
ATOM     13  C   UNL     1       1.930  13.279  20.478  0.00  0.00    +0.000 A 
ATOM     14  C   UNL     1       2.977  14.145  20.792  0.00  0.00    +0.000 A 
ATOM     15  C   UNL     1       3.740  14.655  19.757  0.00  0.00    +0.000 A 
ATOM     16  N   UNL     1       3.532  14.355  18.458  0.00  0.00    +0.000 NA
ATOM     17  C   UNL     1       2.501  13.511  18.185  0.00  0.00    +0.000 A 
ENDBRANCH   5  12
BRANCH   1  19
ATOM     18  C   UNL     1       1.521   8.607  17.812  0.00  0.00    +0.000 C 
ATOM     19  C   UNL     1       1.569   9.750  18.514  0.00  0.00    +0.000 C 
BRANCH  18  20
ATOM     20  C   UNL     1       2.623   7.608  17.901  0.00  0.00    +0.000 C 
ATOM     21  O   UNL     1       3.726   7.857  17.428  0.00  0.00    +0.000 OA
BRANCH  20  25
ATOM     22  C   UNL     1       1.841   3.840  19.867  0.00  0.00    +0.000 A 
ATOM     23  C   UNL     1       2.037   3.897  18.491  0.00  0.00    +0.000 A 
ATOM     24  C   UNL     1       2.252   5.120  17.857  0.00  0.00    +0.000 A 
ATOM     25  C   UNL     1       2.321   6.312  18.598  0.00  0.00    +0.000 A 
ATOM     26  C   UNL     1       2.113   6.262  19.993  0.00  0.00    +0.000 A 
ATOM     27  C   UNL     1       1.861   5.021  20.610  0.00  0.00    +0.000 A 
BRANCH  22  29
ATOM     28  C   UNL     1       1.578   2.433  21.770  0.00  0.00    +0.000 C 
ATOM     29  O   UNL     1       1.652   2.578  20.358  0.00  0.00    +0.000 OA
ENDBRANCH  22  29
BRANCH  26  30
ATOM     30  O   UNL     1       2.204   7.437  20.693  0.00  0.00    +0.000 OA
ATOM     31  C   UNL     1       1.045   7.913  21.367  0.00  0.00    +0.000 C 
ENDBRANCH  26  30
ENDBRANCH  20  25
ENDBRANCH  18  20
ENDBRANCH   1  19
TORSDOF 7
ENDMDL
MODEL 9
REMARK VINA RESULT:      -7.4      1.436      2.211
REMARK  Name = 
REMARK  9 active torsions:
REMARK  status: ('A' for Active; 'I' for Inactive)
REMARK    1  A    between atoms: C_1  and  O_2
REMARK    2  A    between atoms: O_2  and  C_3
REMARK    3  A    between atoms: C_6  and  C_7
REMARK    4  A    between atoms: C_7  and  C_9
REMARK    5  A    between atoms: C_10  and  C_11
REMARK    6  A    between atoms: N_13  and  C_14
REMARK    7  A    between atoms: C_21  and  C_22
REMARK    8  A    between atoms: C_28  and  O_29
REMARK    9  A    between atoms: O_29  and  C_30
REMARK                            x       y       z     vdW  Elec       q    Type
REMARK                         _______ _______ _______ _____ _____    ______ ____
ROOT
ATOM      1  C   UNL     1       0.671   9.305  18.457  0.00  0.00    +0.000 A 
ATOM      2  C   UNL     1       1.527   8.508  17.744  0.00  0.00    +0.000 A 
ATOM      3  N   UNL     1       2.304   7.835  18.660  0.00  0.00    +0.000 N 
ATOM      4  N   UNL     1       1.956   8.158  19.934  0.00  0.00    +0.000 NA
ATOM      5  C   UNL     1       0.967   9.065  19.830  0.00  0.00    +0.000 A 
ENDROOT
BRANCH   3   6
ATOM      6  C   UNL     1       3.373   6.934  18.386  0.00  0.00    +0.000 A 
ATOM      7  C   UNL     1       4.159   7.074  17.233  0.00  0.00    +0.000 A 
ATOM      8  C   UNL     1       5.213   6.190  16.987  0.00  0.00    +0.000 A 
ATOM      9  C   UNL     1       5.486   5.159  17.882  0.00  0.00    +0.000 A 
ATOM     10  C   UNL     1       4.708   5.008  19.029  0.00  0.00    +0.000 A 
ATOM     11  C   UNL     1       3.657   5.893  19.286  0.00  0.00    +0.000 A 
ENDBRANCH   3   6
BRANCH   5  12
ATOM     12  C   UNL     1       0.387   9.693  21.020  0.00  0.00    +0.000 A 
ATOM     13  C   UNL     1      -0.226   8.949  22.033  0.00  0.00    +0.000 A 
ATOM     14  C   UNL     1      -0.823   9.593  23.117  0.00  0.00    +0.000 A 
ATOM     15  C   UNL     1      -0.775  10.974  23.167  0.00  0.00    +0.000 A 
ATOM     16  N   UNL     1      -0.176  11.735  22.227  0.00  0.00    +0.000 NA
ATOM     17  C   UNL     1       0.393  11.076  21.181  0.00  0.00    +0.000 A 
ENDBRANCH   5  12
BRANCH   1  19
ATOM     18  C   UNL     1      -1.577  10.081  17.989  0.00  0.00    +0.000 C 
ATOM     19  C   UNL     1      -0.248  10.214  17.858  0.00  0.00    +0.000 C 
BRANCH  18  20
ATOM     20  C   UNL     1      -2.511  11.025  17.310  0.00  0.00    +0.000 C 
ATOM     21  O   UNL     1      -2.228  11.496  16.214  0.00  0.00    +0.000 OA
BRANCH  20  25
ATOM     22  C   UNL     1      -6.227  11.858  19.352  0.00  0.00    +0.000 A 
ATOM     23  C   UNL     1      -6.211  11.108  18.180  0.00  0.00    +0.000 A 
ATOM     24  C   UNL     1      -5.014  10.873  17.506  0.00  0.00    +0.000 A 
ATOM     25  C   UNL     1      -3.795  11.350  18.018  0.00  0.00    +0.000 A 
ATOM     26  C   UNL     1      -3.806  12.121  19.200  0.00  0.00    +0.000 A 
ATOM     27  C   UNL     1      -5.030  12.377  19.847  0.00  0.00    +0.000 A 
BRANCH  22  29
ATOM     28  C   UNL     1      -7.556  12.782  21.099  0.00  0.00    +0.000 C 
ATOM     29  O   UNL     1      -7.465  12.002  19.914  0.00  0.00    +0.000 OA
ENDBRANCH  22  29
BRANCH  26  30
ATOM     30  O   UNL     1      -2.600  12.557  19.686  0.00  0.00    +0.000 OA
ATOM     31  C   UNL     1      -2.592  13.670  20.572  0.00  0.00    +0.000 C 
ENDBRANCH  26  30
ENDBRANCH  20  25
ENDBRANCH  18  20
ENDBRANCH   1  19
TORSDOF 7
ENDMDL
