MODEL 1
REMARK VINA RESULT:      -7.1      0.000      0.000
REMARK  Name = 
REMARK  7 active torsions:
REMARK  status: ('A' for Active; 'I' for Inactive)
REMARK    1  A    between atoms: C_1  and  O_2
REMARK    2  A    between atoms: O_2  and  C_3
REMARK    3  A    between atoms: C_3  and  C_5
REMARK    4  A    between atoms: C_5  and  C_6
REMARK    5  A    between atoms: C_8  and  O_9
REMARK    6  A    between atoms: C_10  and  C_11
REMARK    7  A    between atoms: C_12  and  C_13
REMARK                            x       y       z     vdW  Elec       q    Type
REMARK                         _______ _______ _______ _____ _____    ______ ____
ROOT
ATOM      1  C   UNL     1       5.712   4.051  14.598  0.00  0.00    +0.000 C 
ATOM      2  C   UNL     1       6.472   5.364  14.838  0.00  0.00    +0.000 C 
ATOM      3  C   UNL     1       6.948   5.445  16.287  0.00  0.00    +0.000 C 
ATOM      4  C   UNL     1       5.772   5.321  17.273  0.00  0.00    +0.000 C 
ATOM      5  C   UNL     1       4.876   6.574  17.269  0.00  0.00    +0.000 C 
ATOM      6  C   UNL     1       5.018   3.998  16.954  0.00  0.00    +0.000 C 
ATOM      7  N   UNL     1       4.580   3.929  15.544  0.00  0.00    +0.000 NA
ATOM      8  H   UNL     1       3.908   4.671  15.364  0.00  0.00    +0.000 HD
ENDROOT
BRANCH   6   9
ATOM      9  C   UNL     1       3.884   3.733  17.948  0.00  0.00    +0.000 A 
ATOM     10  C   UNL     1       4.119   3.434  19.302  0.00  0.00    +0.000 A 
ATOM     11  C   UNL     1       3.065   3.087  20.152  0.00  0.00    +0.000 A 
ATOM     12  C   UNL     1       1.768   3.054  19.660  0.00  0.00    +0.000 A 
ATOM     13  F   UNL     1       0.763   2.697  20.471  0.00  0.00    +0.000 F 
ATOM     14  C   UNL     1       1.499   3.376  18.337  0.00  0.00    +0.000 A 
ATOM     15  C   UNL     1       2.556   3.711  17.483  0.00  0.00    +0.000 A 
ENDBRANCH   6   9
BRANCH   3  16
ATOM     16  O   UNL     1       7.692   6.641  16.502  0.00  0.00    +0.000 OA
ATOM     17  H   UNL     1       7.876   7.054  15.642  0.00  0.00    +0.000 HD
ENDBRANCH   3  16
BRANCH   1  18
ATOM     18  C   UNL     1       5.176   3.965  13.160  0.00  0.00    +0.000 C 
BRANCH  18  19
ATOM     19  C   UNL     1       6.169   3.324  12.216  0.00  0.00    +0.000 C 
ATOM     20  O   UNL     1       7.268   3.783  11.934  0.00  0.00    +0.000 OA
BRANCH  19  22
ATOM     21  C   UNL     1       6.623   1.333  11.062  0.00  0.00    +0.000 C 
ATOM     22  O   UNL     1       5.666   2.149  11.742  0.00  0.00    +0.000 OA
ENDBRANCH  19  22
ENDBRANCH  18  19
ENDBRANCH   1  18
TORSDOF 5
ENDMDL
MODEL 2
REMARK VINA RESULT:      -7.1      0.172      1.093
REMARK  Name = 
REMARK  7 active torsions:
REMARK  status: ('A' for Active; 'I' for Inactive)
REMARK    1  A    between atoms: C_1  and  O_2
REMARK    2  A    between atoms: O_2  and  C_3
REMARK    3  A    between atoms: C_3  and  C_5
REMARK    4  A    between atoms: C_5  and  C_6
REMARK    5  A    between atoms: C_8  and  O_9
REMARK    6  A    between atoms: C_10  and  C_11
REMARK    7  A    between atoms: C_12  and  C_13
REMARK                            x       y       z     vdW  Elec       q    Type
REMARK                         _______ _______ _______ _____ _____    ______ ____
ROOT
ATOM      1  C   UNL     1       5.710   4.058  14.558  0.00  0.00    +0.000 C 
ATOM      2  C   UNL     1       6.460   5.371  14.832  0.00  0.00    +0.000 C 
ATOM      3  C   UNL     1       6.907   5.434  16.290  0.00  0.00    +0.000 C 
ATOM      4  C   UNL     1       5.713   5.291  17.251  0.00  0.00    +0.000 C 
ATOM      5  C   UNL     1       4.811   6.540  17.247  0.00  0.00    +0.000 C 
ATOM      6  C   UNL     1       4.971   3.969  16.899  0.00  0.00    +0.000 C 
ATOM      7  N   UNL     1       4.560   3.919  15.480  0.00  0.00    +0.000 NA
ATOM      8  H   UNL     1       3.889   4.660  15.297  0.00  0.00    +0.000 HD
ENDROOT
BRANCH   6   9
ATOM      9  C   UNL     1       3.819   3.686  17.867  0.00  0.00    +0.000 A 
ATOM     10  C   UNL     1       2.472   3.686  17.461  0.00  0.00    +0.000 A 
ATOM     11  C   UNL     1       1.443   3.535  18.394  0.00  0.00    +0.000 A 
ATOM     12  C   UNL     1       1.752   3.366  19.737  0.00  0.00    +0.000 A 
ATOM     13  F   UNL     1       0.763   3.247  20.632  0.00  0.00    +0.000 F 
ATOM     14  C   UNL     1       3.072   3.329  20.165  0.00  0.00    +0.000 A 
ATOM     15  C   UNL     1       4.102   3.493  19.232  0.00  0.00    +0.000 A 
ENDBRANCH   6   9
BRANCH   3  16
ATOM     16  O   UNL     1       7.641   6.630  16.536  0.00  0.00    +0.000 OA
ATOM     17  H   UNL     1       8.590   6.439  16.451  0.00  0.00    +0.000 HD
ENDBRANCH   3  16
BRANCH   1  18
ATOM     18  C   UNL     1       5.203   3.991  13.108  0.00  0.00    +0.000 C 
BRANCH  18  19
ATOM     19  C   UNL     1       6.190   3.309  12.188  0.00  0.00    +0.000 C 
ATOM     20  O   UNL     1       7.297   3.744  11.898  0.00  0.00    +0.000 OA
BRANCH  19  22
ATOM     21  C   UNL     1       6.608   1.298  11.054  0.00  0.00    +0.000 C 
ATOM     22  O   UNL     1       5.672   2.129  11.745  0.00  0.00    +0.000 OA
ENDBRANCH  19  22
ENDBRANCH  18  19
ENDBRANCH   1  18
TORSDOF 5
ENDMDL
MODEL 3
REMARK VINA RESULT:      -7.1      3.604      5.518
REMARK  Name = 
REMARK  7 active torsions:
REMARK  status: ('A' for Active; 'I' for Inactive)
REMARK    1  A    between atoms: C_1  and  O_2
REMARK    2  A    between atoms: O_2  and  C_3
REMARK    3  A    between atoms: C_3  and  C_5
REMARK    4  A    between atoms: C_5  and  C_6
REMARK    5  A    between atoms: C_8  and  O_9
REMARK    6  A    between atoms: C_10  and  C_11
REMARK    7  A    between atoms: C_12  and  C_13
REMARK                            x       y       z     vdW  Elec       q    Type
REMARK                         _______ _______ _______ _____ _____    ______ ____
ROOT
ATOM      1  C   UNL     1       4.911   4.799  17.272  0.00  0.00    +0.000 C 
ATOM      2  C   UNL     1       4.178   3.480  17.564  0.00  0.00    +0.000 C 
ATOM      3  C   UNL     1       2.680   3.638  17.313  0.00  0.00    +0.000 C 
ATOM      4  C   UNL     1       2.086   4.778  18.160  0.00  0.00    +0.000 C 
ATOM      5  C   UNL     1       2.018   4.418  19.656  0.00  0.00    +0.000 C 
ATOM      6  C   UNL     1       2.893   6.072  17.852  0.00  0.00    +0.000 C 
ATOM      7  N   UNL     1       4.342   5.897  18.084  0.00  0.00    +0.000 NA
ATOM      8  H   UNL     1       4.504   5.707  19.070  0.00  0.00    +0.000 HD
ENDROOT
BRANCH   6   9
ATOM      9  C   UNL     1       2.313   7.292  18.575  0.00  0.00    +0.000 A 
ATOM     10  C   UNL     1       2.097   7.315  19.965  0.00  0.00    +0.000 A 
ATOM     11  C   UNL     1       1.462   8.402  20.572  0.00  0.00    +0.000 A 
ATOM     12  C   UNL     1       1.054   9.480  19.799  0.00  0.00    +0.000 A 
ATOM     13  F   UNL     1       0.424  10.509  20.380  0.00  0.00    +0.000 F 
ATOM     14  C   UNL     1       1.282   9.502  18.429  0.00  0.00    +0.000 A 
ATOM     15  C   UNL     1       1.907   8.408  17.820  0.00  0.00    +0.000 A 
ENDBRANCH   6   9
BRANCH   3  16
ATOM     16  O   UNL     1       2.003   2.405  17.541  0.00  0.00    +0.000 OA
ATOM     17  H   UNL     1       1.731   2.034  16.686  0.00  0.00    +0.000 HD
ENDBRANCH   3  16
BRANCH   1  18
ATOM     18  C   UNL     1       6.416   4.684  17.565  0.00  0.00    +0.000 C 
BRANCH  18  19
ATOM     19  C   UNL     1       7.190   5.882  17.063  0.00  0.00    +0.000 C 
ATOM     20  O   UNL     1       7.604   6.022  15.920  0.00  0.00    +0.000 OA
BRANCH  19  22
ATOM     21  C   UNL     1       7.780   8.080  17.632  0.00  0.00    +0.000 C 
ATOM     22  O   UNL     1       7.341   6.791  18.067  0.00  0.00    +0.000 OA
ENDBRANCH  19  22
ENDBRANCH  18  19
ENDBRANCH   1  18
TORSDOF 5
ENDMDL
MODEL 4
REMARK VINA RESULT:      -7.1      1.365      1.700
REMARK  Name = 
REMARK  7 active torsions:
REMARK  status: ('A' for Active; 'I' for Inactive)
REMARK    1  A    between atoms: C_1  and  O_2
REMARK    2  A    between atoms: O_2  and  C_3
REMARK    3  A    between atoms: C_3  and  C_5
REMARK    4  A    between atoms: C_5  and  C_6
REMARK    5  A    between atoms: C_8  and  O_9
REMARK    6  A    between atoms: C_10  and  C_11
REMARK    7  A    between atoms: C_12  and  C_13
REMARK                            x       y       z     vdW  Elec       q    Type
REMARK                         _______ _______ _______ _____ _____    ______ ____
ROOT
ATOM      1  C   UNL     1       6.516   4.264  15.195  0.00  0.00    +0.000 C 
ATOM      2  C   UNL     1       7.306   5.203  16.119  0.00  0.00    +0.000 C 
ATOM      3  C   UNL     1       7.287   4.676  17.553  0.00  0.00    +0.000 C 
ATOM      4  C   UNL     1       5.846   4.506  18.069  0.00  0.00    +0.000 C 
ATOM      5  C   UNL     1       5.156   5.859  18.326  0.00  0.00    +0.000 C 
ATOM      6  C   UNL     1       5.087   3.583  17.073  0.00  0.00    +0.000 C 
ATOM      7  N   UNL     1       5.130   4.098  15.689  0.00  0.00    +0.000 NA
ATOM      8  H   UNL     1       4.648   4.992  15.647  0.00  0.00    +0.000 HD
ENDROOT
BRANCH   6   9
ATOM      9  C   UNL     1       3.666   3.271  17.553  0.00  0.00    +0.000 A 
ATOM     10  C   UNL     1       2.596   4.166  17.379  0.00  0.00    +0.000 A 
ATOM     11  C   UNL     1       1.341   3.896  17.929  0.00  0.00    +0.000 A 
ATOM     12  C   UNL     1       1.141   2.723  18.643  0.00  0.00    +0.000 A 
ATOM     13  F   UNL     1      -0.057   2.478  19.191  0.00  0.00    +0.000 F 
ATOM     14  C   UNL     1       2.168   1.803  18.805  0.00  0.00    +0.000 A 
ATOM     15  C   UNL     1       3.429   2.080  18.264  0.00  0.00    +0.000 A 
ENDBRANCH   6   9
BRANCH   3  16
ATOM     16  O   UNL     1       8.055   5.521  18.405  0.00  0.00    +0.000 OA
ATOM     17  H   UNL     1       8.866   5.783  17.937  0.00  0.00    +0.000 HD
ENDBRANCH   3  16
BRANCH   1  18
ATOM     18  C   UNL     1       6.475   4.796  13.753  0.00  0.00    +0.000 C 
BRANCH  18  19
ATOM     19  C   UNL     1       6.113   3.719  12.755  0.00  0.00    +0.000 C 
ATOM     20  O   UNL     1       6.917   3.065  12.103  0.00  0.00    +0.000 OA
BRANCH  19  22
ATOM     21  C   UNL     1       4.255   3.230  11.410  0.00  0.00    +0.000 C 
ATOM     22  O   UNL     1       4.759   3.571  12.703  0.00  0.00    +0.000 OA
ENDBRANCH  19  22
ENDBRANCH  18  19
ENDBRANCH   1  18
TORSDOF 5
ENDMDL
MODEL 5
REMARK VINA RESULT:      -7.0      3.726      5.333
REMARK  Name = 
REMARK  7 active torsions:
REMARK  status: ('A' for Active; 'I' for Inactive)
REMARK    1  A    between atoms: C_1  and  O_2
REMARK    2  A    between atoms: O_2  and  C_3
REMARK    3  A    between atoms: C_3  and  C_5
REMARK    4  A    between atoms: C_5  and  C_6
REMARK    5  A    between atoms: C_8  and  O_9
REMARK    6  A    between atoms: C_10  and  C_11
REMARK    7  A    between atoms: C_12  and  C_13
REMARK                            x       y       z     vdW  Elec       q    Type
REMARK                         _______ _______ _______ _____ _____    ______ ____
ROOT
ATOM      1  C   UNL     1       5.048   5.043  17.939  0.00  0.00    +0.000 C 
ATOM      2  C   UNL     1       4.241   3.735  17.950  0.00  0.00    +0.000 C 
ATOM      3  C   UNL     1       2.862   3.956  17.334  0.00  0.00    +0.000 C 
ATOM      4  C   UNL     1       2.089   5.066  18.069  0.00  0.00    +0.000 C 
ATOM      5  C   UNL     1       1.632   4.626  19.472  0.00  0.00    +0.000 C 
ATOM      6  C   UNL     1       2.972   6.348  18.061  0.00  0.00    +0.000 C 
ATOM      7  N   UNL     1       4.308   6.112  18.645  0.00  0.00    +0.000 NA
ATOM      8  H   UNL     1       4.207   5.862  19.625  0.00  0.00    +0.000 HD
ENDROOT
BRANCH   6   9
ATOM      9  C   UNL     1       2.247   7.544  18.686  0.00  0.00    +0.000 A 
ATOM     10  C   UNL     1       1.972   7.627  20.062  0.00  0.00    +0.000 A 
ATOM     11  C   UNL     1       1.210   8.679  20.578  0.00  0.00    +0.000 A 
ATOM     12  C   UNL     1       0.731   9.663  19.726  0.00  0.00    +0.000 A 
ATOM     13  F   UNL     1      -0.019  10.657  20.219  0.00  0.00    +0.000 F 
ATOM     14  C   UNL     1       1.013   9.628  18.367  0.00  0.00    +0.000 A 
ATOM     15  C   UNL     1       1.765   8.568  17.849  0.00  0.00    +0.000 A 
ENDBRANCH   6   9
BRANCH   3  16
ATOM     16  O   UNL     1       2.128   2.736  17.303  0.00  0.00    +0.000 OA
ATOM     17  H   UNL     1       1.283   2.866  17.764  0.00  0.00    +0.000 HD
ENDBRANCH   3  16
BRANCH   1  18
ATOM     18  C   UNL     1       6.424   4.862  18.601  0.00  0.00    +0.000 C 
BRANCH  18  19
ATOM     19  C   UNL     1       7.534   4.718  17.583  0.00  0.00    +0.000 C 
ATOM     20  O   UNL     1       8.523   4.009  17.717  0.00  0.00    +0.000 OA
BRANCH  19  22
ATOM     21  C   UNL     1       7.136   4.740  15.272  0.00  0.00    +0.000 C 
ATOM     22  O   UNL     1       7.260   5.481  16.488  0.00  0.00    +0.000 OA
ENDBRANCH  19  22
ENDBRANCH  18  19
ENDBRANCH   1  18
TORSDOF 5
ENDMDL
MODEL 6
REMARK VINA RESULT:      -6.9      3.690      5.405
REMARK  Name = 
REMARK  7 active torsions:
REMARK  status: ('A' for Active; 'I' for Inactive)
REMARK    1  A    between atoms: C_1  and  O_2
REMARK    2  A    between atoms: O_2  and  C_3
REMARK    3  A    between atoms: C_3  and  C_5
REMARK    4  A    between atoms: C_5  and  C_6
REMARK    5  A    between atoms: C_8  and  O_9
REMARK    6  A    between atoms: C_10  and  C_11
REMARK    7  A    between atoms: C_12  and  C_13
REMARK                            x       y       z     vdW  Elec       q    Type
REMARK                         _______ _______ _______ _____ _____    ______ ____
ROOT
ATOM      1  C   UNL     1       5.040   4.958  17.943  0.00  0.00    +0.000 C 
ATOM      2  C   UNL     1       4.269   3.629  17.971  0.00  0.00    +0.000 C 
ATOM      3  C   UNL     1       2.890   3.802  17.339  0.00  0.00    +0.000 C 
ATOM      4  C   UNL     1       2.081   4.903  18.049  0.00  0.00    +0.000 C 
ATOM      5  C   UNL     1       1.623   4.474  19.455  0.00  0.00    +0.000 C 
ATOM      6  C   UNL     1       2.928   6.208  18.024  0.00  0.00    +0.000 C 
ATOM      7  N   UNL     1       4.265   6.019  18.624  0.00  0.00    +0.000 NA
ATOM      8  H   UNL     1       4.162   5.784  19.608  0.00  0.00    +0.000 HD
ENDROOT
BRANCH   6   9
ATOM      9  C   UNL     1       2.165   7.395  18.622  0.00  0.00    +0.000 A 
ATOM     10  C   UNL     1       1.690   8.461  17.837  0.00  0.00    +0.000 A 
ATOM     11  C   UNL     1       1.098   9.578  18.432  0.00  0.00    +0.000 A 
ATOM     12  C   UNL     1       0.963   9.632  19.812  0.00  0.00    +0.000 A 
ATOM     13  F   UNL     1       0.418  10.716  20.380  0.00  0.00    +0.000 F 
ATOM     14  C   UNL     1       1.392   8.582  20.612  0.00  0.00    +0.000 A 
ATOM     15  C   UNL     1       1.995   7.468  20.017  0.00  0.00    +0.000 A 
ENDBRANCH   6   9
BRANCH   3  16
ATOM     16  O   UNL     1       2.189   2.561  17.324  0.00  0.00    +0.000 OA
ATOM     17  H   UNL     1       1.881   2.386  16.420  0.00  0.00    +0.000 HD
ENDBRANCH   3  16
BRANCH   1  18
ATOM     18  C   UNL     1       6.414   4.827  18.619  0.00  0.00    +0.000 C 
BRANCH  18  19
ATOM     19  C   UNL     1       7.539   4.714  17.614  0.00  0.00    +0.000 C 
ATOM     20  O   UNL     1       8.538   4.021  17.751  0.00  0.00    +0.000 OA
BRANCH  19  22
ATOM     21  C   UNL     1       7.211   4.761  15.292  0.00  0.00    +0.000 C 
ATOM     22  O   UNL     1       7.264   5.485  16.524  0.00  0.00    +0.000 OA
ENDBRANCH  19  22
ENDBRANCH  18  19
ENDBRANCH   1  18
TORSDOF 5
ENDMDL
MODEL 7
REMARK VINA RESULT:      -6.8      3.557      5.532
REMARK  Name = 
REMARK  7 active torsions:
REMARK  status: ('A' for Active; 'I' for Inactive)
REMARK    1  A    between atoms: C_1  and  O_2
REMARK    2  A    between atoms: O_2  and  C_3
REMARK    3  A    between atoms: C_3  and  C_5
REMARK    4  A    between atoms: C_5  and  C_6
REMARK    5  A    between atoms: C_8  and  O_9
REMARK    6  A    between atoms: C_10  and  C_11
REMARK    7  A    between atoms: C_12  and  C_13
REMARK                            x       y       z     vdW  Elec       q    Type
REMARK                         _______ _______ _______ _____ _____    ______ ____
ROOT
ATOM      1  C   UNL     1       4.914   4.581  17.262  0.00  0.00    +0.000 C 
ATOM      2  C   UNL     1       4.204   3.249  17.550  0.00  0.00    +0.000 C 
ATOM      3  C   UNL     1       2.707   3.374  17.275  0.00  0.00    +0.000 C 
ATOM      4  C   UNL     1       2.076   4.506  18.105  0.00  0.00    +0.000 C 
ATOM      5  C   UNL     1       1.992   4.152  19.602  0.00  0.00    +0.000 C 
ATOM      6  C   UNL     1       2.861   5.815  17.804  0.00  0.00    +0.000 C 
ATOM      7  N   UNL     1       4.309   5.671  18.060  0.00  0.00    +0.000 NA
ATOM      8  H   UNL     1       4.459   5.490  19.049  0.00  0.00    +0.000 HD
ENDROOT
BRANCH   6   9
ATOM      9  C   UNL     1       2.244   7.026  18.511  0.00  0.00    +0.000 A 
ATOM     10  C   UNL     1       1.883   8.199  17.824  0.00  0.00    +0.000 A 
ATOM     11  C   UNL     1       1.429   9.324  18.519  0.00  0.00    +0.000 A 
ATOM     12  C   UNL     1       1.317   9.279  19.901  0.00  0.00    +0.000 A 
ATOM     13  F   UNL     1       0.905  10.366  20.567  0.00  0.00    +0.000 F 
ATOM     14  C   UNL     1       1.635   8.125  20.605  0.00  0.00    +0.000 A 
ATOM     15  C   UNL     1       2.101   7.003  19.910  0.00  0.00    +0.000 A 
ENDBRANCH   6   9
BRANCH   3  16
ATOM     16  O   UNL     1       2.053   2.128  17.498  0.00  0.00    +0.000 OA
ATOM     17  H   UNL     1       1.204   2.295  17.940  0.00  0.00    +0.000 HD
ENDBRANCH   3  16
BRANCH   1  18
ATOM     18  C   UNL     1       6.416   4.499  17.580  0.00  0.00    +0.000 C 
BRANCH  18  19
ATOM     19  C   UNL     1       7.166   5.730  17.123  0.00  0.00    +0.000 C 
ATOM     20  O   UNL     1       7.434   5.999  15.960  0.00  0.00    +0.000 OA
BRANCH  19  22
ATOM     21  C   UNL     1       7.838   5.770  19.371  0.00  0.00    +0.000 C 
ATOM     22  O   UNL     1       7.482   6.506  18.198  0.00  0.00    +0.000 OA
ENDBRANCH  19  22
ENDBRANCH  18  19
ENDBRANCH   1  18
TORSDOF 5
ENDMDL
MODEL 8
REMARK VINA RESULT:      -6.8      3.470      5.307
REMARK  Name = 
REMARK  7 active torsions:
REMARK  status: ('A' for Active; 'I' for Inactive)
REMARK    1  A    between atoms: C_1  and  O_2
REMARK    2  A    between atoms: O_2  and  C_3
REMARK    3  A    between atoms: C_3  and  C_5
REMARK    4  A    between atoms: C_5  and  C_6
REMARK    5  A    between atoms: C_8  and  O_9
REMARK    6  A    between atoms: C_10  and  C_11
REMARK    7  A    between atoms: C_12  and  C_13
REMARK                            x       y       z     vdW  Elec       q    Type
REMARK                         _______ _______ _______ _____ _____    ______ ____
ROOT
ATOM      1  C   UNL     1       4.377   4.037  16.720  0.00  0.00    +0.000 C 
ATOM      2  C   UNL     1       3.942   2.770  17.473  0.00  0.00    +0.000 C 
ATOM      3  C   UNL     1       2.460   2.851  17.836  0.00  0.00    +0.000 C 
ATOM      4  C   UNL     1       2.155   4.104  18.676  0.00  0.00    +0.000 C 
ATOM      5  C   UNL     1       2.722   4.000  20.104  0.00  0.00    +0.000 C 
ATOM      6  C   UNL     1       2.655   5.346  17.882  0.00  0.00    +0.000 C 
ATOM      7  N   UNL     1       4.086   5.243  17.525  0.00  0.00    +0.000 NA
ATOM      8  H   UNL     1       4.644   5.225  18.375  0.00  0.00    +0.000 HD
ENDROOT
BRANCH   6   9
ATOM      9  C   UNL     1       2.307   6.657  18.593  0.00  0.00    +0.000 A 
ATOM     10  C   UNL     1       2.019   6.718  19.968  0.00  0.00    +0.000 A 
ATOM     11  C   UNL     1       1.595   7.911  20.558  0.00  0.00    +0.000 A 
ATOM     12  C   UNL     1       1.473   9.056  19.783  0.00  0.00    +0.000 A 
ATOM     13  F   UNL     1       1.043  10.193  20.347  0.00  0.00    +0.000 F 
ATOM     14  C   UNL     1       1.782   9.037  18.430  0.00  0.00    +0.000 A 
ATOM     15  C   UNL     1       2.193   7.838  17.837  0.00  0.00    +0.000 A 
ENDBRANCH   6   9
BRANCH   3  16
ATOM     16  O   UNL     1       2.043   1.660  18.496  0.00  0.00    +0.000 OA
ATOM     17  H   UNL     1       1.974   0.946  17.840  0.00  0.00    +0.000 HD
ENDBRANCH   3  16
BRANCH   1  18
ATOM     18  C   UNL     1       5.878   4.005  16.386  0.00  0.00    +0.000 C 
BRANCH  18  19
ATOM     19  C   UNL     1       6.695   4.840  17.347  0.00  0.00    +0.000 C 
ATOM     20  O   UNL     1       7.068   4.476  18.454  0.00  0.00    +0.000 OA
BRANCH  19  22
ATOM     21  C   UNL     1       7.474   7.023  17.709  0.00  0.00    +0.000 C 
ATOM     22  O   UNL     1       6.972   6.052  16.787  0.00  0.00    +0.000 OA
ENDBRANCH  19  22
ENDBRANCH  18  19
ENDBRANCH   1  18
TORSDOF 5
ENDMDL
MODEL 9
REMARK VINA RESULT:      -6.8      5.126      8.245
REMARK  Name = 
REMARK  7 active torsions:
REMARK  status: ('A' for Active; 'I' for Inactive)
REMARK    1  A    between atoms: C_1  and  O_2
REMARK    2  A    between atoms: O_2  and  C_3
REMARK    3  A    between atoms: C_3  and  C_5
REMARK    4  A    between atoms: C_5  and  C_6
REMARK    5  A    between atoms: C_8  and  O_9
REMARK    6  A    between atoms: C_10  and  C_11
REMARK    7  A    between atoms: C_12  and  C_13
REMARK                            x       y       z     vdW  Elec       q    Type
REMARK                         _______ _______ _______ _____ _____    ______ ____
ROOT
ATOM      1  C   UNL     1       2.055   7.096  20.307  0.00  0.00    +0.000 C 
ATOM      2  C   UNL     1       1.066   5.953  20.585  0.00  0.00    +0.000 C 
ATOM      3  C   UNL     1       1.780   4.605  20.520  0.00  0.00    +0.000 C 
ATOM      4  C   UNL     1       2.465   4.398  19.157  0.00  0.00    +0.000 C 
ATOM      5  C   UNL     1       1.449   4.160  18.024  0.00  0.00    +0.000 C 
ATOM      6  C   UNL     1       3.419   5.603  18.914  0.00  0.00    +0.000 C 
ATOM      7  N   UNL     1       2.715   6.900  18.997  0.00  0.00    +0.000 NA
ATOM      8  H   UNL     1       2.020   6.953  18.257  0.00  0.00    +0.000 HD
ENDROOT
BRANCH   6   9
ATOM      9  C   UNL     1       4.226   5.441  17.622  0.00  0.00    +0.000 A 
ATOM     10  C   UNL     1       4.804   4.217  17.240  0.00  0.00    +0.000 A 
ATOM     11  C   UNL     1       5.627   4.136  16.114  0.00  0.00    +0.000 A 
ATOM     12  C   UNL     1       5.865   5.271  15.352  0.00  0.00    +0.000 A 
ATOM     13  F   UNL     1       6.674   5.194  14.286  0.00  0.00    +0.000 F 
ATOM     14  C   UNL     1       5.282   6.486  15.683  0.00  0.00    +0.000 A 
ATOM     15  C   UNL     1       4.468   6.571  16.818  0.00  0.00    +0.000 A 
ENDBRANCH   6   9
BRANCH   3  16
ATOM     16  O   UNL     1       0.875   3.546  20.821  0.00  0.00    +0.000 OA
ATOM     17  H   UNL     1       1.374   2.714  20.877  0.00  0.00    +0.000 HD
ENDBRANCH   3  16
BRANCH   1  18
ATOM     18  C   UNL     1       1.352   8.463  20.316  0.00  0.00    +0.000 C 
BRANCH  18  19
ATOM     19  C   UNL     1       1.077   8.957  21.719  0.00  0.00    +0.000 C 
ATOM     20  O   UNL     1       1.932   9.304  22.522  0.00  0.00    +0.000 OA
BRANCH  19  22
ATOM     21  C   UNL     1      -0.662   9.793  23.053  0.00  0.00    +0.000 C 
ATOM     22  O   UNL     1      -0.267   8.976  21.949  0.00  0.00    +0.000 OA
ENDBRANCH  19  22
ENDBRANCH  18  19
ENDBRANCH   1  18
TORSDOF 5
ENDMDL
