MODEL 1
REMARK VINA RESULT:      -8.4      0.000      0.000
REMARK  Name = 
REMARK  9 active torsions:
REMARK  status: ('A' for Active; 'I' for Inactive)
REMARK    1  A    between atoms: C_1  and  C_2
REMARK    2  A    between atoms: C_4  and  C_5
REMARK    3  A    between atoms: C_5  and  N_6
REMARK    4  A    between atoms: C_10  and  C_11
REMARK    5  A    between atoms: C_19  and  C_20
REMARK    6  A    between atoms: C_22  and  C_24
REMARK    7  A    between atoms: C_27  and  O_28
REMARK    8  A    between atoms: C_30  and  O_31
REMARK    9  A    between atoms: C_32  and  C_33
REMARK                            x       y       z     vdW  Elec       q    Type
REMARK                         _______ _______ _______ _____ _____    ______ ____
ROOT
ATOM      1  C   UNL     1       2.402   7.655  18.604  0.00  0.00    +0.000 A 
ATOM      2  C   UNL     1       1.752   8.619  17.833  0.00  0.00    +0.000 A 
ATOM      3  C   UNL     1       0.946   9.617  18.411  0.00  0.00    +0.000 A 
ATOM      4  C   UNL     1       0.689   9.693  19.789  0.00  0.00    +0.000 A 
ATOM      5  C   UNL     1       1.351   8.718  20.563  0.00  0.00    +0.000 A 
ATOM      6  C   UNL     1       2.234   7.776  19.981  0.00  0.00    +0.000 A 
ATOM      7  C   UNL     1       1.169   8.582  22.038  0.00  0.00    +0.000 C 
ATOM      8  C   UNL     1      -0.139   9.187  22.445  0.00  0.00    +0.000 C 
ATOM      9  C   UNL     1      -0.248  10.631  21.934  0.00  0.00    +0.000 C 
ATOM     10  C   UNL     1      -1.455  11.190  22.705  0.00  0.00    +0.000 C 
ATOM     11  N   UNL     1      -0.213  10.698  20.412  0.00  0.00    +0.000 N 
ATOM     12  C   UNL     1      -0.789  11.717  19.576  0.00  0.00    +0.000 C 
ATOM     13  O   UNL     1      -0.629  11.811  18.357  0.00  0.00    +0.000 OA
ENDROOT
BRANCH   1  18
ATOM     14  N   UNL     1       5.409   3.447  16.289  0.00  0.00    +0.000 N 
ATOM     15  C   UNL     1       4.675   4.508  16.829  0.00  0.00    +0.000 A 
ATOM     16  C   UNL     1       3.436   4.235  17.374  0.00  0.00    +0.000 A 
ATOM     17  C   UNL     1       2.695   5.279  17.918  0.00  0.00    +0.000 A 
ATOM     18  C   UNL     1       3.217   6.583  17.995  0.00  0.00    +0.000 A 
ATOM     19  C   UNL     1       4.525   6.740  17.494  0.00  0.00    +0.000 A 
ATOM     20  C   UNL     1       5.323   8.010  17.567  0.00  0.00    +0.000 C 
ATOM     21  N   UNL     1       5.214   5.734  16.888  0.00  0.00    +0.000 NA
ATOM     22  H   UNL     1       5.828   2.953  17.075  0.00  0.00    +0.000 HD
BRANCH  14  23
ATOM     23  C   UNL     1       6.438   3.875  15.342  0.00  0.00    +0.000 C 
BRANCH  23  27
ATOM     24  C   UNL     1       4.070   3.242  10.873  0.00  0.00    +0.000 C 
ATOM     25  C   UNL     1       5.024   3.459  11.982  0.00  0.00    +0.000 A 
ATOM     26  C   UNL     1       4.743   3.602  13.357  0.00  0.00    +0.000 A 
ATOM     27  C   UNL     1       5.980   3.742  13.938  0.00  0.00    +0.000 A 
ATOM     28  O   UNL     1       6.937   3.705  12.976  0.00  0.00    +0.000 OA
ATOM     29  N   UNL     1       6.338   3.529  11.740  0.00  0.00    +0.000 NA
ENDBRANCH  23  27
ENDBRANCH  14  23
ENDBRANCH   1  18
BRANCH  12  30
ATOM     30  C   UNL     1      -1.633  12.822  20.085  0.00  0.00    +0.000 A 
ATOM     31  C   UNL     1      -1.038  13.982  20.586  0.00  0.00    +0.000 A 
ATOM     32  C   UNL     1      -1.823  14.977  21.180  0.00  0.00    +0.000 A 
ATOM     33  C   UNL     1      -3.208  14.886  21.117  0.00  0.00    +0.000 A 
ATOM     34  C   UNL     1      -3.820  13.844  20.434  0.00  0.00    +0.000 A 
ATOM     35  C   UNL     1      -3.035  12.808  19.931  0.00  0.00    +0.000 A 
BRANCH  33  36
ATOM     36  O   UNL     1      -4.009  15.806  21.720  0.00  0.00    +0.000 OA
ATOM     37  H   UNL     1      -4.441  15.391  22.484  0.00  0.00    +0.000 HD
ENDBRANCH  33  36
BRANCH  35  38
ATOM     38  O   UNL     1      -3.689  11.783  19.290  0.00  0.00    +0.000 OA
ATOM     39  H   UNL     1      -4.260  11.327  19.935  0.00  0.00    +0.000 HD
ENDBRANCH  35  38
ENDBRANCH  12  30
TORSDOF 6
ENDMDL
MODEL 2
REMARK VINA RESULT:      -8.3      2.297      3.302
REMARK  Name = 
REMARK  9 active torsions:
REMARK  status: ('A' for Active; 'I' for Inactive)
REMARK    1  A    between atoms: C_1  and  C_2
REMARK    2  A    between atoms: C_4  and  C_5
REMARK    3  A    between atoms: C_5  and  N_6
REMARK    4  A    between atoms: C_10  and  C_11
REMARK    5  A    between atoms: C_19  and  C_20
REMARK    6  A    between atoms: C_22  and  C_24
REMARK    7  A    between atoms: C_27  and  O_28
REMARK    8  A    between atoms: C_30  and  O_31
REMARK    9  A    between atoms: C_32  and  C_33
REMARK                            x       y       z     vdW  Elec       q    Type
REMARK                         _______ _______ _______ _____ _____    ______ ____
ROOT
ATOM      1  C   UNL     1       1.377   8.348  20.092  0.00  0.00    +0.000 A 
ATOM      2  C   UNL     1       0.861   8.443  21.384  0.00  0.00    +0.000 A 
ATOM      3  C   UNL     1       0.173   9.586  21.831  0.00  0.00    +0.000 A 
ATOM      4  C   UNL     1      -0.003  10.733  21.040  0.00  0.00    +0.000 A 
ATOM      5  C   UNL     1       0.519  10.629  19.735  0.00  0.00    +0.000 A 
ATOM      6  C   UNL     1       1.126   9.439  19.266  0.00  0.00    +0.000 A 
ATOM      7  C   UNL     1       0.493  11.752  18.752  0.00  0.00    +0.000 C 
ATOM      8  C   UNL     1       0.381  13.057  19.478  0.00  0.00    +0.000 C 
ATOM      9  C   UNL     1      -0.818  13.041  20.437  0.00  0.00    +0.000 C 
ATOM     10  C   UNL     1      -0.980  14.519  20.827  0.00  0.00    +0.000 C 
ATOM     11  N   UNL     1      -0.666  11.976  21.516  0.00  0.00    +0.000 N 
ATOM     12  C   UNL     1      -1.251  11.984  22.830  0.00  0.00    +0.000 C 
ATOM     13  O   UNL     1      -1.216  11.046  23.629  0.00  0.00    +0.000 OA
ENDROOT
BRANCH   1  18
ATOM     14  N   UNL     1       4.260   3.743  18.480  0.00  0.00    +0.000 N 
ATOM     15  C   UNL     1       3.525   4.876  18.847  0.00  0.00    +0.000 A 
ATOM     16  C   UNL     1       3.142   5.007  20.166  0.00  0.00    +0.000 A 
ATOM     17  C   UNL     1       2.414   6.129  20.548  0.00  0.00    +0.000 A 
ATOM     18  C   UNL     1       2.133   7.163  19.635  0.00  0.00    +0.000 A 
ATOM     19  C   UNL     1       2.645   6.976  18.335  0.00  0.00    +0.000 A 
ATOM     20  C   UNL     1       2.563   7.988  17.229  0.00  0.00    +0.000 C 
ATOM     21  N   UNL     1       3.286   5.840  17.946  0.00  0.00    +0.000 NA
ATOM     22  H   UNL     1       5.220   3.911  18.774  0.00  0.00    +0.000 HD
BRANCH  14  23
ATOM     23  C   UNL     1       4.204   3.453  17.048  0.00  0.00    +0.000 C 
BRANCH  23  27
ATOM     24  C   UNL     1       7.700   5.297  13.828  0.00  0.00    +0.000 C 
ATOM     25  C   UNL     1       6.912   4.831  14.990  0.00  0.00    +0.000 A 
ATOM     26  C   UNL     1       5.574   4.385  15.012  0.00  0.00    +0.000 A 
ATOM     27  C   UNL     1       5.357   4.043  16.324  0.00  0.00    +0.000 A 
ATOM     28  O   UNL     1       6.482   4.284  17.045  0.00  0.00    +0.000 OA
ATOM     29  N   UNL     1       7.464   4.784  16.208  0.00  0.00    +0.000 NA
ENDBRANCH  23  27
ENDBRANCH  14  23
ENDBRANCH   1  18
BRANCH  12  30
ATOM     30  C   UNL     1      -2.012  13.126  23.388  0.00  0.00    +0.000 A 
ATOM     31  C   UNL     1      -1.334  14.202  23.963  0.00  0.00    +0.000 A 
ATOM     32  C   UNL     1      -2.046  15.225  24.600  0.00  0.00    +0.000 A 
ATOM     33  C   UNL     1      -3.432  15.254  24.508  0.00  0.00    +0.000 A 
ATOM     34  C   UNL     1      -4.114  14.307  23.758  0.00  0.00    +0.000 A 
ATOM     35  C   UNL     1      -3.407  13.237  23.210  0.00  0.00    +0.000 A 
BRANCH  33  36
ATOM     36  O   UNL     1      -4.167  16.204  25.150  0.00  0.00    +0.000 OA
ATOM     37  H   UNL     1      -3.586  16.688  25.759  0.00  0.00    +0.000 HD
ENDBRANCH  33  36
BRANCH  35  38
ATOM     38  O   UNL     1      -4.130  12.307  22.502  0.00  0.00    +0.000 OA
ATOM     39  H   UNL     1      -3.515  11.641  22.146  0.00  0.00    +0.000 HD
ENDBRANCH  35  38
ENDBRANCH  12  30
TORSDOF 6
ENDMDL
MODEL 3
REMARK VINA RESULT:      -8.3      0.583      1.133
REMARK  Name = 
REMARK  9 active torsions:
REMARK  status: ('A' for Active; 'I' for Inactive)
REMARK    1  A    between atoms: C_1  and  C_2
REMARK    2  A    between atoms: C_4  and  C_5
REMARK    3  A    between atoms: C_5  and  N_6
REMARK    4  A    between atoms: C_10  and  C_11
REMARK    5  A    between atoms: C_19  and  C_20
REMARK    6  A    between atoms: C_22  and  C_24
REMARK    7  A    between atoms: C_27  and  O_28
REMARK    8  A    between atoms: C_30  and  O_31
REMARK    9  A    between atoms: C_32  and  C_33
REMARK                            x       y       z     vdW  Elec       q    Type
REMARK                         _______ _______ _______ _____ _____    ______ ____
ROOT
ATOM      1  C   UNL     1       2.358   7.681  18.612  0.00  0.00    +0.000 A 
ATOM      2  C   UNL     1       1.675   8.614  17.833  0.00  0.00    +0.000 A 
ATOM      3  C   UNL     1       0.861   9.610  18.404  0.00  0.00    +0.000 A 
ATOM      4  C   UNL     1       0.629   9.713  19.785  0.00  0.00    +0.000 A 
ATOM      5  C   UNL     1       1.324   8.768  20.567  0.00  0.00    +0.000 A 
ATOM      6  C   UNL     1       2.214   7.830  19.989  0.00  0.00    +0.000 A 
ATOM      7  C   UNL     1       1.173   8.662  22.048  0.00  0.00    +0.000 C 
ATOM      8  C   UNL     1      -0.138   9.252  22.467  0.00  0.00    +0.000 C 
ATOM      9  C   UNL     1      -0.285  10.681  21.926  0.00  0.00    +0.000 C 
ATOM     10  C   UNL     1      -1.488  11.235  22.707  0.00  0.00    +0.000 C 
ATOM     11  N   UNL     1      -0.281  10.714  20.403  0.00  0.00    +0.000 N 
ATOM     12  C   UNL     1      -0.891  11.703  19.555  0.00  0.00    +0.000 C 
ATOM     13  O   UNL     1      -0.757  11.772  18.331  0.00  0.00    +0.000 OA
ENDROOT
BRANCH   1  18
ATOM     14  N   UNL     1       5.399   3.479  16.330  0.00  0.00    +0.000 N 
ATOM     15  C   UNL     1       4.656   4.538  16.862  0.00  0.00    +0.000 A 
ATOM     16  C   UNL     1       3.416   4.261  17.403  0.00  0.00    +0.000 A 
ATOM     17  C   UNL     1       2.667   5.303  17.940  0.00  0.00    +0.000 A 
ATOM     18  C   UNL     1       3.181   6.611  18.012  0.00  0.00    +0.000 A 
ATOM     19  C   UNL     1       4.490   6.773  17.514  0.00  0.00    +0.000 A 
ATOM     20  C   UNL     1       5.280   8.049  17.583  0.00  0.00    +0.000 C 
ATOM     21  N   UNL     1       5.187   5.768  16.916  0.00  0.00    +0.000 NA
ATOM     22  H   UNL     1       5.818   2.992  17.119  0.00  0.00    +0.000 HD
BRANCH  14  23
ATOM     23  C   UNL     1       6.428   3.908  15.384  0.00  0.00    +0.000 C 
BRANCH  23  27
ATOM     24  C   UNL     1       4.087   3.209  10.910  0.00  0.00    +0.000 C 
ATOM     25  C   UNL     1       5.033   3.450  12.021  0.00  0.00    +0.000 A 
ATOM     26  C   UNL     1       4.746   3.592  13.394  0.00  0.00    +0.000 A 
ATOM     27  C   UNL     1       5.977   3.761  13.979  0.00  0.00    +0.000 A 
ATOM     28  O   UNL     1       6.938   3.740  13.020  0.00  0.00    +0.000 OA
ATOM     29  N   UNL     1       6.347   3.547  11.783  0.00  0.00    +0.000 NA
ENDBRANCH  23  27
ENDBRANCH  14  23
ENDBRANCH   1  18
BRANCH  12  30
ATOM     30  C   UNL     1      -1.747  12.804  20.056  0.00  0.00    +0.000 A 
ATOM     31  C   UNL     1      -3.124  12.614  20.183  0.00  0.00    +0.000 A 
ATOM     32  C   UNL     1      -3.953  13.685  20.539  0.00  0.00    +0.000 A 
ATOM     33  C   UNL     1      -3.384  14.891  20.930  0.00  0.00    +0.000 A 
ATOM     34  C   UNL     1      -2.006  15.032  21.014  0.00  0.00    +0.000 A 
ATOM     35  C   UNL     1      -1.189  13.995  20.565  0.00  0.00    +0.000 A 
BRANCH  33  36
ATOM     36  O   UNL     1      -4.152  15.972  21.239  0.00  0.00    +0.000 OA
ATOM     37  H   UNL     1      -4.365  16.448  20.420  0.00  0.00    +0.000 HD
ENDBRANCH  33  36
BRANCH  35  38
ATOM     38  O   UNL     1       0.169  14.193  20.639  0.00  0.00    +0.000 OA
ATOM     39  H   UNL     1       0.536  13.581  21.302  0.00  0.00    +0.000 HD
ENDBRANCH  35  38
ENDBRANCH  12  30
TORSDOF 6
ENDMDL
MODEL 4
REMARK VINA RESULT:      -7.9      1.886      2.372
REMARK  Name = 
REMARK  9 active torsions:
REMARK  status: ('A' for Active; 'I' for Inactive)
REMARK    1  A    between atoms: C_1  and  C_2
REMARK    2  A    between atoms: C_4  and  C_5
REMARK    3  A    between atoms: C_5  and  N_6
REMARK    4  A    between atoms: C_10  and  C_11
REMARK    5  A    between atoms: C_19  and  C_20
REMARK    6  A    between atoms: C_22  and  C_24
REMARK    7  A    between atoms: C_27  and  O_28
REMARK    8  A    between atoms: C_30  and  O_31
REMARK    9  A    between atoms: C_32  and  C_33
REMARK                            x       y       z     vdW  Elec       q    Type
REMARK                         _______ _______ _______ _____ _____    ______ ____
ROOT
ATOM      1  C   UNL     1       1.557   8.356  20.022  0.00  0.00    +0.000 A 
ATOM      2  C   UNL     1       1.250   9.407  19.159  0.00  0.00    +0.000 A 
ATOM      3  C   UNL     1       0.561  10.554  19.595  0.00  0.00    +0.000 A 
ATOM      4  C   UNL     1       0.086  10.711  20.907  0.00  0.00    +0.000 A 
ATOM      5  C   UNL     1       0.403   9.647  21.775  0.00  0.00    +0.000 A 
ATOM      6  C   UNL     1       1.177   8.540  21.349  0.00  0.00    +0.000 A 
ATOM      7  C   UNL     1      -0.057   9.583  23.194  0.00  0.00    +0.000 C 
ATOM      8  C   UNL     1      -1.276  10.436  23.369  0.00  0.00    +0.000 C 
ATOM      9  C   UNL     1      -1.015  11.861  22.862  0.00  0.00    +0.000 C 
ATOM     10  C   UNL     1      -2.209  12.658  23.413  0.00  0.00    +0.000 C 
ATOM     11  N   UNL     1      -0.702  11.883  21.371  0.00  0.00    +0.000 N 
ATOM     12  C   UNL     1      -0.916  12.973  20.456  0.00  0.00    +0.000 C 
ATOM     13  O   UNL     1      -0.530  13.005  19.286  0.00  0.00    +0.000 OA
ENDROOT
BRANCH   1  18
ATOM     14  N   UNL     1       4.172   3.607  18.374  0.00  0.00    +0.000 N 
ATOM     15  C   UNL     1       3.504   4.777  18.749  0.00  0.00    +0.000 A 
ATOM     16  C   UNL     1       3.099   4.906  20.063  0.00  0.00    +0.000 A 
ATOM     17  C   UNL     1       2.437   6.066  20.452  0.00  0.00    +0.000 A 
ATOM     18  C   UNL     1       2.246   7.134  19.556  0.00  0.00    +0.000 A 
ATOM     19  C   UNL     1       2.775   6.940  18.264  0.00  0.00    +0.000 A 
ATOM     20  C   UNL     1       2.784   7.978  17.179  0.00  0.00    +0.000 C 
ATOM     21  N   UNL     1       3.349   5.773  17.865  0.00  0.00    +0.000 NA
ATOM     22  H   UNL     1       5.134   3.705  18.694  0.00  0.00    +0.000 HD
BRANCH  14  23
ATOM     23  C   UNL     1       4.132   3.350  16.935  0.00  0.00    +0.000 C 
BRANCH  23  27
ATOM     24  C   UNL     1       7.679   5.239  13.799  0.00  0.00    +0.000 C 
ATOM     25  C   UNL     1       6.872   4.757  14.941  0.00  0.00    +0.000 A 
ATOM     26  C   UNL     1       5.534   4.312  14.935  0.00  0.00    +0.000 A 
ATOM     27  C   UNL     1       5.296   3.950  16.239  0.00  0.00    +0.000 A 
ATOM     28  O   UNL     1       6.410   4.179  16.981  0.00  0.00    +0.000 OA
ATOM     29  N   UNL     1       7.406   4.690  16.166  0.00  0.00    +0.000 NA
ENDBRANCH  23  27
ENDBRANCH  14  23
ENDBRANCH   1  18
BRANCH  12  30
ATOM     30  C   UNL     1      -1.609  14.231  20.819  0.00  0.00    +0.000 A 
ATOM     31  C   UNL     1      -0.874  15.324  21.282  0.00  0.00    +0.000 A 
ATOM     32  C   UNL     1      -1.531  16.471  21.742  0.00  0.00    +0.000 A 
ATOM     33  C   UNL     1      -2.906  16.586  21.577  0.00  0.00    +0.000 A 
ATOM     34  C   UNL     1      -3.627  15.596  20.924  0.00  0.00    +0.000 A 
ATOM     35  C   UNL     1      -2.983  14.416  20.557  0.00  0.00    +0.000 A 
BRANCH  33  36
ATOM     36  O   UNL     1      -3.592  17.662  22.051  0.00  0.00    +0.000 OA
ATOM     37  H   UNL     1      -4.037  18.100  21.307  0.00  0.00    +0.000 HD
ENDBRANCH  33  36
BRANCH  35  38
ATOM     38  O   UNL     1      -3.745  13.453  19.941  0.00  0.00    +0.000 OA
ATOM     39  H   UNL     1      -4.148  12.890  20.627  0.00  0.00    +0.000 HD
ENDBRANCH  35  38
ENDBRANCH  12  30
TORSDOF 6
ENDMDL
MODEL 5
REMARK VINA RESULT:      -7.9      2.298      3.492
REMARK  Name = 
REMARK  9 active torsions:
REMARK  status: ('A' for Active; 'I' for Inactive)
REMARK    1  A    between atoms: C_1  and  C_2
REMARK    2  A    between atoms: C_4  and  C_5
REMARK    3  A    between atoms: C_5  and  N_6
REMARK    4  A    between atoms: C_10  and  C_11
REMARK    5  A    between atoms: C_19  and  C_20
REMARK    6  A    between atoms: C_22  and  C_24
REMARK    7  A    between atoms: C_27  and  O_28
REMARK    8  A    between atoms: C_30  and  O_31
REMARK    9  A    between atoms: C_32  and  C_33
REMARK                            x       y       z     vdW  Elec       q    Type
REMARK                         _______ _______ _______ _____ _____    ______ ____
ROOT
ATOM      1  C   UNL     1       1.245   8.305  20.027  0.00  0.00    +0.000 A 
ATOM      2  C   UNL     1       0.917   8.477  21.371  0.00  0.00    +0.000 A 
ATOM      3  C   UNL     1       0.147   9.568  21.817  0.00  0.00    +0.000 A 
ATOM      4  C   UNL     1      -0.304  10.588  20.965  0.00  0.00    +0.000 A 
ATOM      5  C   UNL     1       0.030  10.407  19.608  0.00  0.00    +0.000 A 
ATOM      6  C   UNL     1       0.724   9.259  19.156  0.00  0.00    +0.000 A 
ATOM      7  C   UNL     1      -0.299  11.402  18.545  0.00  0.00    +0.000 C 
ATOM      8  C   UNL     1      -0.486  12.755  19.159  0.00  0.00    +0.000 C 
ATOM      9  C   UNL     1      -1.517  12.694  20.295  0.00  0.00    +0.000 C 
ATOM     10  C   UNL     1      -1.828  14.174  20.572  0.00  0.00    +0.000 C 
ATOM     11  N   UNL     1      -1.059  11.783  21.427  0.00  0.00    +0.000 N 
ATOM     12  C   UNL     1      -1.441  11.862  22.812  0.00  0.00    +0.000 C 
ATOM     13  O   UNL     1      -1.157  11.030  23.676  0.00  0.00    +0.000 OA
ENDROOT
BRANCH   1  18
ATOM     14  N   UNL     1       4.464   3.939  18.389  0.00  0.00    +0.000 N 
ATOM     15  C   UNL     1       3.646   5.010  18.764  0.00  0.00    +0.000 A 
ATOM     16  C   UNL     1       3.307   5.139  20.095  0.00  0.00    +0.000 A 
ATOM     17  C   UNL     1       2.497   6.201  20.484  0.00  0.00    +0.000 A 
ATOM     18  C   UNL     1       2.086   7.182  19.562  0.00  0.00    +0.000 A 
ATOM     19  C   UNL     1       2.560   7.009  18.246  0.00  0.00    +0.000 A 
ATOM     20  C   UNL     1       2.340   7.982  17.123  0.00  0.00    +0.000 C 
ATOM     21  N   UNL     1       3.283   5.925  17.854  0.00  0.00    +0.000 NA
ATOM     22  H   UNL     1       5.417   4.199  18.639  0.00  0.00    +0.000 HD
BRANCH  14  23
ATOM     23  C   UNL     1       4.377   3.609  16.967  0.00  0.00    +0.000 C 
BRANCH  23  27
ATOM     24  C   UNL     1       7.860   5.277  13.640  0.00  0.00    +0.000 C 
ATOM     25  C   UNL     1       7.083   4.856  14.827  0.00  0.00    +0.000 A 
ATOM     26  C   UNL     1       5.730   4.463  14.887  0.00  0.00    +0.000 A 
ATOM     27  C   UNL     1       5.533   4.145  16.209  0.00  0.00    +0.000 A 
ATOM     28  O   UNL     1       6.684   4.350  16.899  0.00  0.00    +0.000 OA
ATOM     29  N   UNL     1       7.664   4.801  16.031  0.00  0.00    +0.000 NA
ENDBRANCH  23  27
ENDBRANCH  14  23
ENDBRANCH   1  18
BRANCH  12  30
ATOM     30  C   UNL     1      -2.265  12.954  23.379  0.00  0.00    +0.000 A 
ATOM     31  C   UNL     1      -3.619  12.740  23.647  0.00  0.00    +0.000 A 
ATOM     32  C   UNL     1      -4.430  13.801  24.067  0.00  0.00    +0.000 A 
ATOM     33  C   UNL     1      -3.851  15.024  24.381  0.00  0.00    +0.000 A 
ATOM     34  C   UNL     1      -2.475  15.193  24.325  0.00  0.00    +0.000 A 
ATOM     35  C   UNL     1      -1.684  14.165  23.812  0.00  0.00    +0.000 A 
BRANCH  33  36
ATOM     36  O   UNL     1      -4.607  16.094  24.749  0.00  0.00    +0.000 OA
ATOM     37  H   UNL     1      -4.076  16.667  25.326  0.00  0.00    +0.000 HD
ENDBRANCH  33  36
BRANCH  35  38
ATOM     38  O   UNL     1      -0.331  14.390  23.747  0.00  0.00    +0.000 OA
ATOM     39  H   UNL     1       0.036  14.343  24.649  0.00  0.00    +0.000 HD
ENDBRANCH  35  38
ENDBRANCH  12  30
TORSDOF 6
ENDMDL
MODEL 6
REMARK VINA RESULT:      -7.9      2.963      4.297
REMARK  Name = 
REMARK  9 active torsions:
REMARK  status: ('A' for Active; 'I' for Inactive)
REMARK    1  A    between atoms: C_1  and  C_2
REMARK    2  A    between atoms: C_4  and  C_5
REMARK    3  A    between atoms: C_5  and  N_6
REMARK    4  A    between atoms: C_10  and  C_11
REMARK    5  A    between atoms: C_19  and  C_20
REMARK    6  A    between atoms: C_22  and  C_24
REMARK    7  A    between atoms: C_27  and  O_28
REMARK    8  A    between atoms: C_30  and  O_31
REMARK    9  A    between atoms: C_32  and  C_33
REMARK                            x       y       z     vdW  Elec       q    Type
REMARK                         _______ _______ _______ _____ _____    ______ ____
ROOT
ATOM      1  C   UNL     1       1.495   8.756  19.345  0.00  0.00    +0.000 A 
ATOM      2  C   UNL     1       1.489   9.036  20.711  0.00  0.00    +0.000 A 
ATOM      3  C   UNL     1       0.594   9.961  21.279  0.00  0.00    +0.000 A 
ATOM      4  C   UNL     1      -0.320  10.709  20.520  0.00  0.00    +0.000 A 
ATOM      5  C   UNL     1      -0.310  10.420  19.140  0.00  0.00    +0.000 A 
ATOM      6  C   UNL     1       0.529   9.419  18.593  0.00  0.00    +0.000 A 
ATOM      7  C   UNL     1      -1.158  11.142  18.147  0.00  0.00    +0.000 C 
ATOM      8  C   UNL     1      -1.542  12.484  18.690  0.00  0.00    +0.000 C 
ATOM      9  C   UNL     1      -2.189  12.342  20.074  0.00  0.00    +0.000 C 
ATOM     10  C   UNL     1      -2.808  13.728  20.321  0.00  0.00    +0.000 C 
ATOM     11  N   UNL     1      -1.226  11.741  21.091  0.00  0.00    +0.000 N 
ATOM     12  C   UNL     1      -1.245  11.925  22.518  0.00  0.00    +0.000 C 
ATOM     13  O   UNL     1      -0.534  11.320  23.322  0.00  0.00    +0.000 OA
ENDROOT
BRANCH   1  18
ATOM     14  N   UNL     1       5.235   5.250  16.930  0.00  0.00    +0.000 N 
ATOM     15  C   UNL     1       4.328   6.108  17.560  0.00  0.00    +0.000 A 
ATOM     16  C   UNL     1       4.081   7.337  16.982  0.00  0.00    +0.000 A 
ATOM     17  C   UNL     1       3.179   8.200  17.595  0.00  0.00    +0.000 A 
ATOM     18  C   UNL     1       2.461   7.813  18.742  0.00  0.00    +0.000 A 
ATOM     19  C   UNL     1       2.718   6.506  19.202  0.00  0.00    +0.000 A 
ATOM     20  C   UNL     1       1.995   5.841  20.338  0.00  0.00    +0.000 C 
ATOM     21  N   UNL     1       3.661   5.696  18.647  0.00  0.00    +0.000 NA
ATOM     22  H   UNL     1       4.737   4.819  16.153  0.00  0.00    +0.000 HD
BRANCH  14  23
ATOM     23  C   UNL     1       5.783   4.227  17.820  0.00  0.00    +0.000 C 
BRANCH  23  27
ATOM     24  C   UNL     1       1.681   1.458  19.040  0.00  0.00    +0.000 C 
ATOM     25  C   UNL     1       2.969   2.183  18.989  0.00  0.00    +0.000 A 
ATOM     26  C   UNL     1       3.553   2.844  17.889  0.00  0.00    +0.000 A 
ATOM     27  C   UNL     1       4.716   3.372  18.394  0.00  0.00    +0.000 A 
ATOM     28  O   UNL     1       4.833   3.035  19.705  0.00  0.00    +0.000 OA
ATOM     29  N   UNL     1       3.734   2.282  20.083  0.00  0.00    +0.000 NA
ENDBRANCH  23  27
ENDBRANCH  14  23
ENDBRANCH   1  18
BRANCH  12  30
ATOM     30  C   UNL     1      -2.160  12.857  23.217  0.00  0.00    +0.000 A 
ATOM     31  C   UNL     1      -3.444  12.439  23.572  0.00  0.00    +0.000 A 
ATOM     32  C   UNL     1      -4.355  13.349  24.121  0.00  0.00    +0.000 A 
ATOM     33  C   UNL     1      -3.924  14.624  24.470  0.00  0.00    +0.000 A 
ATOM     34  C   UNL     1      -2.594  14.988  24.321  0.00  0.00    +0.000 A 
ATOM     35  C   UNL     1      -1.716  14.112  23.683  0.00  0.00    +0.000 A 
BRANCH  33  36
ATOM     36  O   UNL     1      -4.786  15.554  24.964  0.00  0.00    +0.000 OA
ATOM     37  H   UNL     1      -4.271  16.297  25.320  0.00  0.00    +0.000 HD
ENDBRANCH  33  36
BRANCH  35  38
ATOM     38  O   UNL     1      -0.417  14.531  23.531  0.00  0.00    +0.000 OA
ATOM     39  H   UNL     1       0.098  14.236  24.304  0.00  0.00    +0.000 HD
ENDBRANCH  35  38
ENDBRANCH  12  30
TORSDOF 6
ENDMDL
MODEL 7
REMARK VINA RESULT:      -7.9      1.609      2.555
REMARK  Name = 
REMARK  9 active torsions:
REMARK  status: ('A' for Active; 'I' for Inactive)
REMARK    1  A    between atoms: C_1  and  C_2
REMARK    2  A    between atoms: C_4  and  C_5
REMARK    3  A    between atoms: C_5  and  N_6
REMARK    4  A    between atoms: C_10  and  C_11
REMARK    5  A    between atoms: C_19  and  C_20
REMARK    6  A    between atoms: C_22  and  C_24
REMARK    7  A    between atoms: C_27  and  O_28
REMARK    8  A    between atoms: C_30  and  O_31
REMARK    9  A    between atoms: C_32  and  C_33
REMARK                            x       y       z     vdW  Elec       q    Type
REMARK                         _______ _______ _______ _____ _____    ______ ____
ROOT
ATOM      1  C   UNL     1       2.135   7.555  18.770  0.00  0.00    +0.000 A 
ATOM      2  C   UNL     1       2.179   7.863  20.130  0.00  0.00    +0.000 A 
ATOM      3  C   UNL     1       1.356   8.853  20.698  0.00  0.00    +0.000 A 
ATOM      4  C   UNL     1       0.470   9.639  19.944  0.00  0.00    +0.000 A 
ATOM      5  C   UNL     1       0.428   9.322  18.572  0.00  0.00    +0.000 A 
ATOM      6  C   UNL     1       1.192   8.261  18.028  0.00  0.00    +0.000 A 
ATOM      7  C   UNL     1      -0.399  10.074  17.583  0.00  0.00    +0.000 C 
ATOM      8  C   UNL     1      -0.687  11.448  18.105  0.00  0.00    +0.000 C 
ATOM      9  C   UNL     1      -1.307  11.373  19.507  0.00  0.00    +0.000 C 
ATOM     10  C   UNL     1      -1.835  12.799  19.738  0.00  0.00    +0.000 C 
ATOM     11  N   UNL     1      -0.358  10.736  20.514  0.00  0.00    +0.000 N 
ATOM     12  C   UNL     1      -0.330  10.950  21.936  0.00  0.00    +0.000 C 
ATOM     13  O   UNL     1       0.363  10.320  22.737  0.00  0.00    +0.000 OA
ENDROOT
BRANCH   1  18
ATOM     14  N   UNL     1       5.442   3.569  16.472  0.00  0.00    +0.000 N 
ATOM     15  C   UNL     1       4.632   4.576  17.008  0.00  0.00    +0.000 A 
ATOM     16  C   UNL     1       3.413   4.216  17.548  0.00  0.00    +0.000 A 
ATOM     17  C   UNL     1       2.598   5.205  18.088  0.00  0.00    +0.000 A 
ATOM     18  C   UNL     1       3.026   6.543  18.166  0.00  0.00    +0.000 A 
ATOM     19  C   UNL     1       4.322   6.792  17.670  0.00  0.00    +0.000 A 
ATOM     20  C   UNL     1       5.027   8.116  17.745  0.00  0.00    +0.000 C 
ATOM     21  N   UNL     1       5.083   5.837  17.068  0.00  0.00    +0.000 NA
ATOM     22  H   UNL     1       5.892   3.107  17.260  0.00  0.00    +0.000 HD
BRANCH  14  23
ATOM     23  C   UNL     1       6.442   4.068  15.529  0.00  0.00    +0.000 C 
BRANCH  23  27
ATOM     24  C   UNL     1       4.209   3.111  11.048  0.00  0.00    +0.000 C 
ATOM     25  C   UNL     1       5.118   3.460  12.162  0.00  0.00    +0.000 A 
ATOM     26  C   UNL     1       4.813   3.560  13.535  0.00  0.00    +0.000 A 
ATOM     27  C   UNL     1       6.014   3.873  14.123  0.00  0.00    +0.000 A 
ATOM     28  O   UNL     1       6.972   3.973  13.165  0.00  0.00    +0.000 OA
ATOM     29  N   UNL     1       6.410   3.715  11.926  0.00  0.00    +0.000 NA
ENDBRANCH  23  27
ENDBRANCH  14  23
ENDBRANCH   1  18
BRANCH  12  30
ATOM     30  C   UNL     1      -1.170  11.950  22.636  0.00  0.00    +0.000 A 
ATOM     31  C   UNL     1      -2.374  11.560  23.226  0.00  0.00    +0.000 A 
ATOM     32  C   UNL     1      -3.230  12.519  23.781  0.00  0.00    +0.000 A 
ATOM     33  C   UNL     1      -2.801  13.836  23.896  0.00  0.00    +0.000 A 
ATOM     34  C   UNL     1      -1.520  14.201  23.508  0.00  0.00    +0.000 A 
ATOM     35  C   UNL     1      -0.711  13.264  22.866  0.00  0.00    +0.000 A 
BRANCH  33  36
ATOM     36  O   UNL     1      -3.617  14.808  24.387  0.00  0.00    +0.000 OA
ATOM     37  H   UNL     1      -3.531  14.828  25.354  0.00  0.00    +0.000 HD
ENDBRANCH  33  36
BRANCH  35  38
ATOM     38  O   UNL     1       0.537  13.681  22.472  0.00  0.00    +0.000 OA
ATOM     39  H   UNL     1       0.547  13.757  21.501  0.00  0.00    +0.000 HD
ENDBRANCH  35  38
ENDBRANCH  12  30
TORSDOF 6
ENDMDL
MODEL 8
REMARK VINA RESULT:      -7.9      3.591      5.043
REMARK  Name = 
REMARK  9 active torsions:
REMARK  status: ('A' for Active; 'I' for Inactive)
REMARK    1  A    between atoms: C_1  and  C_2
REMARK    2  A    between atoms: C_4  and  C_5
REMARK    3  A    between atoms: C_5  and  N_6
REMARK    4  A    between atoms: C_10  and  C_11
REMARK    5  A    between atoms: C_19  and  C_20
REMARK    6  A    between atoms: C_22  and  C_24
REMARK    7  A    between atoms: C_27  and  O_28
REMARK    8  A    between atoms: C_30  and  O_31
REMARK    9  A    between atoms: C_32  and  C_33
REMARK                            x       y       z     vdW  Elec       q    Type
REMARK                         _______ _______ _______ _____ _____    ______ ____
ROOT
ATOM      1  C   UNL     1       2.125   7.274  19.809  0.00  0.00    +0.000 A 
ATOM      2  C   UNL     1       1.417   7.584  20.969  0.00  0.00    +0.000 A 
ATOM      3  C   UNL     1       0.794   8.833  21.153  0.00  0.00    +0.000 A 
ATOM      4  C   UNL     1       0.877   9.876  20.218  0.00  0.00    +0.000 A 
ATOM      5  C   UNL     1       1.592   9.556  19.046  0.00  0.00    +0.000 A 
ATOM      6  C   UNL     1       2.134   8.266  18.831  0.00  0.00    +0.000 A 
ATOM      7  C   UNL     1       1.851  10.538  17.952  0.00  0.00    +0.000 C 
ATOM      8  C   UNL     1       1.764  11.932  18.492  0.00  0.00    +0.000 C 
ATOM      9  C   UNL     1       0.429  12.147  19.219  0.00  0.00    +0.000 C 
ATOM     10  C   UNL     1       0.368  13.673  19.402  0.00  0.00    +0.000 C 
ATOM     11  N   UNL     1       0.285  11.224  20.422  0.00  0.00    +0.000 N 
ATOM     12  C   UNL     1      -0.505  11.456  21.603  0.00  0.00    +0.000 C 
ATOM     13  O   UNL     1      -0.705  10.633  22.498  0.00  0.00    +0.000 OA
ENDROOT
BRANCH   1  18
ATOM     14  N   UNL     1       4.891   2.380  19.101  0.00  0.00    +0.000 N 
ATOM     15  C   UNL     1       4.195   3.575  19.310  0.00  0.00    +0.000 A 
ATOM     16  C   UNL     1       4.849   4.765  19.061  0.00  0.00    +0.000 A 
ATOM     17  C   UNL     1       4.169   5.962  19.260  0.00  0.00    +0.000 A 
ATOM     18  C   UNL     1       2.812   5.978  19.631  0.00  0.00    +0.000 A 
ATOM     19  C   UNL     1       2.210   4.711  19.773  0.00  0.00    +0.000 A 
ATOM     20  C   UNL     1       0.753   4.484  20.057  0.00  0.00    +0.000 C 
ATOM     21  N   UNL     1       2.900   3.544  19.657  0.00  0.00    +0.000 NA
ATOM     22  H   UNL     1       4.884   2.210  18.096  0.00  0.00    +0.000 HD
BRANCH  14  23
ATOM     23  C   UNL     1       4.321   1.241  19.819  0.00  0.00    +0.000 C 
BRANCH  23  27
ATOM     24  C   UNL     1       7.529  -1.598  22.581  0.00  0.00    +0.000 C 
ATOM     25  C   UNL     1       6.682  -0.538  21.993  0.00  0.00    +0.000 A 
ATOM     26  C   UNL     1       5.914  -0.594  20.811  0.00  0.00    +0.000 A 
ATOM     27  C   UNL     1       5.302   0.634  20.751  0.00  0.00    +0.000 A 
ATOM     28  O   UNL     1       5.690   1.384  21.815  0.00  0.00    +0.000 OA
ATOM     29  N   UNL     1       6.563   0.649  22.599  0.00  0.00    +0.000 NA
ENDBRANCH  23  27
ENDBRANCH  14  23
ENDBRANCH   1  18
BRANCH  12  30
ATOM     30  C   UNL     1      -1.217  12.725  21.882  0.00  0.00    +0.000 A 
ATOM     31  C   UNL     1      -0.603  13.717  22.649  0.00  0.00    +0.000 A 
ATOM     32  C   UNL     1      -1.314  14.864  23.019  0.00  0.00    +0.000 A 
ATOM     33  C   UNL     1      -2.574  15.092  22.479  0.00  0.00    +0.000 A 
ATOM     34  C   UNL     1      -3.115  14.219  21.546  0.00  0.00    +0.000 A 
ATOM     35  C   UNL     1      -2.445  13.031  21.258  0.00  0.00    +0.000 A 
BRANCH  33  36
ATOM     36  O   UNL     1      -3.319  16.171  22.846  0.00  0.00    +0.000 OA
ATOM     37  H   UNL     1      -3.060  16.930  22.299  0.00  0.00    +0.000 HD
ENDBRANCH  33  36
BRANCH  35  38
ATOM     38  O   UNL     1      -3.035  12.184  20.351  0.00  0.00    +0.000 OA
ATOM     39  H   UNL     1      -3.653  12.700  19.802  0.00  0.00    +0.000 HD
ENDBRANCH  35  38
ENDBRANCH  12  30
TORSDOF 6
ENDMDL
MODEL 9
REMARK VINA RESULT:      -7.7      2.667      3.820
REMARK  Name = 
REMARK  9 active torsions:
REMARK  status: ('A' for Active; 'I' for Inactive)
REMARK    1  A    between atoms: C_1  and  C_2
REMARK    2  A    between atoms: C_4  and  C_5
REMARK    3  A    between atoms: C_5  and  N_6
REMARK    4  A    between atoms: C_10  and  C_11
REMARK    5  A    between atoms: C_19  and  C_20
REMARK    6  A    between atoms: C_22  and  C_24
REMARK    7  A    between atoms: C_27  and  O_28
REMARK    8  A    between atoms: C_30  and  O_31
REMARK    9  A    between atoms: C_32  and  C_33
REMARK                            x       y       z     vdW  Elec       q    Type
REMARK                         _______ _______ _______ _____ _____    ______ ____
ROOT
ATOM      1  C   UNL     1       0.907   8.355  20.373  0.00  0.00    +0.000 A 
ATOM      2  C   UNL     1       0.351   8.512  21.642  0.00  0.00    +0.000 A 
ATOM      3  C   UNL     1      -0.410   9.643  21.989  0.00  0.00    +0.000 A 
ATOM      4  C   UNL     1      -0.626  10.720  21.115  0.00  0.00    +0.000 A 
ATOM      5  C   UNL     1      -0.064  10.555  19.833  0.00  0.00    +0.000 A 
ATOM      6  C   UNL     1       0.620   9.371  19.465  0.00  0.00    +0.000 A 
ATOM      7  C   UNL     1      -0.123  11.603  18.772  0.00  0.00    +0.000 C 
ATOM      8  C   UNL     1      -0.326  12.947  19.400  0.00  0.00    +0.000 C 
ATOM      9  C   UNL     1      -1.548  12.931  20.328  0.00  0.00    +0.000 C 
ATOM     10  C   UNL     1      -1.801  14.422  20.608  0.00  0.00    +0.000 C 
ATOM     11  N   UNL     1      -1.369  11.954  21.484  0.00  0.00    +0.000 N 
ATOM     12  C   UNL     1      -1.990  12.021  22.780  0.00  0.00    +0.000 C 
ATOM     13  O   UNL     1      -1.927  11.145  23.645  0.00  0.00    +0.000 OA
ENDROOT
BRANCH   1  18
ATOM     14  N   UNL     1       4.031   3.793  19.135  0.00  0.00    +0.000 N 
ATOM     15  C   UNL     1       3.249   4.921  19.404  0.00  0.00    +0.000 A 
ATOM     16  C   UNL     1       2.444   4.907  20.525  0.00  0.00    +0.000 A 
ATOM     17  C   UNL     1       1.663   6.022  20.808  0.00  0.00    +0.000 A 
ATOM     18  C   UNL     1       1.739   7.186  20.020  0.00  0.00    +0.000 A 
ATOM     19  C   UNL     1       2.656   7.132  18.951  0.00  0.00    +0.000 A 
ATOM     20  C   UNL     1       2.983   8.285  18.046  0.00  0.00    +0.000 C 
ATOM     21  N   UNL     1       3.357   6.011  18.630  0.00  0.00    +0.000 NA
ATOM     22  H   UNL     1       4.839   3.845  19.754  0.00  0.00    +0.000 HD
BRANCH  14  23
ATOM     23  C   UNL     1       4.457   3.699  17.740  0.00  0.00    +0.000 C 
BRANCH  23  27
ATOM     24  C   UNL     1       7.828   7.503  17.352  0.00  0.00    +0.000 C 
ATOM     25  C   UNL     1       6.807   6.453  17.144  0.00  0.00    +0.000 A 
ATOM     26  C   UNL     1       6.346   5.492  18.067  0.00  0.00    +0.000 A 
ATOM     27  C   UNL     1       5.384   4.797  17.375  0.00  0.00    +0.000 A 
ATOM     28  O   UNL     1       5.288   5.295  16.115  0.00  0.00    +0.000 OA
ATOM     29  N   UNL     1       6.185   6.338  15.964  0.00  0.00    +0.000 NA
ENDBRANCH  23  27
ENDBRANCH  14  23
ENDBRANCH   1  18
BRANCH  12  30
ATOM     30  C   UNL     1      -2.827  13.155  23.236  0.00  0.00    +0.000 A 
ATOM     31  C   UNL     1      -2.244  14.220  23.926  0.00  0.00    +0.000 A 
ATOM     32  C   UNL     1      -3.045  15.233  24.465  0.00  0.00    +0.000 A 
ATOM     33  C   UNL     1      -4.402  15.267  24.166  0.00  0.00    +0.000 A 
ATOM     34  C   UNL     1      -4.962  14.334  23.304  0.00  0.00    +0.000 A 
ATOM     35  C   UNL     1      -4.180  13.272  22.851  0.00  0.00    +0.000 A 
BRANCH  33  36
ATOM     36  O   UNL     1      -5.225  16.207  24.705  0.00  0.00    +0.000 OA
ATOM     37  H   UNL     1      -6.097  15.807  24.858  0.00  0.00    +0.000 HD
ENDBRANCH  33  36
BRANCH  35  38
ATOM     38  O   UNL     1      -4.786  12.357  22.026  0.00  0.00    +0.000 OA
ATOM     39  H   UNL     1      -4.095  11.852  21.560  0.00  0.00    +0.000 HD
ENDBRANCH  35  38
ENDBRANCH  12  30
TORSDOF 6
ENDMDL
