MODEL 1
REMARK VINA RESULT:      -8.4      0.000      0.000
REMARK  Name = 
REMARK  3 active torsions:
REMARK  status: ('A' for Active; 'I' for Inactive)
REMARK    1  A    between atoms: C_1  and  N_2
REMARK    2  A    between atoms: C_4  and  C_5
REMARK    3  A    between atoms: N_13  and  C_14
REMARK                            x       y       z     vdW  Elec       q    Type
REMARK                         _______ _______ _______ _____ _____    ______ ____
ROOT
ATOM      1  C   UNL     1       4.714   4.148  17.116  0.00  0.00    +0.000 A 
ATOM      2  C   UNL     1       4.407   2.811  17.370  0.00  0.00    +0.000 A 
ATOM      3  C   UNL     1       3.406   2.484  18.297  0.00  0.00    +0.000 A 
ATOM      4  C   UNL     1       2.679   3.457  18.969  0.00  0.00    +0.000 A 
ATOM      5  N   UNL     1       1.730   3.072  19.827  0.00  0.00    +0.000 NA
ATOM      6  C   UNL     1       1.049   4.044  20.442  0.00  0.00    +0.000 A 
ATOM      7  N   UNL     1       1.217   5.356  20.267  0.00  0.00    +0.000 NA
ATOM      8  C   UNL     1       2.166   5.736  19.388  0.00  0.00    +0.000 A 
ATOM      9  N   UNL     1       2.331   7.128  19.125  0.00  0.00    +0.000 N 
ATOM     10  C   UNL     1       2.966   4.803  18.711  0.00  0.00    +0.000 A 
ATOM     11  C   UNL     1       4.007   5.135  17.808  0.00  0.00    +0.000 A 
ATOM     12  H   UNL     1       2.218   7.289  18.129  0.00  0.00    +0.000 HD
ENDROOT
BRANCH   9  13
ATOM     13  C   UNL     1       1.752   8.152  19.907  0.00  0.00    +0.000 A 
ATOM     14  C   UNL     1       1.718   8.040  21.306  0.00  0.00    +0.000 A 
ATOM     15  C   UNL     1       1.090   9.004  22.090  0.00  0.00    +0.000 A 
ATOM     16  C   UNL     1       0.495  10.099  21.477  0.00  0.00    +0.000 A 
ATOM     17  F   UNL     1      -0.132  11.004  22.241  0.00  0.00    +0.000 F 
ATOM     18  C   UNL     1       0.547  10.248  20.093  0.00  0.00    +0.000 A 
ATOM     19 CL   UNL     1      -0.193  11.606  19.332  0.00  0.00    +0.000 Cl
ATOM     20  C   UNL     1       1.185   9.284  19.304  0.00  0.00    +0.000 A 
ENDBRANCH   9  13
BRANCH   1  24
ATOM     21  C   UNL     1       7.216   4.712  12.856  0.00  0.00    +0.000 C 
ATOM     22  N   UNL     1       6.782   4.783  14.230  0.00  0.00    +0.000 N 
ATOM     23  C   UNL     1       5.665   4.217  14.777  0.00  0.00    +0.000 A 
ATOM     24  C   UNL     1       5.693   4.538  16.119  0.00  0.00    +0.000 A 
ATOM     25  C   UNL     1       6.867   5.314  16.262  0.00  0.00    +0.000 A 
ATOM     26  N   UNL     1       7.531   5.463  15.117  0.00  0.00    +0.000 NA
ENDBRANCH   1  24
TORSDOF 2
ENDMDL
MODEL 2
REMARK VINA RESULT:      -8.4      4.058      7.695
REMARK  Name = 
REMARK  3 active torsions:
REMARK  status: ('A' for Active; 'I' for Inactive)
REMARK    1  A    between atoms: C_1  and  N_2
REMARK    2  A    between atoms: C_4  and  C_5
REMARK    3  A    between atoms: N_13  and  C_14
REMARK                            x       y       z     vdW  Elec       q    Type
REMARK                         _______ _______ _______ _____ _____    ______ ____
ROOT
ATOM      1  C   UNL     1       1.887   6.447  19.981  0.00  0.00    +0.000 A 
ATOM      2  C   UNL     1       1.405   5.441  20.819  0.00  0.00    +0.000 A 
ATOM      3  C   UNL     1       1.775   4.106  20.598  0.00  0.00    +0.000 A 
ATOM      4  C   UNL     1       2.635   3.741  19.571  0.00  0.00    +0.000 A 
ATOM      5  N   UNL     1       2.956   2.452  19.429  0.00  0.00    +0.000 NA
ATOM      6  C   UNL     1       3.795   2.150  18.434  0.00  0.00    +0.000 A 
ATOM      7  N   UNL     1       4.354   3.015  17.585  0.00  0.00    +0.000 NA
ATOM      8  C   UNL     1       4.038   4.315  17.744  0.00  0.00    +0.000 A 
ATOM      9  N   UNL     1       4.664   5.276  16.897  0.00  0.00    +0.000 N 
ATOM     10  C   UNL     1       3.139   4.744  18.732  0.00  0.00    +0.000 A 
ATOM     11  C   UNL     1       2.731   6.087  18.927  0.00  0.00    +0.000 A 
ATOM     12  H   UNL     1       5.143   5.959  17.476  0.00  0.00    +0.000 HD
ENDROOT
BRANCH   9  13
ATOM     13  C   UNL     1       5.395   4.945  15.734  0.00  0.00    +0.000 A 
ATOM     14  C   UNL     1       6.770   5.223  15.661  0.00  0.00    +0.000 A 
ATOM     15  C   UNL     1       7.493   4.969  14.499  0.00  0.00    +0.000 A 
ATOM     16  C   UNL     1       6.846   4.424  13.398  0.00  0.00    +0.000 A 
ATOM     17  F   UNL     1       7.548   4.214  12.276  0.00  0.00    +0.000 F 
ATOM     18  C   UNL     1       5.490   4.110  13.460  0.00  0.00    +0.000 A 
ATOM     19 CL   UNL     1       4.685   3.435  12.094  0.00  0.00    +0.000 Cl
ATOM     20  C   UNL     1       4.762   4.357  14.630  0.00  0.00    +0.000 A 
ENDBRANCH   9  13
BRANCH   1  24
ATOM     21  C   UNL     1       1.077  11.314  19.353  0.00  0.00    +0.000 C 
ATOM     22  N   UNL     1       1.226   9.993  19.914  0.00  0.00    +0.000 N 
ATOM     23  C   UNL     1       1.527   8.838  19.248  0.00  0.00    +0.000 A 
ATOM     24  C   UNL     1       1.587   7.849  20.208  0.00  0.00    +0.000 A 
ATOM     25  C   UNL     1       1.291   8.524  21.416  0.00  0.00    +0.000 A 
ATOM     26  N   UNL     1       1.074   9.826  21.240  0.00  0.00    +0.000 NA
ENDBRANCH   1  24
TORSDOF 2
ENDMDL
MODEL 3
REMARK VINA RESULT:      -8.4      1.873      2.186
REMARK  Name = 
REMARK  3 active torsions:
REMARK  status: ('A' for Active; 'I' for Inactive)
REMARK    1  A    between atoms: C_1  and  N_2
REMARK    2  A    between atoms: C_4  and  C_5
REMARK    3  A    between atoms: N_13  and  C_14
REMARK                            x       y       z     vdW  Elec       q    Type
REMARK                         _______ _______ _______ _____ _____    ______ ____
ROOT
ATOM      1  C   UNL     1       5.047   4.970  17.213  0.00  0.00    +0.000 A 
ATOM      2  C   UNL     1       5.072   3.972  18.188  0.00  0.00    +0.000 A 
ATOM      3  C   UNL     1       4.258   4.081  19.325  0.00  0.00    +0.000 A 
ATOM      4  C   UNL     1       3.395   5.152  19.513  0.00  0.00    +0.000 A 
ATOM      5  N   UNL     1       2.638   5.182  20.613  0.00  0.00    +0.000 NA
ATOM      6  C   UNL     1       1.815   6.227  20.745  0.00  0.00    +0.000 A 
ATOM      7  N   UNL     1       1.669   7.229  19.876  0.00  0.00    +0.000 NA
ATOM      8  C   UNL     1       2.424   7.184  18.761  0.00  0.00    +0.000 A 
ATOM      9  N   UNL     1       2.249   8.202  17.778  0.00  0.00    +0.000 N 
ATOM     10  C   UNL     1       3.349   6.153  18.533  0.00  0.00    +0.000 A 
ATOM     11  C   UNL     1       4.203   6.066  17.406  0.00  0.00    +0.000 A 
ATOM     12  H   UNL     1       2.013   7.764  16.892  0.00  0.00    +0.000 HD
ENDROOT
BRANCH   9  13
ATOM     13  C   UNL     1       1.528   9.396  18.000  0.00  0.00    +0.000 A 
ATOM     14  C   UNL     1       2.208  10.584  18.313  0.00  0.00    +0.000 A 
ATOM     15  C   UNL     1       1.514  11.755  18.603  0.00  0.00    +0.000 A 
ATOM     16  C   UNL     1       0.125  11.749  18.575  0.00  0.00    +0.000 A 
ATOM     17  F   UNL     1      -0.531  12.875  18.887  0.00  0.00    +0.000 F 
ATOM     18  C   UNL     1      -0.569  10.590  18.234  0.00  0.00    +0.000 A 
ATOM     19 CL   UNL     1      -2.292  10.582  18.199  0.00  0.00    +0.000 Cl
ATOM     20  C   UNL     1       0.128   9.414  17.933  0.00  0.00    +0.000 A 
ENDBRANCH   9  13
BRANCH   1  24
ATOM     21  C   UNL     1       6.608   3.786  12.642  0.00  0.00    +0.000 C 
ATOM     22  N   UNL     1       6.492   4.344  13.968  0.00  0.00    +0.000 N 
ATOM     23  C   UNL     1       5.470   4.162  14.857  0.00  0.00    +0.000 A 
ATOM     24  C   UNL     1       5.820   4.870  15.989  0.00  0.00    +0.000 A 
ATOM     25  C   UNL     1       7.067   5.451  15.659  0.00  0.00    +0.000 A 
ATOM     26  N   UNL     1       7.478   5.131  14.433  0.00  0.00    +0.000 NA
ENDBRANCH   1  24
TORSDOF 2
ENDMDL
MODEL 4
REMARK VINA RESULT:      -8.3      4.231      7.920
REMARK  Name = 
REMARK  3 active torsions:
REMARK  status: ('A' for Active; 'I' for Inactive)
REMARK    1  A    between atoms: C_1  and  N_2
REMARK    2  A    between atoms: C_4  and  C_5
REMARK    3  A    between atoms: N_13  and  C_14
REMARK                            x       y       z     vdW  Elec       q    Type
REMARK                         _______ _______ _______ _____ _____    ______ ____
ROOT
ATOM      1  C   UNL     1       2.110   7.236  19.328  0.00  0.00    +0.000 A 
ATOM      2  C   UNL     1       1.772   6.414  20.403  0.00  0.00    +0.000 A 
ATOM      3  C   UNL     1       2.246   5.094  20.455  0.00  0.00    +0.000 A 
ATOM      4  C   UNL     1       3.072   4.570  19.470  0.00  0.00    +0.000 A 
ATOM      5  N   UNL     1       3.498   3.310  19.593  0.00  0.00    +0.000 NA
ATOM      6  C   UNL     1       4.300   2.852  18.626  0.00  0.00    +0.000 A 
ATOM      7  N   UNL     1       4.726   3.540  17.565  0.00  0.00    +0.000 NA
ATOM      8  C   UNL     1       4.305   4.815  17.456  0.00  0.00    +0.000 A 
ATOM      9  N   UNL     1       4.790   5.602  16.371  0.00  0.00    +0.000 N 
ATOM     10  C   UNL     1       3.432   5.390  18.393  0.00  0.00    +0.000 A 
ATOM     11  C   UNL     1       2.918   6.708  18.317  0.00  0.00    +0.000 A 
ATOM     12  H   UNL     1       5.240   6.432  16.744  0.00  0.00    +0.000 HD
ENDROOT
BRANCH   9  13
ATOM     13  C   UNL     1       5.476   5.071  15.256  0.00  0.00    +0.000 A 
ATOM     14  C   UNL     1       6.867   5.228  15.141  0.00  0.00    +0.000 A 
ATOM     15  C   UNL     1       7.552   4.772  14.018  0.00  0.00    +0.000 A 
ATOM     16  C   UNL     1       6.848   4.145  12.998  0.00  0.00    +0.000 A 
ATOM     17  F   UNL     1       7.515   3.740  11.909  0.00  0.00    +0.000 F 
ATOM     18  C   UNL     1       5.473   3.949  13.107  0.00  0.00    +0.000 A 
ATOM     19 CL   UNL     1       4.599   3.172  11.841  0.00  0.00    +0.000 Cl
ATOM     20  C   UNL     1       4.784   4.399  14.239  0.00  0.00    +0.000 A 
ENDBRANCH   9  13
BRANCH   1  24
ATOM     21  C   UNL     1       0.212  11.704  20.406  0.00  0.00    +0.000 C 
ATOM     22  N   UNL     1       0.864  10.594  19.755  0.00  0.00    +0.000 N 
ATOM     23  C   UNL     1       1.061   9.337  20.256  0.00  0.00    +0.000 A 
ATOM     24  C   UNL     1       1.701   8.626  19.262  0.00  0.00    +0.000 A 
ATOM     25  C   UNL     1       1.851   9.562  18.212  0.00  0.00    +0.000 A 
ATOM     26  N   UNL     1       1.342  10.757  18.508  0.00  0.00    +0.000 NA
ENDBRANCH   1  24
TORSDOF 2
ENDMDL
MODEL 5
REMARK VINA RESULT:      -8.3      1.053      1.424
REMARK  Name = 
REMARK  3 active torsions:
REMARK  status: ('A' for Active; 'I' for Inactive)
REMARK    1  A    between atoms: C_1  and  N_2
REMARK    2  A    between atoms: C_4  and  C_5
REMARK    3  A    between atoms: N_13  and  C_14
REMARK                            x       y       z     vdW  Elec       q    Type
REMARK                         _______ _______ _______ _____ _____    ______ ____
ROOT
ATOM      1  C   UNL     1       4.875   4.229  17.247  0.00  0.00    +0.000 A 
ATOM      2  C   UNL     1       4.741   2.941  17.765  0.00  0.00    +0.000 A 
ATOM      3  C   UNL     1       3.851   2.698  18.822  0.00  0.00    +0.000 A 
ATOM      4  C   UNL     1       3.067   3.704  19.370  0.00  0.00    +0.000 A 
ATOM      5  N   UNL     1       2.230   3.396  20.365  0.00  0.00    +0.000 NA
ATOM      6  C   UNL     1       1.487   4.395  20.853  0.00  0.00    +0.000 A 
ATOM      7  N   UNL     1       1.492   5.660  20.428  0.00  0.00    +0.000 NA
ATOM      8  C   UNL     1       2.327   5.959  19.414  0.00  0.00    +0.000 A 
ATOM      9  N   UNL     1       2.314   7.285  18.890  0.00  0.00    +0.000 N 
ATOM     10  C   UNL     1       3.180   4.999  18.848  0.00  0.00    +0.000 A 
ATOM     11  C   UNL     1       4.110   5.254  17.810  0.00  0.00    +0.000 A 
ATOM     12  H   UNL     1       2.114   7.242  17.895  0.00  0.00    +0.000 HD
ENDROOT
BRANCH   9  13
ATOM     13  C   UNL     1       1.678   8.376  19.522  0.00  0.00    +0.000 A 
ATOM     14  C   UNL     1       1.379   9.539  18.793  0.00  0.00    +0.000 A 
ATOM     15  C   UNL     1       0.816  10.651  19.413  0.00  0.00    +0.000 A 
ATOM     16  C   UNL     1       0.538  10.606  20.773  0.00  0.00    +0.000 A 
ATOM     17  F   UNL     1       0.025  11.694  21.363  0.00  0.00    +0.000 F 
ATOM     18  C   UNL     1       0.796   9.451  21.508  0.00  0.00    +0.000 A 
ATOM     19 CL   UNL     1       0.453   9.395  23.196  0.00  0.00    +0.000 Cl
ATOM     20  C   UNL     1       1.354   8.329  20.885  0.00  0.00    +0.000 A 
ENDBRANCH   9  13
BRANCH   1  24
ATOM     21  C   UNL     1       6.944   4.277  12.725  0.00  0.00    +0.000 C 
ATOM     22  N   UNL     1       6.629   4.533  14.110  0.00  0.00    +0.000 N 
ATOM     23  C   UNL     1       5.609   3.992  14.842  0.00  0.00    +0.000 A 
ATOM     24  C   UNL     1       5.731   4.518  16.112  0.00  0.00    +0.000 A 
ATOM     25  C   UNL     1       6.852   5.376  16.022  0.00  0.00    +0.000 A 
ATOM     26  N   UNL     1       7.401   5.385  14.808  0.00  0.00    +0.000 NA
ENDBRANCH   1  24
TORSDOF 2
ENDMDL
MODEL 6
REMARK VINA RESULT:      -8.2      1.914      2.339
REMARK  Name = 
REMARK  3 active torsions:
REMARK  status: ('A' for Active; 'I' for Inactive)
REMARK    1  A    between atoms: C_1  and  N_2
REMARK    2  A    between atoms: C_4  and  C_5
REMARK    3  A    between atoms: N_13  and  C_14
REMARK                            x       y       z     vdW  Elec       q    Type
REMARK                         _______ _______ _______ _____ _____    ______ ____
ROOT
ATOM      1  C   UNL     1       4.883   5.065  17.376  0.00  0.00    +0.000 A 
ATOM      2  C   UNL     1       4.822   4.047  18.327  0.00  0.00    +0.000 A 
ATOM      3  C   UNL     1       3.984   4.180  19.445  0.00  0.00    +0.000 A 
ATOM      4  C   UNL     1       3.182   5.297  19.635  0.00  0.00    +0.000 A 
ATOM      5  N   UNL     1       2.398   5.349  20.715  0.00  0.00    +0.000 NA
ATOM      6  C   UNL     1       1.636   6.439  20.850  0.00  0.00    +0.000 A 
ATOM      7  N   UNL     1       1.573   7.466  20.000  0.00  0.00    +0.000 NA
ATOM      8  C   UNL     1       2.355   7.399  18.905  0.00  0.00    +0.000 A 
ATOM      9  N   UNL     1       2.268   8.447  17.941  0.00  0.00    +0.000 N 
ATOM     10  C   UNL     1       3.222   6.319  18.678  0.00  0.00    +0.000 A 
ATOM     11  C   UNL     1       4.101   6.206  17.572  0.00  0.00    +0.000 A 
ATOM     12  H   UNL     1       2.031   8.043  17.040  0.00  0.00    +0.000 HD
ENDROOT
BRANCH   9  13
ATOM     13  C   UNL     1       1.614   9.677  18.172  0.00  0.00    +0.000 A 
ATOM     14  C   UNL     1       0.213   9.729  18.251  0.00  0.00    +0.000 A 
ATOM     15  C   UNL     1      -0.455  10.941  18.407  0.00  0.00    +0.000 A 
ATOM     16  C   UNL     1       0.279  12.116  18.495  0.00  0.00    +0.000 A 
ATOM     17  F   UNL     1      -0.377  13.279  18.615  0.00  0.00    +0.000 F 
ATOM     18  C   UNL     1       1.671  12.085  18.453  0.00  0.00    +0.000 A 
ATOM     19 CL   UNL     1       2.582  13.544  18.561  0.00  0.00    +0.000 Cl
ATOM     20  C   UNL     1       2.344  10.866  18.304  0.00  0.00    +0.000 A 
ENDBRANCH   9  13
BRANCH   1  24
ATOM     21  C   UNL     1       6.511   3.858  12.834  0.00  0.00    +0.000 C 
ATOM     22  N   UNL     1       6.383   4.410  14.161  0.00  0.00    +0.000 N 
ATOM     23  C   UNL     1       5.334   4.261  15.024  0.00  0.00    +0.000 A 
ATOM     24  C   UNL     1       5.682   4.946  16.170  0.00  0.00    +0.000 A 
ATOM     25  C   UNL     1       6.958   5.480  15.876  0.00  0.00    +0.000 A 
ATOM     26  N   UNL     1       7.387   5.155  14.658  0.00  0.00    +0.000 NA
ENDBRANCH   1  24
TORSDOF 2
ENDMDL
MODEL 7
REMARK VINA RESULT:      -7.8      2.511      3.573
REMARK  Name = 
REMARK  3 active torsions:
REMARK  status: ('A' for Active; 'I' for Inactive)
REMARK    1  A    between atoms: C_1  and  N_2
REMARK    2  A    between atoms: C_4  and  C_5
REMARK    3  A    between atoms: N_13  and  C_14
REMARK                            x       y       z     vdW  Elec       q    Type
REMARK                         _______ _______ _______ _____ _____    ______ ____
ROOT
ATOM      1  C   UNL     1       3.693   6.199  18.042  0.00  0.00    +0.000 A 
ATOM      2  C   UNL     1       3.455   5.261  19.048  0.00  0.00    +0.000 A 
ATOM      3  C   UNL     1       2.616   5.583  20.124  0.00  0.00    +0.000 A 
ATOM      4  C   UNL     1       1.982   6.815  20.221  0.00  0.00    +0.000 A 
ATOM      5  N   UNL     1       1.184   7.046  21.267  0.00  0.00    +0.000 NA
ATOM      6  C   UNL     1       0.587   8.242  21.312  0.00  0.00    +0.000 A 
ATOM      7  N   UNL     1       0.701   9.212  20.403  0.00  0.00    +0.000 NA
ATOM      8  C   UNL     1       1.495   8.966  19.343  0.00  0.00    +0.000 A 
ATOM      9  N   UNL     1       1.590   9.953  18.319  0.00  0.00    +0.000 N 
ATOM     10  C   UNL     1       2.199   7.759  19.209  0.00  0.00    +0.000 A 
ATOM     11  C   UNL     1       3.082   7.452  18.145  0.00  0.00    +0.000 A 
ATOM     12  H   UNL     1       1.322   9.534  17.434  0.00  0.00    +0.000 HD
ENDROOT
BRANCH   9  13
ATOM     13  C   UNL     1       1.118  11.278  18.455  0.00  0.00    +0.000 A 
ATOM     14  C   UNL     1      -0.261  11.533  18.532  0.00  0.00    +0.000 A 
ATOM     15  C   UNL     1      -0.749  12.835  18.596  0.00  0.00    +0.000 A 
ATOM     16  C   UNL     1       0.144  13.898  18.591  0.00  0.00    +0.000 A 
ATOM     17  F   UNL     1      -0.341  15.147  18.622  0.00  0.00    +0.000 F 
ATOM     18  C   UNL     1       1.517  13.667  18.549  0.00  0.00    +0.000 A 
ATOM     19 CL   UNL     1       2.625  14.987  18.543  0.00  0.00    +0.000 Cl
ATOM     20  C   UNL     1       2.010  12.359  18.494  0.00  0.00    +0.000 A 
ENDBRANCH   9  13
BRANCH   1  24
ATOM     21  C   UNL     1       6.202   3.808  14.476  0.00  0.00    +0.000 C 
ATOM     22  N   UNL     1       5.596   4.821  15.305  0.00  0.00    +0.000 N 
ATOM     23  C   UNL     1       4.818   4.631  16.413  0.00  0.00    +0.000 A 
ATOM     24  C   UNL     1       4.499   5.891  16.876  0.00  0.00    +0.000 A 
ATOM     25  C   UNL     1       5.128   6.764  15.957  0.00  0.00    +0.000 A 
ATOM     26  N   UNL     1       5.797   6.117  15.004  0.00  0.00    +0.000 NA
ENDBRANCH   1  24
TORSDOF 2
ENDMDL
MODEL 8
REMARK VINA RESULT:      -7.6      4.302      8.176
REMARK  Name = 
REMARK  3 active torsions:
REMARK  status: ('A' for Active; 'I' for Inactive)
REMARK    1  A    between atoms: C_1  and  N_2
REMARK    2  A    between atoms: C_4  and  C_5
REMARK    3  A    between atoms: N_13  and  C_14
REMARK                            x       y       z     vdW  Elec       q    Type
REMARK                         _______ _______ _______ _____ _____    ______ ____
ROOT
ATOM      1  C   UNL     1      -1.572  10.594  18.942  0.00  0.00    +0.000 A 
ATOM      2  C   UNL     1      -1.709  11.539  19.959  0.00  0.00    +0.000 A 
ATOM      3  C   UNL     1      -0.941  11.431  21.127  0.00  0.00    +0.000 A 
ATOM      4  C   UNL     1      -0.016  10.412  21.308  0.00  0.00    +0.000 A 
ATOM      5  N   UNL     1       0.692  10.380  22.441  0.00  0.00    +0.000 NA
ATOM      6  C   UNL     1       1.579   9.388  22.566  0.00  0.00    +0.000 A 
ATOM      7  N   UNL     1       1.833   8.442  21.660  0.00  0.00    +0.000 NA
ATOM      8  C   UNL     1       1.127   8.489  20.513  0.00  0.00    +0.000 A 
ATOM      9  N   UNL     1       1.417   7.534  19.495  0.00  0.00    +0.000 N 
ATOM     10  C   UNL     1       0.144   9.466  20.288  0.00  0.00    +0.000 A 
ATOM     11  C   UNL     1      -0.662   9.548  19.126  0.00  0.00    +0.000 A 
ATOM     12  H   UNL     1       1.661   8.028  18.642  0.00  0.00    +0.000 HD
ENDROOT
BRANCH   9  13
ATOM     13  C   UNL     1       2.208   6.382  19.697  0.00  0.00    +0.000 A 
ATOM     14  C   UNL     1       3.461   6.266  19.073  0.00  0.00    +0.000 A 
ATOM     15  C   UNL     1       4.225   5.110  19.203  0.00  0.00    +0.000 A 
ATOM     16  C   UNL     1       3.743   4.057  19.970  0.00  0.00    +0.000 A 
ATOM     17  F   UNL     1       4.475   2.938  20.061  0.00  0.00    +0.000 F 
ATOM     18  C   UNL     1       2.518   4.163  20.625  0.00  0.00    +0.000 A 
ATOM     19 CL   UNL     1       1.919   2.856  21.575  0.00  0.00    +0.000 Cl
ATOM     20  C   UNL     1       1.752   5.328  20.502  0.00  0.00    +0.000 A 
ENDBRANCH   9  13
BRANCH   1  24
ATOM     21  C   UNL     1      -3.064  10.007  14.235  0.00  0.00    +0.000 C 
ATOM     22  N   UNL     1      -2.944  10.425  15.611  0.00  0.00    +0.000 N 
ATOM     23  C   UNL     1      -2.025  10.000  16.529  0.00  0.00    +0.000 A 
ATOM     24  C   UNL     1      -2.293  10.700  17.688  0.00  0.00    +0.000 A 
ATOM     25  C   UNL     1      -3.407  11.506  17.353  0.00  0.00    +0.000 A 
ATOM     26  N   UNL     1      -3.802  11.342  16.091  0.00  0.00    +0.000 NA
ENDBRANCH   1  24
TORSDOF 2
ENDMDL
MODEL 9
REMARK VINA RESULT:      -7.5      3.599      5.484
REMARK  Name = 
REMARK  3 active torsions:
REMARK  status: ('A' for Active; 'I' for Inactive)
REMARK    1  A    between atoms: C_1  and  N_2
REMARK    2  A    between atoms: C_4  and  C_5
REMARK    3  A    between atoms: N_13  and  C_14
REMARK                            x       y       z     vdW  Elec       q    Type
REMARK                         _______ _______ _______ _____ _____    ______ ____
ROOT
ATOM      1  C   UNL     1       5.970   4.048  13.775  0.00  0.00    +0.000 A 
ATOM      2  C   UNL     1       7.201   4.704  13.746  0.00  0.00    +0.000 A 
ATOM      3  C   UNL     1       7.765   5.192  14.933  0.00  0.00    +0.000 A 
ATOM      4  C   UNL     1       7.146   5.026  16.165  0.00  0.00    +0.000 A 
ATOM      5  N   UNL     1       7.750   5.504  17.257  0.00  0.00    +0.000 NA
ATOM      6  C   UNL     1       7.121   5.311  18.421  0.00  0.00    +0.000 A 
ATOM      7  N   UNL     1       5.962   4.673  18.594  0.00  0.00    +0.000 NA
ATOM      8  C   UNL     1       5.367   4.180  17.490  0.00  0.00    +0.000 A 
ATOM      9  N   UNL     1       4.160   3.436  17.641  0.00  0.00    +0.000 N 
ATOM     10  C   UNL     1       5.918   4.354  16.211  0.00  0.00    +0.000 A 
ATOM     11  C   UNL     1       5.325   3.900  15.006  0.00  0.00    +0.000 A 
ATOM     12  H   UNL     1       4.289   2.516  17.232  0.00  0.00    +0.000 HD
ENDROOT
BRANCH   9  13
ATOM     13  C   UNL     1       3.403   3.396  18.833  0.00  0.00    +0.000 A 
ATOM     14  C   UNL     1       3.200   2.177  19.500  0.00  0.00    +0.000 A 
ATOM     15  C   UNL     1       2.399   2.105  20.637  0.00  0.00    +0.000 A 
ATOM     16  C   UNL     1       1.800   3.259  21.123  0.00  0.00    +0.000 A 
ATOM     17  F   UNL     1       1.007   3.169  22.200  0.00  0.00    +0.000 F 
ATOM     18  C   UNL     1       2.015   4.485  20.496  0.00  0.00    +0.000 A 
ATOM     19 CL   UNL     1       1.270   5.917  21.099  0.00  0.00    +0.000 Cl
ATOM     20  C   UNL     1       2.826   4.561  19.358  0.00  0.00    +0.000 A 
ENDBRANCH   9  13
BRANCH   1  24
ATOM     21  C   UNL     1       3.013   3.122   9.885  0.00  0.00    +0.000 C 
ATOM     22  N   UNL     1       4.068   3.075  10.869  0.00  0.00    +0.000 N 
ATOM     23  C   UNL     1       4.265   3.932  11.915  0.00  0.00    +0.000 A 
ATOM     24  C   UNL     1       5.378   3.466  12.585  0.00  0.00    +0.000 A 
ATOM     25  C   UNL     1       5.775   2.330  11.842  0.00  0.00    +0.000 A 
ATOM     26  N   UNL     1       4.980   2.089  10.800  0.00  0.00    +0.000 NA
ENDBRANCH   1  24
TORSDOF 2
ENDMDL
