MODEL 1
REMARK VINA RESULT:      -7.9      0.000      0.000
REMARK  Name = 
REMARK  8 active torsions:
REMARK  status: ('A' for Active; 'I' for Inactive)
REMARK    1  A    between atoms: C_1  and  O_2
REMARK    2  A    between atoms: O_2  and  C_3
REMARK    3  A    between atoms: C_6  and  C_7
REMARK    4  A    between atoms: C_7  and  C_8
REMARK    5  A    between atoms: C_15  and  O_16
REMARK    6  A    between atoms: C_21  and  C_22
REMARK    7  A    between atoms: C_25  and  O_26
REMARK    8  A    between atoms: O_26  and  C_27
REMARK                            x       y       z     vdW  Elec       q    Type
REMARK                         _______ _______ _______ _____ _____    ______ ____
ROOT
ATOM      1  C   UNL     1       5.542   6.351  16.927  0.00  0.00    +0.000 A 
ATOM      2  C   UNL     1       4.561   6.647  17.881  0.00  0.00    +0.000 A 
ATOM      3  C   UNL     1       3.572   5.715  18.257  0.00  0.00    +0.000 A 
ATOM      4  C   UNL     1       2.629   5.978  19.276  0.00  0.00    +0.000 A 
ATOM      5  C   UNL     1       1.703   4.984  19.567  0.00  0.00    +0.000 A 
ATOM      6  N   UNL     1       1.658   3.779  18.967  0.00  0.00    +0.000 NA
ATOM      7  C   UNL     1       2.583   3.523  18.012  0.00  0.00    +0.000 A 
ATOM      8  C   UNL     1       2.532   2.132  17.440  0.00  0.00    +0.000 C 
ATOM      9  C   UNL     1       3.557   4.461  17.603  0.00  0.00    +0.000 A 
ATOM     10  C   UNL     1       4.511   4.202  16.588  0.00  0.00    +0.000 A 
ATOM     11  C   UNL     1       5.496   5.133  16.240  0.00  0.00    +0.000 A 
ENDROOT
BRANCH   1  13
ATOM     12  C   UNL     1       7.570   7.356  17.596  0.00  0.00    +0.000 C 
ATOM     13  O   UNL     1       6.547   7.235  16.607  0.00  0.00    +0.000 OA
ENDBRANCH   1  13
BRANCH  11  14
ATOM     14  O   UNL     1       6.448   4.927  15.273  0.00  0.00    +0.000 OA
ATOM     15  C   UNL     1       6.183   3.930  14.293  0.00  0.00    +0.000 C 
ENDBRANCH  11  14
BRANCH   4  16
ATOM     16  C   UNL     1       2.608   7.247  20.102  0.00  0.00    +0.000 C 
BRANCH  16  17
ATOM     17  C   UNL     1       1.740   8.374  19.583  0.00  0.00    +0.000 A 
ATOM     18  C   UNL     1       1.458   8.497  18.229  0.00  0.00    +0.000 A 
ATOM     19  C   UNL     1       0.549   9.465  17.822  0.00  0.00    +0.000 A 
ATOM     20  C   UNL     1      -0.072  10.285  18.769  0.00  0.00    +0.000 A 
ATOM     21  C   UNL     1      -1.021  11.249  18.377  0.00  0.00    +0.000 A 
ATOM     22  C   UNL     1      -1.649  12.055  19.324  0.00  0.00    +0.000 A 
ATOM     23  C   UNL     1      -1.329  11.909  20.669  0.00  0.00    +0.000 A 
ATOM     24  C   UNL     1      -0.382  10.953  21.053  0.00  0.00    +0.000 A 
ATOM     25  C   UNL     1       0.269  10.118  20.128  0.00  0.00    +0.000 A 
ATOM     26  N   UNL     1       1.163   9.175  20.513  0.00  0.00    +0.000 NA
BRANCH  24  27
ATOM     27  O   UNL     1      -0.088  10.819  22.393  0.00  0.00    +0.000 OA
ATOM     28  H   UNL     1      -0.838  11.137  22.917  0.00  0.00    +0.000 HD
ENDBRANCH  24  27
ENDBRANCH  16  17
ENDBRANCH   4  16
TORSDOF 5
ENDMDL
MODEL 2
REMARK VINA RESULT:      -7.6      1.366      2.008
REMARK  Name = 
REMARK  8 active torsions:
REMARK  status: ('A' for Active; 'I' for Inactive)
REMARK    1  A    between atoms: C_1  and  O_2
REMARK    2  A    between atoms: O_2  and  C_3
REMARK    3  A    between atoms: C_6  and  C_7
REMARK    4  A    between atoms: C_7  and  C_8
REMARK    5  A    between atoms: C_15  and  O_16
REMARK    6  A    between atoms: C_21  and  C_22
REMARK    7  A    between atoms: C_25  and  O_26
REMARK    8  A    between atoms: O_26  and  C_27
REMARK                            x       y       z     vdW  Elec       q    Type
REMARK                         _______ _______ _______ _____ _____    ______ ____
ROOT
ATOM      1  C   UNL     1       6.007   6.605  16.815  0.00  0.00    +0.000 A 
ATOM      2  C   UNL     1       4.781   7.137  17.233  0.00  0.00    +0.000 A 
ATOM      3  C   UNL     1       3.670   6.321  17.530  0.00  0.00    +0.000 A 
ATOM      4  C   UNL     1       2.455   6.845  18.028  0.00  0.00    +0.000 A 
ATOM      5  C   UNL     1       1.428   5.946  18.291  0.00  0.00    +0.000 A 
ATOM      6  N   UNL     1       1.517   4.613  18.132  0.00  0.00    +0.000 NA
ATOM      7  C   UNL     1       2.693   4.115  17.681  0.00  0.00    +0.000 A 
ATOM      8  C   UNL     1       2.756   2.613  17.604  0.00  0.00    +0.000 C 
ATOM      9  C   UNL     1       3.801   4.925  17.348  0.00  0.00    +0.000 A 
ATOM     10  C   UNL     1       5.025   4.407  16.856  0.00  0.00    +0.000 A 
ATOM     11  C   UNL     1       6.123   5.230  16.583  0.00  0.00    +0.000 A 
ENDROOT
BRANCH   1  13
ATOM     12  C   UNL     1       7.797   7.811  17.770  0.00  0.00    +0.000 C 
ATOM     13  O   UNL     1       7.111   7.394  16.589  0.00  0.00    +0.000 OA
ENDBRANCH   1  13
BRANCH  11  14
ATOM     14  O   UNL     1       7.332   4.778  16.114  0.00  0.00    +0.000 OA
ATOM     15  C   UNL     1       7.442   4.525  14.718  0.00  0.00    +0.000 C 
ENDBRANCH  11  14
BRANCH   4  16
ATOM     16  C   UNL     1       2.232   8.308  18.345  0.00  0.00    +0.000 C 
BRANCH  16  17
ATOM     17  C   UNL     1       1.449   8.614  19.604  0.00  0.00    +0.000 A 
ATOM     18  C   UNL     1       1.649   7.883  20.768  0.00  0.00    +0.000 A 
ATOM     19  C   UNL     1       1.007   8.289  21.930  0.00  0.00    +0.000 A 
ATOM     20  C   UNL     1       0.188   9.423  21.918  0.00  0.00    +0.000 A 
ATOM     21  C   UNL     1      -0.444   9.869  23.094  0.00  0.00    +0.000 A 
ATOM     22  C   UNL     1      -1.248  11.006  23.083  0.00  0.00    +0.000 A 
ATOM     23  C   UNL     1      -1.433  11.704  21.895  0.00  0.00    +0.000 A 
ATOM     24  C   UNL     1      -0.806  11.253  20.727  0.00  0.00    +0.000 A 
ATOM     25  C   UNL     1       0.016  10.114  20.700  0.00  0.00    +0.000 A 
ATOM     26  N   UNL     1       0.642   9.703  19.570  0.00  0.00    +0.000 NA
BRANCH  24  27
ATOM     27  O   UNL     1      -0.996  11.966  19.562  0.00  0.00    +0.000 OA
ATOM     28  H   UNL     1      -1.833  11.698  19.156  0.00  0.00    +0.000 HD
ENDBRANCH  24  27
ENDBRANCH  16  17
ENDBRANCH   4  16
TORSDOF 5
ENDMDL
MODEL 3
REMARK VINA RESULT:      -7.5      2.499      3.957
REMARK  Name = 
REMARK  8 active torsions:
REMARK  status: ('A' for Active; 'I' for Inactive)
REMARK    1  A    between atoms: C_1  and  O_2
REMARK    2  A    between atoms: O_2  and  C_3
REMARK    3  A    between atoms: C_6  and  C_7
REMARK    4  A    between atoms: C_7  and  C_8
REMARK    5  A    between atoms: C_15  and  O_16
REMARK    6  A    between atoms: C_21  and  C_22
REMARK    7  A    between atoms: C_25  and  O_26
REMARK    8  A    between atoms: O_26  and  C_27
REMARK                            x       y       z     vdW  Elec       q    Type
REMARK                         _______ _______ _______ _____ _____    ______ ____
ROOT
ATOM      1  C   UNL     1       2.196   3.807  17.899  0.00  0.00    +0.000 A 
ATOM      2  C   UNL     1       2.316   5.202  17.876  0.00  0.00    +0.000 A 
ATOM      3  C   UNL     1       3.557   5.846  17.699  0.00  0.00    +0.000 A 
ATOM      4  C   UNL     1       3.676   7.251  17.595  0.00  0.00    +0.000 A 
ATOM      5  C   UNL     1       4.950   7.777  17.418  0.00  0.00    +0.000 A 
ATOM      6  N   UNL     1       6.074   7.043  17.310  0.00  0.00    +0.000 NA
ATOM      7  C   UNL     1       5.949   5.697  17.382  0.00  0.00    +0.000 A 
ATOM      8  C   UNL     1       7.228   4.932  17.170  0.00  0.00    +0.000 C 
ATOM      9  C   UNL     1       4.716   5.041  17.592  0.00  0.00    +0.000 A 
ATOM     10  C   UNL     1       4.587   3.633  17.689  0.00  0.00    +0.000 A 
ATOM     11  C   UNL     1       3.345   3.011  17.847  0.00  0.00    +0.000 A 
ENDROOT
BRANCH   1  13
ATOM     12  C   UNL     1       0.584   2.858  19.340  0.00  0.00    +0.000 C 
ATOM     13  O   UNL     1       0.977   3.177  18.004  0.00  0.00    +0.000 OA
ENDBRANCH   1  13
BRANCH  11  14
ATOM     14  O   UNL     1       3.165   1.653  17.937  0.00  0.00    +0.000 OA
ATOM     15  C   UNL     1       4.026   0.933  18.812  0.00  0.00    +0.000 C 
ENDBRANCH  11  14
BRANCH   4  16
ATOM     16  C   UNL     1       2.498   8.202  17.608  0.00  0.00    +0.000 C 
BRANCH  16  17
ATOM     17  C   UNL     1       1.811   8.407  18.941  0.00  0.00    +0.000 A 
ATOM     18  C   UNL     1       2.097   7.593  20.028  0.00  0.00    +0.000 A 
ATOM     19  C   UNL     1       1.543   7.906  21.262  0.00  0.00    +0.000 A 
ATOM     20  C   UNL     1       0.723   9.032  21.395  0.00  0.00    +0.000 A 
ATOM     21  C   UNL     1       0.181   9.384  22.646  0.00  0.00    +0.000 A 
ATOM     22  C   UNL     1      -0.623  10.514  22.779  0.00  0.00    +0.000 A 
ATOM     23  C   UNL     1      -0.897  11.297  21.663  0.00  0.00    +0.000 A 
ATOM     24  C   UNL     1      -0.358  10.939  20.422  0.00  0.00    +0.000 A 
ATOM     25  C   UNL     1       0.461   9.811  20.249  0.00  0.00    +0.000 A 
ATOM     26  N   UNL     1       1.002   9.490  19.048  0.00  0.00    +0.000 NA
BRANCH  24  27
ATOM     27  O   UNL     1      -0.635  11.736  19.331  0.00  0.00    +0.000 OA
ATOM     28  H   UNL     1      -0.395  12.652  19.537  0.00  0.00    +0.000 HD
ENDBRANCH  24  27
ENDBRANCH  16  17
ENDBRANCH   4  16
TORSDOF 5
ENDMDL
MODEL 4
REMARK VINA RESULT:      -7.5      1.991      8.345
REMARK  Name = 
REMARK  8 active torsions:
REMARK  status: ('A' for Active; 'I' for Inactive)
REMARK    1  A    between atoms: C_1  and  O_2
REMARK    2  A    between atoms: O_2  and  C_3
REMARK    3  A    between atoms: C_6  and  C_7
REMARK    4  A    between atoms: C_7  and  C_8
REMARK    5  A    between atoms: C_15  and  O_16
REMARK    6  A    between atoms: C_21  and  C_22
REMARK    7  A    between atoms: C_25  and  O_26
REMARK    8  A    between atoms: O_26  and  C_27
REMARK                            x       y       z     vdW  Elec       q    Type
REMARK                         _______ _______ _______ _____ _____    ______ ____
ROOT
ATOM      1  C   UNL     1      -1.264  11.485  18.604  0.00  0.00    +0.000 A 
ATOM      2  C   UNL     1      -0.231  10.563  18.402  0.00  0.00    +0.000 A 
ATOM      3  C   UNL     1       0.356   9.846  19.465  0.00  0.00    +0.000 A 
ATOM      4  C   UNL     1       1.344   8.856  19.261  0.00  0.00    +0.000 A 
ATOM      5  C   UNL     1       1.848   8.210  20.382  0.00  0.00    +0.000 A 
ATOM      6  N   UNL     1       1.444   8.439  21.646  0.00  0.00    +0.000 NA
ATOM      7  C   UNL     1       0.477   9.369  21.832  0.00  0.00    +0.000 A 
ATOM      8  C   UNL     1       0.010   9.519  23.255  0.00  0.00    +0.000 C 
ATOM      9  C   UNL     1      -0.094  10.117  20.779  0.00  0.00    +0.000 A 
ATOM     10  C   UNL     1      -1.091  11.105  20.975  0.00  0.00    +0.000 A 
ATOM     11  C   UNL     1      -1.674  11.794  19.906  0.00  0.00    +0.000 A 
ENDROOT
BRANCH   1  13
ATOM     12  C   UNL     1      -2.591  11.281  16.662  0.00  0.00    +0.000 C 
ATOM     13  O   UNL     1      -1.882  12.136  17.561  0.00  0.00    +0.000 OA
ENDBRANCH   1  13
BRANCH  11  14
ATOM     14  O   UNL     1      -2.648  12.752  20.041  0.00  0.00    +0.000 OA
ATOM     15  C   UNL     1      -3.479  12.684  21.195  0.00  0.00    +0.000 C 
ENDBRANCH  11  14
BRANCH   4  16
ATOM     16  C   UNL     1       1.836   8.423  17.896  0.00  0.00    +0.000 C 
BRANCH  16  17
ATOM     17  C   UNL     1       2.766   7.229  17.863  0.00  0.00    +0.000 A 
ATOM     18  C   UNL     1       2.274   5.934  17.952  0.00  0.00    +0.000 A 
ATOM     19  C   UNL     1       3.152   4.872  17.780  0.00  0.00    +0.000 A 
ATOM     20  C   UNL     1       4.503   5.117  17.512  0.00  0.00    +0.000 A 
ATOM     21  C   UNL     1       5.401   4.053  17.302  0.00  0.00    +0.000 A 
ATOM     22  C   UNL     1       6.742   4.300  17.021  0.00  0.00    +0.000 A 
ATOM     23  C   UNL     1       7.199   5.611  16.953  0.00  0.00    +0.000 A 
ATOM     24  C   UNL     1       6.303   6.665  17.167  0.00  0.00    +0.000 A 
ATOM     25  C   UNL     1       4.942   6.456  17.448  0.00  0.00    +0.000 A 
ATOM     26  N   UNL     1       4.076   7.484  17.625  0.00  0.00    +0.000 NA
BRANCH  24  27
ATOM     27  O   UNL     1       6.776   7.957  17.085  0.00  0.00    +0.000 OA
ATOM     28  H   UNL     1       7.247   8.177  17.903  0.00  0.00    +0.000 HD
ENDBRANCH  24  27
ENDBRANCH  16  17
ENDBRANCH   4  16
TORSDOF 5
ENDMDL
MODEL 5
REMARK VINA RESULT:      -7.5      2.670      8.541
REMARK  Name = 
REMARK  8 active torsions:
REMARK  status: ('A' for Active; 'I' for Inactive)
REMARK    1  A    between atoms: C_1  and  O_2
REMARK    2  A    between atoms: O_2  and  C_3
REMARK    3  A    between atoms: C_6  and  C_7
REMARK    4  A    between atoms: C_7  and  C_8
REMARK    5  A    between atoms: C_15  and  O_16
REMARK    6  A    between atoms: C_21  and  C_22
REMARK    7  A    between atoms: C_25  and  O_26
REMARK    8  A    between atoms: O_26  and  C_27
REMARK                            x       y       z     vdW  Elec       q    Type
REMARK                         _______ _______ _______ _____ _____    ______ ____
ROOT
ATOM      1  C   UNL     1      -2.713  10.154  17.092  0.00  0.00    +0.000 A 
ATOM      2  C   UNL     1      -1.330  10.109  17.310  0.00  0.00    +0.000 A 
ATOM      3  C   UNL     1      -0.731  10.678  18.453  0.00  0.00    +0.000 A 
ATOM      4  C   UNL     1       0.653  10.567  18.719  0.00  0.00    +0.000 A 
ATOM      5  C   UNL     1       1.134  11.163  19.879  0.00  0.00    +0.000 A 
ATOM      6  N   UNL     1       0.373  11.814  20.779  0.00  0.00    +0.000 NA
ATOM      7  C   UNL     1      -0.956  11.891  20.531  0.00  0.00    +0.000 A 
ATOM      8  C   UNL     1      -1.763  12.556  21.614  0.00  0.00    +0.000 C 
ATOM      9  C   UNL     1      -1.564  11.355  19.374  0.00  0.00    +0.000 A 
ATOM     10  C   UNL     1      -2.951  11.454  19.104  0.00  0.00    +0.000 A 
ATOM     11  C   UNL     1      -3.531  10.869  17.974  0.00  0.00    +0.000 A 
ENDROOT
BRANCH   1  13
ATOM     12  C   UNL     1      -3.026  10.155  14.752  0.00  0.00    +0.000 C 
ATOM     13  O   UNL     1      -3.306   9.542  16.012  0.00  0.00    +0.000 OA
ENDBRANCH   1  13
BRANCH  11  14
ATOM     14  O   UNL     1      -4.869  10.928  17.671  0.00  0.00    +0.000 OA
ATOM     15  C   UNL     1      -5.359  12.133  17.096  0.00  0.00    +0.000 C 
ENDBRANCH  11  14
BRANCH   4  16
ATOM     16  C   UNL     1       1.622   9.793  17.851  0.00  0.00    +0.000 C 
BRANCH  16  17
ATOM     17  C   UNL     1       2.183   8.516  18.440  0.00  0.00    +0.000 A 
ATOM     18  C   UNL     1       1.683   7.993  19.625  0.00  0.00    +0.000 A 
ATOM     19  C   UNL     1       2.137   6.752  20.050  0.00  0.00    +0.000 A 
ATOM     20  C   UNL     1       3.071   6.047  19.284  0.00  0.00    +0.000 A 
ATOM     21  C   UNL     1       3.517   4.773  19.683  0.00  0.00    +0.000 A 
ATOM     22  C   UNL     1       4.436   4.067  18.911  0.00  0.00    +0.000 A 
ATOM     23  C   UNL     1       4.923   4.631  17.737  0.00  0.00    +0.000 A 
ATOM     24  C   UNL     1       4.480   5.901  17.348  0.00  0.00    +0.000 A 
ATOM     25  C   UNL     1       3.549   6.641  18.097  0.00  0.00    +0.000 A 
ATOM     26  N   UNL     1       3.104   7.857  17.696  0.00  0.00    +0.000 NA
BRANCH  24  27
ATOM     27  O   UNL     1       4.968   6.436  16.175  0.00  0.00    +0.000 OA
ATOM     28  H   UNL     1       5.936   6.436  16.203  0.00  0.00    +0.000 HD
ENDBRANCH  24  27
ENDBRANCH  16  17
ENDBRANCH   4  16
TORSDOF 5
ENDMDL
MODEL 6
REMARK VINA RESULT:      -7.4      1.474      1.937
REMARK  Name = 
REMARK  8 active torsions:
REMARK  status: ('A' for Active; 'I' for Inactive)
REMARK    1  A    between atoms: C_1  and  O_2
REMARK    2  A    between atoms: O_2  and  C_3
REMARK    3  A    between atoms: C_6  and  C_7
REMARK    4  A    between atoms: C_7  and  C_8
REMARK    5  A    between atoms: C_15  and  O_16
REMARK    6  A    between atoms: C_21  and  C_22
REMARK    7  A    between atoms: C_25  and  O_26
REMARK    8  A    between atoms: O_26  and  C_27
REMARK                            x       y       z     vdW  Elec       q    Type
REMARK                         _______ _______ _______ _____ _____    ______ ____
ROOT
ATOM      1  C   UNL     1       4.628   6.130  17.352  0.00  0.00    +0.000 A 
ATOM      2  C   UNL     1       3.829   6.424  18.464  0.00  0.00    +0.000 A 
ATOM      3  C   UNL     1       2.885   5.509  18.974  0.00  0.00    +0.000 A 
ATOM      4  C   UNL     1       2.133   5.767  20.142  0.00  0.00    +0.000 A 
ATOM      5  C   UNL     1       1.234   4.791  20.556  0.00  0.00    +0.000 A 
ATOM      6  N   UNL     1       1.048   3.609  19.939  0.00  0.00    +0.000 NA
ATOM      7  C   UNL     1       1.793   3.357  18.837  0.00  0.00    +0.000 A 
ATOM      8  C   UNL     1       1.601   1.987  18.244  0.00  0.00    +0.000 C 
ATOM      9  C   UNL     1       2.718   4.278  18.297  0.00  0.00    +0.000 A 
ATOM     10  C   UNL     1       3.482   4.024  17.131  0.00  0.00    +0.000 A 
ATOM     11  C   UNL     1       4.427   4.936  16.649  0.00  0.00    +0.000 A 
ENDROOT
BRANCH   1  13
ATOM     12  C   UNL     1       6.862   6.868  17.542  0.00  0.00    +0.000 C 
ATOM     13  O   UNL     1       5.596   6.994  16.894  0.00  0.00    +0.000 OA
ENDBRANCH   1  13
BRANCH  11  14
ATOM     14  O   UNL     1       5.198   4.735  15.532  0.00  0.00    +0.000 OA
ATOM     15  C   UNL     1       6.154   3.681  15.575  0.00  0.00    +0.000 C 
ENDBRANCH  11  14
BRANCH   4  16
ATOM     16  C   UNL     1       2.292   7.008  20.994  0.00  0.00    +0.000 C 
BRANCH  16  17
ATOM     17  C   UNL     1       1.269   8.105  20.785  0.00  0.00    +0.000 A 
ATOM     18  C   UNL     1       0.265   8.335  21.715  0.00  0.00    +0.000 A 
ATOM     19  C   UNL     1      -0.564   9.437  21.545  0.00  0.00    +0.000 A 
ATOM     20  C   UNL     1      -0.370  10.297  20.458  0.00  0.00    +0.000 A 
ATOM     21  C   UNL     1      -1.179  11.437  20.289  0.00  0.00    +0.000 A 
ATOM     22  C   UNL     1      -0.975  12.300  19.215  0.00  0.00    +0.000 A 
ATOM     23  C   UNL     1       0.034  12.027  18.297  0.00  0.00    +0.000 A 
ATOM     24  C   UNL     1       0.831  10.889  18.468  0.00  0.00    +0.000 A 
ATOM     25  C   UNL     1       0.660   9.999  19.542  0.00  0.00    +0.000 A 
ATOM     26  N   UNL     1       1.457   8.916  19.715  0.00  0.00    +0.000 NA
BRANCH  24  27
ATOM     27  O   UNL     1       1.832  10.644  17.552  0.00  0.00    +0.000 OA
ATOM     28  H   UNL     1       2.690  10.685  17.999  0.00  0.00    +0.000 HD
ENDBRANCH  24  27
ENDBRANCH  16  17
ENDBRANCH   4  16
TORSDOF 5
ENDMDL
MODEL 7
REMARK VINA RESULT:      -7.3      2.588      8.191
REMARK  Name = 
REMARK  8 active torsions:
REMARK  status: ('A' for Active; 'I' for Inactive)
REMARK    1  A    between atoms: C_1  and  O_2
REMARK    2  A    between atoms: O_2  and  C_3
REMARK    3  A    between atoms: C_6  and  C_7
REMARK    4  A    between atoms: C_7  and  C_8
REMARK    5  A    between atoms: C_15  and  O_16
REMARK    6  A    between atoms: C_21  and  C_22
REMARK    7  A    between atoms: C_25  and  O_26
REMARK    8  A    between atoms: O_26  and  C_27
REMARK                            x       y       z     vdW  Elec       q    Type
REMARK                         _______ _______ _______ _____ _____    ______ ____
ROOT
ATOM      1  C   UNL     1      -1.307  11.207  18.347  0.00  0.00    +0.000 A 
ATOM      2  C   UNL     1      -0.231  10.320  18.218  0.00  0.00    +0.000 A 
ATOM      3  C   UNL     1       0.353   9.679  19.330  0.00  0.00    +0.000 A 
ATOM      4  C   UNL     1       1.385   8.723  19.201  0.00  0.00    +0.000 A 
ATOM      5  C   UNL     1       1.883   8.152  20.366  0.00  0.00    +0.000 A 
ATOM      6  N   UNL     1       1.433   8.425  21.605  0.00  0.00    +0.000 NA
ATOM      7  C   UNL     1       0.424   9.321  21.720  0.00  0.00    +0.000 A 
ATOM      8  C   UNL     1      -0.089   9.518  23.121  0.00  0.00    +0.000 C 
ATOM      9  C   UNL     1      -0.146   9.994  20.617  0.00  0.00    +0.000 A 
ATOM     10  C   UNL     1      -1.187  10.947  20.738  0.00  0.00    +0.000 A 
ATOM     11  C   UNL     1      -1.766  11.559  19.621  0.00  0.00    +0.000 A 
ENDROOT
BRANCH   1  13
ATOM     12  C   UNL     1      -2.491  10.850  16.336  0.00  0.00    +0.000 C 
ATOM     13  O   UNL     1      -1.921  11.780  17.257  0.00  0.00    +0.000 OA
ENDBRANCH   1  13
BRANCH  11  14
ATOM     14  O   UNL     1      -2.782  12.481  19.683  0.00  0.00    +0.000 OA
ATOM     15  C   UNL     1      -2.642  13.550  20.612  0.00  0.00    +0.000 C 
ENDBRANCH  11  14
BRANCH   4  16
ATOM     16  C   UNL     1       1.934   8.246  17.873  0.00  0.00    +0.000 C 
BRANCH  16  17
ATOM     17  C   UNL     1       2.689   6.934  17.887  0.00  0.00    +0.000 A 
ATOM     18  C   UNL     1       4.072   6.904  18.007  0.00  0.00    +0.000 A 
ATOM     19  C   UNL     1       4.703   5.675  18.153  0.00  0.00    +0.000 A 
ATOM     20  C   UNL     1       3.946   4.499  18.188  0.00  0.00    +0.000 A 
ATOM     21  C   UNL     1       4.566   3.248  18.368  0.00  0.00    +0.000 A 
ATOM     22  C   UNL     1       3.809   2.080  18.417  0.00  0.00    +0.000 A 
ATOM     23  C   UNL     1       2.428   2.152  18.280  0.00  0.00    +0.000 A 
ATOM     24  C   UNL     1       1.817   3.398  18.096  0.00  0.00    +0.000 A 
ATOM     25  C   UNL     1       2.546   4.598  18.047  0.00  0.00    +0.000 A 
ATOM     26  N   UNL     1       1.942   5.803  17.898  0.00  0.00    +0.000 NA
BRANCH  24  27
ATOM     27  O   UNL     1       0.445   3.445  17.973  0.00  0.00    +0.000 OA
ATOM     28  H   UNL     1       0.093   4.115  18.578  0.00  0.00    +0.000 HD
ENDBRANCH  24  27
ENDBRANCH  16  17
ENDBRANCH   4  16
TORSDOF 5
ENDMDL
MODEL 8
REMARK VINA RESULT:      -7.3      1.591      2.245
REMARK  Name = 
REMARK  8 active torsions:
REMARK  status: ('A' for Active; 'I' for Inactive)
REMARK    1  A    between atoms: C_1  and  O_2
REMARK    2  A    between atoms: O_2  and  C_3
REMARK    3  A    between atoms: C_6  and  C_7
REMARK    4  A    between atoms: C_7  and  C_8
REMARK    5  A    between atoms: C_15  and  O_16
REMARK    6  A    between atoms: C_21  and  C_22
REMARK    7  A    between atoms: C_25  and  O_26
REMARK    8  A    between atoms: O_26  and  C_27
REMARK                            x       y       z     vdW  Elec       q    Type
REMARK                         _______ _______ _______ _____ _____    ______ ____
ROOT
ATOM      1  C   UNL     1       5.503   6.265  17.364  0.00  0.00    +0.000 A 
ATOM      2  C   UNL     1       4.366   6.877  17.906  0.00  0.00    +0.000 A 
ATOM      3  C   UNL     1       3.484   6.194  18.768  0.00  0.00    +0.000 A 
ATOM      4  C   UNL     1       2.380   6.828  19.382  0.00  0.00    +0.000 A 
ATOM      5  C   UNL     1       1.580   6.058  20.218  0.00  0.00    +0.000 A 
ATOM      6  N   UNL     1       1.797   4.761  20.506  0.00  0.00    +0.000 NA
ATOM      7  C   UNL     1       2.873   4.168  19.937  0.00  0.00    +0.000 A 
ATOM      8  C   UNL     1       3.110   2.744  20.364  0.00  0.00    +0.000 C 
ATOM      9  C   UNL     1       3.745   4.832  19.045  0.00  0.00    +0.000 A 
ATOM     10  C   UNL     1       4.859   4.206  18.433  0.00  0.00    +0.000 A 
ATOM     11  C   UNL     1       5.734   4.904  17.593  0.00  0.00    +0.000 A 
ENDROOT
BRANCH   1  13
ATOM     12  C   UNL     1       7.360   7.720  17.299  0.00  0.00    +0.000 C 
ATOM     13  O   UNL     1       6.400   6.948  16.576  0.00  0.00    +0.000 OA
ENDBRANCH   1  13
BRANCH  11  14
ATOM     14  O   UNL     1       6.831   4.347  16.983  0.00  0.00    +0.000 OA
ATOM     15  C   UNL     1       6.693   3.943  15.626  0.00  0.00    +0.000 C 
ENDBRANCH  11  14
BRANCH   4  16
ATOM     16  C   UNL     1       2.056   8.299  19.228  0.00  0.00    +0.000 C 
BRANCH  16  17
ATOM     17  C   UNL     1       1.159   8.906  20.285  0.00  0.00    +0.000 A 
ATOM     18  C   UNL     1       1.317   8.590  21.628  0.00  0.00    +0.000 A 
ATOM     19  C   UNL     1       0.560   9.275  22.569  0.00  0.00    +0.000 A 
ATOM     20  C   UNL     1      -0.333  10.272  22.159  0.00  0.00    +0.000 A 
ATOM     21  C   UNL     1      -1.083  10.999  23.101  0.00  0.00    +0.000 A 
ATOM     22  C   UNL     1      -1.961  12.000  22.692  0.00  0.00    +0.000 A 
ATOM     23  C   UNL     1      -2.100  12.278  21.337  0.00  0.00    +0.000 A 
ATOM     24  C   UNL     1      -1.355  11.548  20.403  0.00  0.00    +0.000 A 
ATOM     25  C   UNL     1      -0.456  10.535  20.779  0.00  0.00    +0.000 A 
ATOM     26  N   UNL     1       0.283   9.854  19.868  0.00  0.00    +0.000 NA
BRANCH  24  27
ATOM     27  O   UNL     1      -1.502  11.847  19.066  0.00  0.00    +0.000 OA
ATOM     28  H   UNL     1      -1.791  12.767  18.975  0.00  0.00    +0.000 HD
ENDBRANCH  24  27
ENDBRANCH  16  17
ENDBRANCH   4  16
TORSDOF 5
ENDMDL
MODEL 9
REMARK VINA RESULT:      -7.2      2.867      8.103
REMARK  Name = 
REMARK  8 active torsions:
REMARK  status: ('A' for Active; 'I' for Inactive)
REMARK    1  A    between atoms: C_1  and  O_2
REMARK    2  A    between atoms: O_2  and  C_3
REMARK    3  A    between atoms: C_6  and  C_7
REMARK    4  A    between atoms: C_7  and  C_8
REMARK    5  A    between atoms: C_15  and  O_16
REMARK    6  A    between atoms: C_21  and  C_22
REMARK    7  A    between atoms: C_25  and  O_26
REMARK    8  A    between atoms: O_26  and  C_27
REMARK                            x       y       z     vdW  Elec       q    Type
REMARK                         _______ _______ _______ _____ _____    ______ ____
ROOT
ATOM      1  C   UNL     1      -1.536  11.083  17.880  0.00  0.00    +0.000 A 
ATOM      2  C   UNL     1      -0.406  10.257  17.931  0.00  0.00    +0.000 A 
ATOM      3  C   UNL     1       0.159   9.830  19.150  0.00  0.00    +0.000 A 
ATOM      4  C   UNL     1       1.249   8.933  19.209  0.00  0.00    +0.000 A 
ATOM      5  C   UNL     1       1.721   8.577  20.467  0.00  0.00    +0.000 A 
ATOM      6  N   UNL     1       1.197   9.003  21.631  0.00  0.00    +0.000 NA
ATOM      7  C   UNL     1       0.135   9.840  21.568  0.00  0.00    +0.000 A 
ATOM      8  C   UNL     1      -0.457  10.214  22.900  0.00  0.00    +0.000 C 
ATOM      9  C   UNL     1      -0.419  10.302  20.352  0.00  0.00    +0.000 A 
ATOM     10  C   UNL     1      -1.517  11.194  20.285  0.00  0.00    +0.000 A 
ATOM     11  C   UNL     1      -2.075  11.593  19.066  0.00  0.00    +0.000 A 
ENDROOT
BRANCH   1  13
ATOM     12  C   UNL     1      -2.832  10.393  16.032  0.00  0.00    +0.000 C 
ATOM     13  O   UNL     1      -2.127  11.445  16.692  0.00  0.00    +0.000 OA
ENDBRANCH   1  13
BRANCH  11  14
ATOM     14  O   UNL     1      -3.144  12.447  18.946  0.00  0.00    +0.000 OA
ATOM     15  C   UNL     1      -4.411  11.979  19.392  0.00  0.00    +0.000 C 
ENDBRANCH  11  14
BRANCH   4  16
ATOM     16  C   UNL     1       1.888   8.297  17.993  0.00  0.00    +0.000 C 
BRANCH  16  17
ATOM     17  C   UNL     1       2.617   6.990  18.219  0.00  0.00    +0.000 A 
ATOM     18  C   UNL     1       3.955   6.847  17.880  0.00  0.00    +0.000 A 
ATOM     19  C   UNL     1       4.612   5.675  18.232  0.00  0.00    +0.000 A 
ATOM     20  C   UNL     1       3.929   4.671  18.927  0.00  0.00    +0.000 A 
ATOM     21  C   UNL     1       4.589   3.492  19.322  0.00  0.00    +0.000 A 
ATOM     22  C   UNL     1       3.911   2.500  20.026  0.00  0.00    +0.000 A 
ATOM     23  C   UNL     1       2.567   2.675  20.336  0.00  0.00    +0.000 A 
ATOM     24  C   UNL     1       1.915   3.848  19.937  0.00  0.00    +0.000 A 
ATOM     25  C   UNL     1       2.567   4.873  19.230  0.00  0.00    +0.000 A 
ATOM     26  N   UNL     1       1.934   6.018  18.874  0.00  0.00    +0.000 NA
BRANCH  24  27
ATOM     27  O   UNL     1       0.585   4.005  20.264  0.00  0.00    +0.000 OA
ATOM     28  H   UNL     1       0.106   3.191  20.050  0.00  0.00    +0.000 HD
ENDBRANCH  24  27
ENDBRANCH  16  17
ENDBRANCH   4  16
TORSDOF 5
ENDMDL
