MODEL 1
REMARK VINA RESULT:      -8.8      0.000      0.000
REMARK  Name = 
REMARK  6 active torsions:
REMARK  status: ('A' for Active; 'I' for Inactive)
REMARK    1  A    between atoms: N_1  and  C_2
REMARK    2  A    between atoms: N_5  and  C_6
REMARK    3  A    between atoms: C_16  and  C_17
REMARK    4  A    between atoms: N_27  and  C_28
REMARK    5  A    between atoms: C_28  and  C_29
REMARK    6  A    between atoms: C_29  and  O_30
REMARK                            x       y       z     vdW  Elec       q    Type
REMARK                         _______ _______ _______ _____ _____    ______ ____
ROOT
ATOM      1  C   UNL     1       1.902   8.750  18.705  0.00  0.00    +0.000 A 
ATOM      2  N   UNL     1       1.082   9.217  19.642  0.00  0.00    +0.000 NA
ATOM      3  C   UNL     1       0.868   8.476  20.740  0.00  0.00    +0.000 A 
ATOM      4  N   UNL     1       0.026   8.973  21.733  0.00  0.00    +0.000 N 
ATOM      5  N   UNL     1       1.421   7.274  20.937  0.00  0.00    +0.000 NA
ATOM      6  C   UNL     1       2.264   6.818  19.988  0.00  0.00    +0.000 A 
ATOM      7  C   UNL     1       2.538   7.532  18.830  0.00  0.00    +0.000 A 
ATOM      8  C   UNL     1       3.432   6.999  17.813  0.00  0.00    +0.000 A 
ATOM      9  C   UNL     1       4.058   5.838  18.024  0.00  0.00    +0.000 A 
ATOM     10  C   UNL     1       3.840   5.060  19.291  0.00  0.00    +0.000 A 
ATOM     11  O   UNL     1       4.456   4.012  19.479  0.00  0.00    +0.000 OA
ATOM     12  N   UNL     1       2.911   5.566  20.193  0.00  0.00    +0.000 N 
ATOM     13  H   UNL     1      -0.134   8.306  22.473  0.00  0.00    +0.000 HD
ENDROOT
BRANCH   9  14
ATOM     14  C   UNL     1       4.954   5.297  16.980  0.00  0.00    +0.000 A 
ATOM     15  C   UNL     1       4.577   4.178  16.215  0.00  0.00    +0.000 A 
ATOM     16 CL   UNL     1       3.092   3.333  16.501  0.00  0.00    +0.000 Cl
ATOM     17  C   UNL     1       5.400   3.701  15.189  0.00  0.00    +0.000 A 
ATOM     18  C   UNL     1       6.605   4.340  14.904  0.00  0.00    +0.000 A 
ATOM     19  C   UNL     1       7.007   5.432  15.669  0.00  0.00    +0.000 A 
ATOM     20  C   UNL     1       6.194   5.901  16.709  0.00  0.00    +0.000 A 
ATOM     21 CL   UNL     1       6.792   7.226  17.650  0.00  0.00    +0.000 Cl
ENDBRANCH   9  14
BRANCH   4  22
ATOM     22  C   UNL     1      -0.244  10.320  22.021  0.00  0.00    +0.000 A 
ATOM     23  C   UNL     1      -1.161  10.655  23.023  0.00  0.00    +0.000 A 
ATOM     24  C   UNL     1      -1.537  11.987  23.227  0.00  0.00    +0.000 A 
ATOM     25  C   UNL     1      -0.986  13.002  22.445  0.00  0.00    +0.000 A 
ATOM     26  C   UNL     1      -0.043  12.690  21.472  0.00  0.00    +0.000 A 
ATOM     27  C   UNL     1       0.320  11.360  21.266  0.00  0.00    +0.000 A 
ENDBRANCH   4  22
BRANCH   1  28
ATOM     28  N   UNL     1       2.038   9.567  17.580  0.00  0.00    +0.000 N 
ATOM     29  H   UNL     1       1.104   9.887  17.325  0.00  0.00    +0.000 HD
ATOM     30  H   UNL     1       2.671  10.344  17.732  0.00  0.00    +0.000 HD
ENDBRANCH   1  28
BRANCH  12  31
ATOM     31  C   UNL     1       2.511   4.731  21.330  0.00  0.00    +0.000 C 
BRANCH  31  32
ATOM     32  C   UNL     1       1.510   3.614  21.007  0.00  0.00    +0.000 C 
BRANCH  32  33
ATOM     33  O   UNL     1       1.459   2.610  22.014  0.00  0.00    +0.000 OA
ATOM     34  H   UNL     1       2.092   2.870  22.705  0.00  0.00    +0.000 HD
ENDBRANCH  32  33
ENDBRANCH  31  32
ENDBRANCH  12  31
TORSDOF 6
ENDMDL
MODEL 2
REMARK VINA RESULT:      -8.7      0.095      1.671
REMARK  Name = 
REMARK  6 active torsions:
REMARK  status: ('A' for Active; 'I' for Inactive)
REMARK    1  A    between atoms: N_1  and  C_2
REMARK    2  A    between atoms: N_5  and  C_6
REMARK    3  A    between atoms: C_16  and  C_17
REMARK    4  A    between atoms: N_27  and  C_28
REMARK    5  A    between atoms: C_28  and  C_29
REMARK    6  A    between atoms: C_29  and  O_30
REMARK                            x       y       z     vdW  Elec       q    Type
REMARK                         _______ _______ _______ _____ _____    ______ ____
ROOT
ATOM      1  C   UNL     1       1.867   8.796  18.716  0.00  0.00    +0.000 A 
ATOM      2  N   UNL     1       1.050   9.263  19.656  0.00  0.00    +0.000 NA
ATOM      3  C   UNL     1       0.838   8.521  20.753  0.00  0.00    +0.000 A 
ATOM      4  N   UNL     1      -0.001   9.019  21.750  0.00  0.00    +0.000 N 
ATOM      5  N   UNL     1       1.388   7.318  20.947  0.00  0.00    +0.000 NA
ATOM      6  C   UNL     1       2.228   6.862  19.995  0.00  0.00    +0.000 A 
ATOM      7  C   UNL     1       2.500   7.576  18.838  0.00  0.00    +0.000 A 
ATOM      8  C   UNL     1       3.390   7.043  17.817  0.00  0.00    +0.000 A 
ATOM      9  C   UNL     1       4.014   5.880  18.025  0.00  0.00    +0.000 A 
ATOM     10  C   UNL     1       3.798   5.101  19.292  0.00  0.00    +0.000 A 
ATOM     11  O   UNL     1       4.413   4.051  19.477  0.00  0.00    +0.000 OA
ATOM     12  N   UNL     1       2.872   5.608  20.197  0.00  0.00    +0.000 N 
ATOM     13  H   UNL     1      -0.160   8.351  22.489  0.00  0.00    +0.000 HD
ENDROOT
BRANCH   9  14
ATOM     14  C   UNL     1       4.906   5.338  16.979  0.00  0.00    +0.000 A 
ATOM     15  C   UNL     1       6.131   5.963  16.681  0.00  0.00    +0.000 A 
ATOM     16 CL   UNL     1       6.623   7.430  17.461  0.00  0.00    +0.000 Cl
ATOM     17  C   UNL     1       7.001   5.417  15.730  0.00  0.00    +0.000 A 
ATOM     18  C   UNL     1       6.668   4.236  15.072  0.00  0.00    +0.000 A 
ATOM     19  C   UNL     1       5.447   3.619  15.334  0.00  0.00    +0.000 A 
ATOM     20  C   UNL     1       4.565   4.172  16.271  0.00  0.00    +0.000 A 
ATOM     21 CL   UNL     1       3.043   3.376  16.497  0.00  0.00    +0.000 Cl
ENDBRANCH   9  14
BRANCH   4  22
ATOM     22  C   UNL     1      -0.267  10.366  22.040  0.00  0.00    +0.000 A 
ATOM     23  C   UNL     1      -1.186  10.701  23.040  0.00  0.00    +0.000 A 
ATOM     24  C   UNL     1      -1.558  12.034  23.246  0.00  0.00    +0.000 A 
ATOM     25  C   UNL     1      -1.001  13.050  22.468  0.00  0.00    +0.000 A 
ATOM     26  C   UNL     1      -0.056  12.736  21.498  0.00  0.00    +0.000 A 
ATOM     27  C   UNL     1       0.303  11.406  21.290  0.00  0.00    +0.000 A 
ENDBRANCH   4  22
BRANCH   1  28
ATOM     28  N   UNL     1       2.002   9.614  17.592  0.00  0.00    +0.000 N 
ATOM     29  H   UNL     1       1.838   9.029  16.772  0.00  0.00    +0.000 HD
ATOM     30  H   UNL     1       1.379  10.414  17.610  0.00  0.00    +0.000 HD
ENDBRANCH   1  28
BRANCH  12  31
ATOM     31  C   UNL     1       2.474   4.772  21.334  0.00  0.00    +0.000 C 
BRANCH  31  32
ATOM     32  C   UNL     1       1.474   3.655  21.011  0.00  0.00    +0.000 C 
BRANCH  32  33
ATOM     33  O   UNL     1       1.450   2.632  22.001  0.00  0.00    +0.000 OA
ATOM     34  H   UNL     1       0.540   2.588  22.339  0.00  0.00    +0.000 HD
ENDBRANCH  32  33
ENDBRANCH  31  32
ENDBRANCH  12  31
TORSDOF 6
ENDMDL
MODEL 3
REMARK VINA RESULT:      -7.3      4.609      9.807
REMARK  Name = 
REMARK  6 active torsions:
REMARK  status: ('A' for Active; 'I' for Inactive)
REMARK    1  A    between atoms: N_1  and  C_2
REMARK    2  A    between atoms: N_5  and  C_6
REMARK    3  A    between atoms: C_16  and  C_17
REMARK    4  A    between atoms: N_27  and  C_28
REMARK    5  A    between atoms: C_28  and  C_29
REMARK    6  A    between atoms: C_29  and  O_30
REMARK                            x       y       z     vdW  Elec       q    Type
REMARK                         _______ _______ _______ _____ _____    ______ ____
ROOT
ATOM      1  C   UNL     1       0.819   9.693  21.558  0.00  0.00    +0.000 A 
ATOM      2  N   UNL     1       1.263   8.862  20.619  0.00  0.00    +0.000 NA
ATOM      3  C   UNL     1       1.063   9.178  19.331  0.00  0.00    +0.000 A 
ATOM      4  N   UNL     1       1.546   8.319  18.344  0.00  0.00    +0.000 N 
ATOM      5  N   UNL     1       0.417  10.280  18.934  0.00  0.00    +0.000 NA
ATOM      6  C   UNL     1      -0.014  11.123  19.894  0.00  0.00    +0.000 A 
ATOM      7  C   UNL     1       0.163  10.866  21.246  0.00  0.00    +0.000 A 
ATOM      8  C   UNL     1      -0.338  11.784  22.258  0.00  0.00    +0.000 A 
ATOM      9  C   UNL     1      -0.915  12.930  21.885  0.00  0.00    +0.000 A 
ATOM     10  C   UNL     1      -1.072  13.280  20.431  0.00  0.00    +0.000 A 
ATOM     11  O   UNL     1      -1.573  14.358  20.113  0.00  0.00    +0.000 OA
ATOM     12  N   UNL     1      -0.658  12.332  19.503  0.00  0.00    +0.000 N 
ATOM     13  H   UNL     1       1.271   8.604  17.417  0.00  0.00    +0.000 HD
ENDROOT
BRANCH   9  14
ATOM     14  C   UNL     1      -1.434  13.851  22.918  0.00  0.00    +0.000 A 
ATOM     15  C   UNL     1      -2.673  13.613  23.540  0.00  0.00    +0.000 A 
ATOM     16 CL   UNL     1      -3.686  12.284  23.082  0.00  0.00    +0.000 Cl
ATOM     17  C   UNL     1      -3.136  14.453  24.559  0.00  0.00    +0.000 A 
ATOM     18  C   UNL     1      -2.366  15.536  24.978  0.00  0.00    +0.000 A 
ATOM     19  C   UNL     1      -1.150  15.802  24.354  0.00  0.00    +0.000 A 
ATOM     20  C   UNL     1      -0.691  14.974  23.322  0.00  0.00    +0.000 A 
ATOM     21 CL   UNL     1       0.802  15.408  22.559  0.00  0.00    +0.000 Cl
ENDBRANCH   9  14
BRANCH   4  22
ATOM     22  C   UNL     1       2.637   7.442  18.444  0.00  0.00    +0.000 A 
ATOM     23  C   UNL     1       3.670   7.494  17.502  0.00  0.00    +0.000 A 
ATOM     24  C   UNL     1       4.692   6.538  17.513  0.00  0.00    +0.000 A 
ATOM     25  C   UNL     1       4.704   5.531  18.478  0.00  0.00    +0.000 A 
ATOM     26  C   UNL     1       3.707   5.490  19.445  0.00  0.00    +0.000 A 
ATOM     27  C   UNL     1       2.686   6.437  19.423  0.00  0.00    +0.000 A 
ENDBRANCH   4  22
BRANCH   1  28
ATOM     28  N   UNL     1       1.036   9.269  22.871  0.00  0.00    +0.000 N 
ATOM     29  H   UNL     1       0.309   9.692  23.448  0.00  0.00    +0.000 HD
ATOM     30  H   UNL     1       1.045   8.260  22.963  0.00  0.00    +0.000 HD
ENDBRANCH   1  28
BRANCH  12  31
ATOM     31  C   UNL     1      -0.992  12.541  18.091  0.00  0.00    +0.000 C 
BRANCH  31  32
ATOM     32  C   UNL     1      -2.155  11.694  17.558  0.00  0.00    +0.000 C 
BRANCH  32  33
ATOM     33  O   UNL     1      -1.721  10.609  16.746  0.00  0.00    +0.000 OA
ATOM     34  H   UNL     1      -1.489   9.881  17.348  0.00  0.00    +0.000 HD
ENDBRANCH  32  33
ENDBRANCH  31  32
ENDBRANCH  12  31
TORSDOF 6
ENDMDL
MODEL 4
REMARK VINA RESULT:      -7.3      4.014      8.045
REMARK  Name = 
REMARK  6 active torsions:
REMARK  status: ('A' for Active; 'I' for Inactive)
REMARK    1  A    between atoms: N_1  and  C_2
REMARK    2  A    between atoms: N_5  and  C_6
REMARK    3  A    between atoms: C_16  and  C_17
REMARK    4  A    between atoms: N_27  and  C_28
REMARK    5  A    between atoms: C_28  and  C_29
REMARK    6  A    between atoms: C_29  and  O_30
REMARK                            x       y       z     vdW  Elec       q    Type
REMARK                         _______ _______ _______ _____ _____    ______ ____
ROOT
ATOM      1  C   UNL     1       2.192   8.394  18.572  0.00  0.00    +0.000 A 
ATOM      2  N   UNL     1       2.347   7.139  18.982  0.00  0.00    +0.000 NA
ATOM      3  C   UNL     1       2.019   6.828  20.246  0.00  0.00    +0.000 A 
ATOM      4  N   UNL     1       2.159   5.508  20.673  0.00  0.00    +0.000 N 
ATOM      5  N   UNL     1       1.563   7.723  21.130  0.00  0.00    +0.000 NA
ATOM      6  C   UNL     1       1.395   8.989  20.698  0.00  0.00    +0.000 A 
ATOM      7  C   UNL     1       1.705   9.382  19.404  0.00  0.00    +0.000 A 
ATOM      8  C   UNL     1       1.538  10.763  18.977  0.00  0.00    +0.000 A 
ATOM      9  C   UNL     1       1.009  11.656  19.817  0.00  0.00    +0.000 A 
ATOM     10  C   UNL     1       0.599  11.261  21.209  0.00  0.00    +0.000 A 
ATOM     11  O   UNL     1       0.079  12.093  21.952  0.00  0.00    +0.000 OA
ATOM     12  N   UNL     1       0.860   9.954  21.599  0.00  0.00    +0.000 N 
ATOM     13  H   UNL     1       1.968   5.399  21.656  0.00  0.00    +0.000 HD
ENDROOT
BRANCH   9  14
ATOM     14  C   UNL     1       0.854  13.060  19.381  0.00  0.00    +0.000 A 
ATOM     15  C   UNL     1      -0.249  13.455  18.601  0.00  0.00    +0.000 A 
ATOM     16 CL   UNL     1      -1.433  12.317  18.048  0.00  0.00    +0.000 Cl
ATOM     17  C   UNL     1      -0.425  14.795  18.237  0.00  0.00    +0.000 A 
ATOM     18  C   UNL     1       0.489  15.760  18.655  0.00  0.00    +0.000 A 
ATOM     19  C   UNL     1       1.600  15.382  19.404  0.00  0.00    +0.000 A 
ATOM     20  C   UNL     1       1.790  14.040  19.755  0.00  0.00    +0.000 A 
ATOM     21 CL   UNL     1       3.226  13.645  20.638  0.00  0.00    +0.000 Cl
ENDBRANCH   9  14
BRANCH   4  22
ATOM     22  C   UNL     1       2.106   4.351  19.881  0.00  0.00    +0.000 A 
ATOM     23  C   UNL     1       3.240   3.925  19.182  0.00  0.00    +0.000 A 
ATOM     24  C   UNL     1       3.164   2.853  18.286  0.00  0.00    +0.000 A 
ATOM     25  C   UNL     1       1.956   2.182  18.093  0.00  0.00    +0.000 A 
ATOM     26  C   UNL     1       0.829   2.568  18.809  0.00  0.00    +0.000 A 
ATOM     27  C   UNL     1       0.909   3.643  19.692  0.00  0.00    +0.000 A 
ENDBRANCH   4  22
BRANCH   1  28
ATOM     28  N   UNL     1       2.592   8.638  17.256  0.00  0.00    +0.000 N 
ATOM     29  H   UNL     1       2.076   9.454  16.930  0.00  0.00    +0.000 HD
ATOM     30  H   UNL     1       3.593   8.769  17.167  0.00  0.00    +0.000 HD
ENDBRANCH   1  28
BRANCH  12  31
ATOM     31  C   UNL     1       0.677   9.593  23.008  0.00  0.00    +0.000 C 
BRANCH  31  32
ATOM     32  C   UNL     1      -0.763   9.265  23.423  0.00  0.00    +0.000 C 
BRANCH  32  33
ATOM     33  O   UNL     1      -1.599  10.415  23.472  0.00  0.00    +0.000 OA
ATOM     34  H   UNL     1      -1.025  11.173  23.673  0.00  0.00    +0.000 HD
ENDBRANCH  32  33
ENDBRANCH  31  32
ENDBRANCH  12  31
TORSDOF 6
ENDMDL
MODEL 5
REMARK VINA RESULT:      -7.2      4.647      9.808
REMARK  Name = 
REMARK  6 active torsions:
REMARK  status: ('A' for Active; 'I' for Inactive)
REMARK    1  A    between atoms: N_1  and  C_2
REMARK    2  A    between atoms: N_5  and  C_6
REMARK    3  A    between atoms: C_16  and  C_17
REMARK    4  A    between atoms: N_27  and  C_28
REMARK    5  A    between atoms: C_28  and  C_29
REMARK    6  A    between atoms: C_29  and  O_30
REMARK                            x       y       z     vdW  Elec       q    Type
REMARK                         _______ _______ _______ _____ _____    ______ ____
ROOT
ATOM      1  C   UNL     1       1.136   9.506  21.167  0.00  0.00    +0.000 A 
ATOM      2  N   UNL     1       1.466   8.648  20.206  0.00  0.00    +0.000 NA
ATOM      3  C   UNL     1       1.073   8.906  18.949  0.00  0.00    +0.000 A 
ATOM      4  N   UNL     1       1.436   8.019  17.936  0.00  0.00    +0.000 N 
ATOM      5  N   UNL     1       0.345   9.974  18.609  0.00  0.00    +0.000 NA
ATOM      6  C   UNL     1       0.031  10.846  19.589  0.00  0.00    +0.000 A 
ATOM      7  C   UNL     1       0.408  10.649  20.910  0.00  0.00    +0.000 A 
ATOM      8  C   UNL     1       0.030  11.596  21.949  0.00  0.00    +0.000 A 
ATOM      9  C   UNL     1      -0.629  12.711  21.621  0.00  0.00    +0.000 A 
ATOM     10  C   UNL     1      -1.003  12.997  20.193  0.00  0.00    +0.000 A 
ATOM     11  O   UNL     1      -1.576  14.048  19.911  0.00  0.00    +0.000 OA
ATOM     12  N   UNL     1      -0.698  12.022  19.251  0.00  0.00    +0.000 N 
ATOM     13  H   UNL     1       1.022   8.258  17.048  0.00  0.00    +0.000 HD
ENDROOT
BRANCH   9  14
ATOM     14  C   UNL     1      -1.021  13.661  22.683  0.00  0.00    +0.000 A 
ATOM     15  C   UNL     1      -0.265  14.822  22.927  0.00  0.00    +0.000 A 
ATOM     16 CL   UNL     1       1.196  15.161  22.059  0.00  0.00    +0.000 Cl
ATOM     17  C   UNL     1      -0.669  15.749  23.894  0.00  0.00    +0.000 A 
ATOM     18  C   UNL     1      -1.838  15.538  24.622  0.00  0.00    +0.000 A 
ATOM     19  C   UNL     1      -2.584  14.381  24.412  0.00  0.00    +0.000 A 
ATOM     20  C   UNL     1      -2.173  13.442  23.459  0.00  0.00    +0.000 A 
ATOM     21 CL   UNL     1      -3.124  12.003  23.300  0.00  0.00    +0.000 Cl
ENDBRANCH   9  14
BRANCH   4  22
ATOM     22  C   UNL     1       2.555   7.173  17.910  0.00  0.00    +0.000 A 
ATOM     23  C   UNL     1       3.789   7.654  17.461  0.00  0.00    +0.000 A 
ATOM     24  C   UNL     1       4.877   6.787  17.304  0.00  0.00    +0.000 A 
ATOM     25  C   UNL     1       4.748   5.433  17.612  0.00  0.00    +0.000 A 
ATOM     26  C   UNL     1       3.539   4.947  18.096  0.00  0.00    +0.000 A 
ATOM     27  C   UNL     1       2.457   5.812  18.241  0.00  0.00    +0.000 A 
ENDBRANCH   4  22
BRANCH   1  28
ATOM     28  N   UNL     1       1.552   9.142  22.451  0.00  0.00    +0.000 N 
ATOM     29  H   UNL     1       2.478   8.725  22.360  0.00  0.00    +0.000 HD
ATOM     30  H   UNL     1       1.555   9.921  23.099  0.00  0.00    +0.000 HD
ENDBRANCH   1  28
BRANCH  12  31
ATOM     31  C   UNL     1      -1.238  12.164  17.895  0.00  0.00    +0.000 C 
BRANCH  31  32
ATOM     32  C   UNL     1      -2.616  11.530  17.665  0.00  0.00    +0.000 C 
BRANCH  32  33
ATOM     33  O   UNL     1      -3.672  12.268  18.270  0.00  0.00    +0.000 OA
ATOM     34  H   UNL     1      -4.505  11.883  17.950  0.00  0.00    +0.000 HD
ENDBRANCH  32  33
ENDBRANCH  31  32
ENDBRANCH  12  31
TORSDOF 6
ENDMDL
MODEL 6
REMARK VINA RESULT:      -7.2      4.009      8.213
REMARK  Name = 
REMARK  6 active torsions:
REMARK  status: ('A' for Active; 'I' for Inactive)
REMARK    1  A    between atoms: N_1  and  C_2
REMARK    2  A    between atoms: N_5  and  C_6
REMARK    3  A    between atoms: C_16  and  C_17
REMARK    4  A    between atoms: N_27  and  C_28
REMARK    5  A    between atoms: C_28  and  C_29
REMARK    6  A    between atoms: C_29  and  O_30
REMARK                            x       y       z     vdW  Elec       q    Type
REMARK                         _______ _______ _______ _____ _____    ______ ____
ROOT
ATOM      1  C   UNL     1       2.180   8.588  18.472  0.00  0.00    +0.000 A 
ATOM      2  N   UNL     1       2.328   7.315  18.826  0.00  0.00    +0.000 NA
ATOM      3  C   UNL     1       2.002   6.951  20.076  0.00  0.00    +0.000 A 
ATOM      4  N   UNL     1       2.136   5.613  20.444  0.00  0.00    +0.000 N 
ATOM      5  N   UNL     1       1.554   7.809  21.000  0.00  0.00    +0.000 NA
ATOM      6  C   UNL     1       1.392   9.094  20.624  0.00  0.00    +0.000 A 
ATOM      7  C   UNL     1       1.702   9.541  19.348  0.00  0.00    +0.000 A 
ATOM      8  C   UNL     1       1.541  10.941  18.983  0.00  0.00    +0.000 A 
ATOM      9  C   UNL     1       1.020  11.799  19.863  0.00  0.00    +0.000 A 
ATOM     10  C   UNL     1       0.612  11.346  21.237  0.00  0.00    +0.000 A 
ATOM     11  O   UNL     1       0.099  12.148  22.018  0.00  0.00    +0.000 OA
ATOM     12  N   UNL     1       0.866  10.021  21.569  0.00  0.00    +0.000 N 
ATOM     13  H   UNL     1       1.946   5.462  21.423  0.00  0.00    +0.000 HD
ENDROOT
BRANCH   9  14
ATOM     14  C   UNL     1       0.872  13.221  19.490  0.00  0.00    +0.000 A 
ATOM     15  C   UNL     1       1.854  14.166  19.841  0.00  0.00    +0.000 A 
ATOM     16 CL   UNL     1       3.239  13.734  20.789  0.00  0.00    +0.000 Cl
ATOM     17  C   UNL     1       1.742  15.501  19.438  0.00  0.00    +0.000 A 
ATOM     18  C   UNL     1       0.655  15.911  18.668  0.00  0.00    +0.000 A 
ATOM     19  C   UNL     1      -0.340  14.996  18.334  0.00  0.00    +0.000 A 
ATOM     20  C   UNL     1      -0.241  13.663  18.752  0.00  0.00    +0.000 A 
ATOM     21 CL   UNL     1      -1.548  12.602  18.345  0.00  0.00    +0.000 Cl
ENDBRANCH   9  14
BRANCH   4  22
ATOM     22  C   UNL     1       2.074   4.492  19.602  0.00  0.00    +0.000 A 
ATOM     23  C   UNL     1       0.956   3.652  19.631  0.00  0.00    +0.000 A 
ATOM     24  C   UNL     1       0.941   2.461  18.897  0.00  0.00    +0.000 A 
ATOM     25  C   UNL     1       2.036   2.106  18.109  0.00  0.00    +0.000 A 
ATOM     26  C   UNL     1       3.139   2.950  18.038  0.00  0.00    +0.000 A 
ATOM     27  C   UNL     1       3.152   4.129  18.780  0.00  0.00    +0.000 A 
ENDBRANCH   4  22
BRANCH   1  28
ATOM     28  N   UNL     1       2.578   8.887  17.166  0.00  0.00    +0.000 N 
ATOM     29  H   UNL     1       1.734   8.924  16.595  0.00  0.00    +0.000 HD
ATOM     30  H   UNL     1       3.109   9.748  17.104  0.00  0.00    +0.000 HD
ENDBRANCH   1  28
BRANCH  12  31
ATOM     31  C   UNL     1       0.685   9.599  22.962  0.00  0.00    +0.000 C 
BRANCH  31  32
ATOM     32  C   UNL     1      -0.753   9.243  23.360  0.00  0.00    +0.000 C 
BRANCH  32  33
ATOM     33  O   UNL     1      -1.591  10.386  23.487  0.00  0.00    +0.000 OA
ATOM     34  H   UNL     1      -1.018  11.167  23.400  0.00  0.00    +0.000 HD
ENDBRANCH  32  33
ENDBRANCH  31  32
ENDBRANCH  12  31
TORSDOF 6
ENDMDL
MODEL 7
REMARK VINA RESULT:      -7.0      4.547      9.800
REMARK  Name = 
REMARK  6 active torsions:
REMARK  status: ('A' for Active; 'I' for Inactive)
REMARK    1  A    between atoms: N_1  and  C_2
REMARK    2  A    between atoms: N_5  and  C_6
REMARK    3  A    between atoms: C_16  and  C_17
REMARK    4  A    between atoms: N_27  and  C_28
REMARK    5  A    between atoms: C_28  and  C_29
REMARK    6  A    between atoms: C_29  and  O_30
REMARK                            x       y       z     vdW  Elec       q    Type
REMARK                         _______ _______ _______ _____ _____    ______ ____
ROOT
ATOM      1  C   UNL     1       0.962   9.613  21.348  0.00  0.00    +0.000 A 
ATOM      2  N   UNL     1       1.353   8.777  20.390  0.00  0.00    +0.000 NA
ATOM      3  C   UNL     1       1.096   9.096  19.112  0.00  0.00    +0.000 A 
ATOM      4  N   UNL     1       1.524   8.232  18.104  0.00  0.00    +0.000 N 
ATOM      5  N   UNL     1       0.443  10.204  18.746  0.00  0.00    +0.000 NA
ATOM      6  C   UNL     1       0.066  11.052  19.725  0.00  0.00    +0.000 A 
ATOM      7  C   UNL     1       0.304  10.793  21.067  0.00  0.00    +0.000 A 
ATOM      8  C   UNL     1      -0.140  11.716  22.101  0.00  0.00    +0.000 A 
ATOM      9  C   UNL     1      -0.722  12.867  21.755  0.00  0.00    +0.000 A 
ATOM     10  C   UNL     1      -0.943  13.219  20.310  0.00  0.00    +0.000 A 
ATOM     11  O   UNL     1      -1.448  14.302  20.016  0.00  0.00    +0.000 OA
ATOM     12  N   UNL     1      -0.583  12.268  19.364  0.00  0.00    +0.000 N 
ATOM     13  H   UNL     1       1.208   8.520  17.191  0.00  0.00    +0.000 HD
ENDROOT
BRANCH   9  14
ATOM     14  C   UNL     1      -1.182  13.793  22.811  0.00  0.00    +0.000 A 
ATOM     15  C   UNL     1      -0.452  14.956  23.118  0.00  0.00    +0.000 A 
ATOM     16 CL   UNL     1       1.051  15.325  22.340  0.00  0.00    +0.000 Cl
ATOM     17  C   UNL     1      -0.919  15.862  24.078  0.00  0.00    +0.000 A 
ATOM     18  C   UNL     1      -2.124  15.626  24.736  0.00  0.00    +0.000 A 
ATOM     19  C   UNL     1      -2.846  14.467  24.464  0.00  0.00    +0.000 A 
ATOM     20  C   UNL     1      -2.373  13.549  23.517  0.00  0.00    +0.000 A 
ATOM     21 CL   UNL     1      -3.299  12.105  23.279  0.00  0.00    +0.000 Cl
ENDBRANCH   9  14
BRANCH   4  22
ATOM     22  C   UNL     1       2.609   7.344  18.153  0.00  0.00    +0.000 A 
ATOM     23  C   UNL     1       2.611   6.287  19.069  0.00  0.00    +0.000 A 
ATOM     24  C   UNL     1       3.743   5.477  19.218  0.00  0.00    +0.000 A 
ATOM     25  C   UNL     1       4.879   5.704  18.440  0.00  0.00    +0.000 A 
ATOM     26  C   UNL     1       4.877   6.726  17.498  0.00  0.00    +0.000 A 
ATOM     27  C   UNL     1       3.752   7.535  17.361  0.00  0.00    +0.000 A 
ENDBRANCH   4  22
BRANCH   1  28
ATOM     28  N   UNL     1       1.236   9.187  22.650  0.00  0.00    +0.000 N 
ATOM     29  H   UNL     1       1.125   9.995  23.261  0.00  0.00    +0.000 HD
ATOM     30  H   UNL     1       0.649   8.414  22.943  0.00  0.00    +0.000 HD
ENDBRANCH   1  28
BRANCH  12  31
ATOM     31  C   UNL     1      -0.981  12.480  17.969  0.00  0.00    +0.000 C 
BRANCH  31  32
ATOM     32  C   UNL     1      -2.185  11.656  17.495  0.00  0.00    +0.000 C 
BRANCH  32  33
ATOM     33  O   UNL     1      -1.819  10.595  16.620  0.00  0.00    +0.000 OA
ATOM     34  H   UNL     1      -1.749   9.792  17.163  0.00  0.00    +0.000 HD
ENDBRANCH  32  33
ENDBRANCH  31  32
ENDBRANCH  12  31
TORSDOF 6
ENDMDL
MODEL 8
REMARK VINA RESULT:      -6.7      5.995     10.632
REMARK  Name = 
REMARK  6 active torsions:
REMARK  status: ('A' for Active; 'I' for Inactive)
REMARK    1  A    between atoms: N_1  and  C_2
REMARK    2  A    between atoms: N_5  and  C_6
REMARK    3  A    between atoms: C_16  and  C_17
REMARK    4  A    between atoms: N_27  and  C_28
REMARK    5  A    between atoms: C_28  and  C_29
REMARK    6  A    between atoms: C_29  and  O_30
REMARK                            x       y       z     vdW  Elec       q    Type
REMARK                         _______ _______ _______ _____ _____    ______ ____
ROOT
ATOM      1  C   UNL     1      -1.670  11.044  18.496  0.00  0.00    +0.000 A 
ATOM      2  N   UNL     1      -0.521  10.417  18.733  0.00  0.00    +0.000 NA
ATOM      3  C   UNL     1      -0.025  10.429  19.980  0.00  0.00    +0.000 A 
ATOM      4  N   UNL     1       1.168   9.754  20.236  0.00  0.00    +0.000 N 
ATOM      5  N   UNL     1      -0.615  11.059  21.002  0.00  0.00    +0.000 NA
ATOM      6  C   UNL     1      -1.788  11.677  20.753  0.00  0.00    +0.000 A 
ATOM      7  C   UNL     1      -2.364  11.701  19.491  0.00  0.00    +0.000 A 
ATOM      8  C   UNL     1      -3.617  12.401  19.251  0.00  0.00    +0.000 A 
ATOM      9  C   UNL     1      -4.265  12.969  20.271  0.00  0.00    +0.000 A 
ATOM     10  C   UNL     1      -3.710  12.914  21.667  0.00  0.00    +0.000 A 
ATOM     11  O   UNL     1      -4.343  13.413  22.597  0.00  0.00    +0.000 OA
ATOM     12  N   UNL     1      -2.468  12.312  21.832  0.00  0.00    +0.000 N 
ATOM     13  H   UNL     1       1.495   9.895  21.180  0.00  0.00    +0.000 HD
ENDROOT
BRANCH   9  14
ATOM     14  C   UNL     1      -5.530  13.689  20.017  0.00  0.00    +0.000 A 
ATOM     15  C   UNL     1      -5.569  15.095  19.996  0.00  0.00    +0.000 A 
ATOM     16 CL   UNL     1      -4.167  16.053  20.339  0.00  0.00    +0.000 Cl
ATOM     17  C   UNL     1      -6.755  15.775  19.698  0.00  0.00    +0.000 A 
ATOM     18  C   UNL     1      -7.917  15.063  19.406  0.00  0.00    +0.000 A 
ATOM     19  C   UNL     1      -7.903  13.671  19.450  0.00  0.00    +0.000 A 
ATOM     20  C   UNL     1      -6.723  12.987  19.765  0.00  0.00    +0.000 A 
ATOM     21 CL   UNL     1      -6.804  11.259  19.855  0.00  0.00    +0.000 Cl
ENDBRANCH   9  14
BRANCH   4  22
ATOM     22  C   UNL     1       1.683   8.650  19.541  0.00  0.00    +0.000 A 
ATOM     23  C   UNL     1       1.883   7.433  20.202  0.00  0.00    +0.000 A 
ATOM     24  C   UNL     1       2.520   6.368  19.556  0.00  0.00    +0.000 A 
ATOM     25  C   UNL     1       2.947   6.500  18.235  0.00  0.00    +0.000 A 
ATOM     26  C   UNL     1       2.721   7.689  17.551  0.00  0.00    +0.000 A 
ATOM     27  C   UNL     1       2.095   8.750  18.203  0.00  0.00    +0.000 A 
ENDBRANCH   4  22
BRANCH   1  28
ATOM     28  N   UNL     1      -2.094  11.015  17.165  0.00  0.00    +0.000 N 
ATOM     29  H   UNL     1      -2.209  11.982  16.865  0.00  0.00    +0.000 HD
ATOM     30  H   UNL     1      -1.457  10.508  16.561  0.00  0.00    +0.000 HD
ENDBRANCH   1  28
BRANCH  12  31
ATOM     31  C   UNL     1      -1.797  12.431  23.130  0.00  0.00    +0.000 C 
BRANCH  31  32
ATOM     32  C   UNL     1      -1.176  13.802  23.427  0.00  0.00    +0.000 C 
BRANCH  32  33
ATOM     33  O   UNL     1      -2.001  14.616  24.253  0.00  0.00    +0.000 OA
ATOM     34  H   UNL     1      -1.895  15.532  23.943  0.00  0.00    +0.000 HD
ENDBRANCH  32  33
ENDBRANCH  31  32
ENDBRANCH  12  31
TORSDOF 6
ENDMDL
MODEL 9
REMARK VINA RESULT:      -6.7      4.749     10.093
REMARK  Name = 
REMARK  6 active torsions:
REMARK  status: ('A' for Active; 'I' for Inactive)
REMARK    1  A    between atoms: N_1  and  C_2
REMARK    2  A    between atoms: N_5  and  C_6
REMARK    3  A    between atoms: C_16  and  C_17
REMARK    4  A    between atoms: N_27  and  C_28
REMARK    5  A    between atoms: C_28  and  C_29
REMARK    6  A    between atoms: C_29  and  O_30
REMARK                            x       y       z     vdW  Elec       q    Type
REMARK                         _______ _______ _______ _____ _____    ______ ____
ROOT
ATOM      1  C   UNL     1      -0.117   9.720  21.503  0.00  0.00    +0.000 A 
ATOM      2  N   UNL     1       0.525   8.973  20.609  0.00  0.00    +0.000 NA
ATOM      3  C   UNL     1       0.886   9.531  19.443  0.00  0.00    +0.000 A 
ATOM      4  N   UNL     1       1.579   8.757  18.513  0.00  0.00    +0.000 N 
ATOM      5  N   UNL     1       0.616  10.800  19.118  0.00  0.00    +0.000 NA
ATOM      6  C   UNL     1      -0.021  11.552  20.039  0.00  0.00    +0.000 A 
ATOM      7  C   UNL     1      -0.419  11.045  21.268  0.00  0.00    +0.000 A 
ATOM      8  C   UNL     1      -1.128  11.876  22.229  0.00  0.00    +0.000 A 
ATOM      9  C   UNL     1      -1.339  13.168  21.960  0.00  0.00    +0.000 A 
ATOM     10  C   UNL     1      -0.870  13.775  20.667  0.00  0.00    +0.000 A 
ATOM     11  O   UNL     1      -1.042  14.975  20.458  0.00  0.00    +0.000 OA
ATOM     12  N   UNL     1      -0.276  12.922  19.745  0.00  0.00    +0.000 N 
ATOM     13  H   UNL     1       1.728   9.243  17.642  0.00  0.00    +0.000 HD
ENDROOT
BRANCH   9  14
ATOM     14  C   UNL     1      -2.072  14.002  22.935  0.00  0.00    +0.000 A 
ATOM     15  C   UNL     1      -3.448  13.811  23.158  0.00  0.00    +0.000 A 
ATOM     16 CL   UNL     1      -4.368  12.652  22.257  0.00  0.00    +0.000 Cl
ATOM     17  C   UNL     1      -4.129  14.562  24.123  0.00  0.00    +0.000 A 
ATOM     18  C   UNL     1      -3.445  15.506  24.886  0.00  0.00    +0.000 A 
ATOM     19  C   UNL     1      -2.089  15.728  24.659  0.00  0.00    +0.000 A 
ATOM     20  C   UNL     1      -1.408  14.991  23.682  0.00  0.00    +0.000 A 
ATOM     21 CL   UNL     1       0.262  15.368  23.422  0.00  0.00    +0.000 Cl
ENDBRANCH   9  14
BRANCH   4  22
ATOM     22  C   UNL     1       2.403   7.651  18.775  0.00  0.00    +0.000 A 
ATOM     23  C   UNL     1       3.439   7.323  17.895  0.00  0.00    +0.000 A 
ATOM     24  C   UNL     1       4.179   6.149  18.074  0.00  0.00    +0.000 A 
ATOM     25  C   UNL     1       3.904   5.299  19.146  0.00  0.00    +0.000 A 
ATOM     26  C   UNL     1       2.903   5.632  20.051  0.00  0.00    +0.000 A 
ATOM     27  C   UNL     1       2.163   6.797  19.862  0.00  0.00    +0.000 A 
ENDBRANCH   4  22
BRANCH   1  28
ATOM     28  N   UNL     1      -0.489   9.051  22.672  0.00  0.00    +0.000 N 
ATOM     29  H   UNL     1      -0.778   9.759  23.345  0.00  0.00    +0.000 HD
ATOM     30  H   UNL     1      -1.217   8.363  22.517  0.00  0.00    +0.000 HD
ENDBRANCH   1  28
BRANCH  12  31
ATOM     31  C   UNL     1      -0.005  13.427  18.395  0.00  0.00    +0.000 C 
BRANCH  31  32
ATOM     32  C   UNL     1       1.438  13.880  18.140  0.00  0.00    +0.000 C 
BRANCH  32  33
ATOM     33  O   UNL     1       2.221  12.887  17.486  0.00  0.00    +0.000 OA
ATOM     34  H   UNL     1       2.745  13.344  16.806  0.00  0.00    +0.000 HD
ENDBRANCH  32  33
ENDBRANCH  31  32
ENDBRANCH  12  31
TORSDOF 6
ENDMDL
