MODEL 1
REMARK VINA RESULT:      -8.3      0.000      0.000
REMARK  Name = 
REMARK  8 active torsions:
REMARK  status: ('A' for Active; 'I' for Inactive)
REMARK    1  A    between atoms: C_1  and  C_2
REMARK    2  A    between atoms: C_2  and  O_3
REMARK    3  A    between atoms: C_2  and  C_29
REMARK    4  A    between atoms: O_3  and  C_4
REMARK    5  A    between atoms: C_7  and  S_8
REMARK    6  A    between atoms: S_8  and  C_9
REMARK    7  A    between atoms: C_13  and  C_14
REMARK    8  A    between atoms: C_21  and  C_22
REMARK                            x       y       z     vdW  Elec       q    Type
REMARK                         _______ _______ _______ _____ _____    ______ ____
ROOT
ATOM      1  C   UNL     1       0.584  12.194  19.477  0.00  0.00    +0.000 A 
ATOM      2  C   UNL     1      -0.043  12.976  18.484  0.00  0.00    +0.000 A 
ATOM      3  C   UNL     1      -1.213  12.560  17.845  0.00  0.00    +0.000 A 
ATOM      4  C   UNL     1      -1.788  11.349  18.199  0.00  0.00    +0.000 A 
ATOM      5  C   UNL     1      -1.208  10.573  19.201  0.00  0.00    +0.000 A 
ATOM      6  C   UNL     1       0.004  10.964  19.838  0.00  0.00    +0.000 A 
ENDROOT
BRANCH   6   7
ATOM      7  C   UNL     1       0.628   9.857  20.642  0.00  0.00    +0.000 C 
ATOM      8  O   UNL     1       0.429   9.945  21.866  0.00  0.00    +0.000 OA
ATOM      9  N   UNL     1       1.350   8.782  20.162  0.00  0.00    +0.000 N 
ATOM     10  C   UNL     1       1.610   7.705  21.108  0.00  0.00    +0.000 C 
ATOM     11  C   UNL     1       1.921   6.549  20.224  0.00  0.00    +0.000 A 
ATOM     12  C   UNL     1       1.697   5.205  20.430  0.00  0.00    +0.000 A 
ATOM     13  C   UNL     1       2.121   4.314  19.449  0.00  0.00    +0.000 A 
ATOM     14  C   UNL     1       2.837   4.764  18.314  0.00  0.00    +0.000 A 
ATOM     15  C   UNL     1       2.935   6.146  18.066  0.00  0.00    +0.000 A 
ATOM     16  C   UNL     1       2.393   7.018  18.998  0.00  0.00    +0.000 A 
ATOM     17  C   UNL     1       1.870   8.427  18.835  0.00  0.00    +0.000 C 
BRANCH  14  18
ATOM     18  C   UNL     1       3.472   3.752  17.393  0.00  0.00    +0.000 C 
ATOM     19  F   UNL     1       4.208   2.808  18.048  0.00  0.00    +0.000 F 
ATOM     20  F   UNL     1       2.562   3.059  16.655  0.00  0.00    +0.000 F 
ATOM     21  F   UNL     1       4.322   4.326  16.500  0.00  0.00    +0.000 F 
ENDBRANCH  14  18
ENDBRANCH   6   7
BRANCH   4  22
ATOM     22  S   UNL     1      -3.222  10.765  17.339  0.00  0.00    +0.000 S 
ATOM     23  C   UNL     1      -2.814  10.839  15.621  0.00  0.00    +0.000 C 
ATOM     24  O   UNL     1      -3.407   9.382  17.705  0.00  0.00    +0.000 OA
ATOM     25  O   UNL     1      -4.285  11.742  17.554  0.00  0.00    +0.000 OA
ENDBRANCH   4  22
BRANCH   1  26
ATOM     26  O   UNL     1       1.792  12.553  20.003  0.00  0.00    +0.000 OA
BRANCH  26  28
ATOM     27  C   UNL     1       2.907  14.311  21.211  0.00  0.00    +0.000 C 
ATOM     28  C   UNL     1       2.227  13.930  19.892  0.00  0.00    +0.000 C 
BRANCH  28  29
ATOM     29  C   UNL     1       3.195  14.155  18.717  0.00  0.00    +0.000 C 
ATOM     30  F   UNL     1       3.413  13.035  17.995  0.00  0.00    +0.000 F 
ATOM     31  F   UNL     1       2.760  15.107  17.865  0.00  0.00    +0.000 F 
ATOM     32  F   UNL     1       4.399  14.565  19.190  0.00  0.00    +0.000 F 
ENDBRANCH  28  29
ENDBRANCH  26  28
ENDBRANCH   1  26
TORSDOF 6
ENDMDL
MODEL 2
REMARK VINA RESULT:      -8.2      1.079      1.389
REMARK  Name = 
REMARK  8 active torsions:
REMARK  status: ('A' for Active; 'I' for Inactive)
REMARK    1  A    between atoms: C_1  and  C_2
REMARK    2  A    between atoms: C_2  and  O_3
REMARK    3  A    between atoms: C_2  and  C_29
REMARK    4  A    between atoms: O_3  and  C_4
REMARK    5  A    between atoms: C_7  and  S_8
REMARK    6  A    between atoms: S_8  and  C_9
REMARK    7  A    between atoms: C_13  and  C_14
REMARK    8  A    between atoms: C_21  and  C_22
REMARK                            x       y       z     vdW  Elec       q    Type
REMARK                         _______ _______ _______ _____ _____    ______ ____
ROOT
ATOM      1  C   UNL     1       0.384  11.870  19.448  0.00  0.00    +0.000 A 
ATOM      2  C   UNL     1      -0.330  12.767  18.625  0.00  0.00    +0.000 A 
ATOM      3  C   UNL     1      -1.479  12.379  17.932  0.00  0.00    +0.000 A 
ATOM      4  C   UNL     1      -1.945  11.080  18.061  0.00  0.00    +0.000 A 
ATOM      5  C   UNL     1      -1.279  10.183  18.895  0.00  0.00    +0.000 A 
ATOM      6  C   UNL     1      -0.085  10.550  19.580  0.00  0.00    +0.000 A 
ENDROOT
BRANCH   6   7
ATOM      7  C   UNL     1       0.646   9.369  20.157  0.00  0.00    +0.000 C 
ATOM      8  O   UNL     1       0.260   9.038  21.291  0.00  0.00    +0.000 OA
ATOM      9  N   UNL     1       1.650   8.635  19.556  0.00  0.00    +0.000 N 
ATOM     10  C   UNL     1       2.003   7.378  20.201  0.00  0.00    +0.000 C 
ATOM     11  C   UNL     1       2.686   6.624  19.115  0.00  0.00    +0.000 A 
ATOM     12  C   UNL     1       2.739   5.265  18.893  0.00  0.00    +0.000 A 
ATOM     13  C   UNL     1       3.485   4.807  17.812  0.00  0.00    +0.000 A 
ATOM     14  C   UNL     1       4.239   5.702  17.014  0.00  0.00    +0.000 A 
ATOM     15  C   UNL     1       4.062   7.088  17.182  0.00  0.00    +0.000 A 
ATOM     16  C   UNL     1       3.213   7.523  18.188  0.00  0.00    +0.000 A 
ATOM     17  C   UNL     1       2.419   8.804  18.317  0.00  0.00    +0.000 C 
BRANCH  14  18
ATOM     18  C   UNL     1       5.208   5.149  16.000  0.00  0.00    +0.000 C 
ATOM     19  F   UNL     1       6.507   5.177  16.417  0.00  0.00    +0.000 F 
ATOM     20  F   UNL     1       4.957   3.850  15.675  0.00  0.00    +0.000 F 
ATOM     21  F   UNL     1       5.183   5.840  14.828  0.00  0.00    +0.000 F 
ENDBRANCH  14  18
ENDBRANCH   6   7
BRANCH   4  22
ATOM     22  S   UNL     1      -3.350  10.546  17.122  0.00  0.00    +0.000 S 
ATOM     23  C   UNL     1      -2.755  10.276  15.481  0.00  0.00    +0.000 C 
ATOM     24  O   UNL     1      -3.774   9.280  17.668  0.00  0.00    +0.000 OA
ATOM     25  O   UNL     1      -4.275  11.673  17.048  0.00  0.00    +0.000 OA
ENDBRANCH   4  22
BRANCH   1  26
ATOM     26  O   UNL     1       1.573  12.225  20.018  0.00  0.00    +0.000 OA
BRANCH  26  28
ATOM     27  C   UNL     1       3.005  13.941  20.913  0.00  0.00    +0.000 C 
ATOM     28  C   UNL     1       2.135  13.526  19.721  0.00  0.00    +0.000 C 
BRANCH  28  29
ATOM     29  C   UNL     1       2.973  13.531  18.431  0.00  0.00    +0.000 C 
ATOM     30  F   UNL     1       3.146  12.296  17.913  0.00  0.00    +0.000 F 
ATOM     31  F   UNL     1       2.430  14.302  17.465  0.00  0.00    +0.000 F 
ATOM     32  F   UNL     1       4.207  14.031  18.691  0.00  0.00    +0.000 F 
ENDBRANCH  28  29
ENDBRANCH  26  28
ENDBRANCH   1  26
TORSDOF 6
ENDMDL
MODEL 3
REMARK VINA RESULT:      -8.1      4.184      8.431
REMARK  Name = 
REMARK  8 active torsions:
REMARK  status: ('A' for Active; 'I' for Inactive)
REMARK    1  A    between atoms: C_1  and  C_2
REMARK    2  A    between atoms: C_2  and  O_3
REMARK    3  A    between atoms: C_2  and  C_29
REMARK    4  A    between atoms: O_3  and  C_4
REMARK    5  A    between atoms: C_7  and  S_8
REMARK    6  A    between atoms: S_8  and  C_9
REMARK    7  A    between atoms: C_13  and  C_14
REMARK    8  A    between atoms: C_21  and  C_22
REMARK                            x       y       z     vdW  Elec       q    Type
REMARK                         _______ _______ _______ _____ _____    ______ ____
ROOT
ATOM      1  C   UNL     1       4.783   5.572  18.193  0.00  0.00    +0.000 A 
ATOM      2  C   UNL     1       5.030   4.321  18.799  0.00  0.00    +0.000 A 
ATOM      3  C   UNL     1       4.005   3.558  19.364  0.00  0.00    +0.000 A 
ATOM      4  C   UNL     1       2.703   4.031  19.322  0.00  0.00    +0.000 A 
ATOM      5  C   UNL     1       2.426   5.246  18.698  0.00  0.00    +0.000 A 
ATOM      6  C   UNL     1       3.462   6.054  18.149  0.00  0.00    +0.000 A 
ENDROOT
BRANCH   6   7
ATOM      7  C   UNL     1       3.005   7.448  17.819  0.00  0.00    +0.000 C 
ATOM      8  O   UNL     1       3.228   7.791  16.645  0.00  0.00    +0.000 OA
ATOM      9  N   UNL     1       2.365   8.337  18.661  0.00  0.00    +0.000 N 
ATOM     10  C   UNL     1       1.781   9.514  18.032  0.00  0.00    +0.000 C 
ATOM     11  C   UNL     1       0.785   9.972  19.038  0.00  0.00    +0.000 A 
ATOM     12  C   UNL     1      -0.417  10.620  18.846  0.00  0.00    +0.000 A 
ATOM     13  C   UNL     1      -1.154  10.976  19.972  0.00  0.00    +0.000 A 
ATOM     14  C   UNL     1      -0.647  10.758  21.276  0.00  0.00    +0.000 A 
ATOM     15  C   UNL     1       0.515   9.981  21.440  0.00  0.00    +0.000 A 
ATOM     16  C   UNL     1       1.167   9.529  20.303  0.00  0.00    +0.000 A 
ATOM     17  C   UNL     1       2.058   8.324  20.096  0.00  0.00    +0.000 C 
BRANCH  14  18
ATOM     18  C   UNL     1      -1.366  11.358  22.457  0.00  0.00    +0.000 C 
ATOM     19  F   UNL     1      -1.606  10.463  23.459  0.00  0.00    +0.000 F 
ATOM     20  F   UNL     1      -0.678  12.381  23.038  0.00  0.00    +0.000 F 
ATOM     21  F   UNL     1      -2.582  11.867  22.121  0.00  0.00    +0.000 F 
ENDBRANCH  14  18
ENDBRANCH   6   7
BRANCH   4  22
ATOM     22  S   UNL     1       1.405   3.118  20.109  0.00  0.00    +0.000 S 
ATOM     23  C   UNL     1       2.071   2.569  21.650  0.00  0.00    +0.000 C 
ATOM     24  O   UNL     1       0.333   4.044  20.379  0.00  0.00    +0.000 OA
ATOM     25  O   UNL     1       1.171   1.919  19.309  0.00  0.00    +0.000 OA
ENDBRANCH   4  22
BRANCH   1  26
ATOM     26  O   UNL     1       5.807   6.363  17.757  0.00  0.00    +0.000 OA
BRANCH  26  28
ATOM     27  C   UNL     1       7.447   4.676  17.247  0.00  0.00    +0.000 C 
ATOM     28  C   UNL     1       6.670   5.878  16.700  0.00  0.00    +0.000 C 
BRANCH  28  29
ATOM     29  C   UNL     1       5.890   5.469  15.438  0.00  0.00    +0.000 C 
ATOM     30  F   UNL     1       5.154   4.350  15.614  0.00  0.00    +0.000 F 
ATOM     31  F   UNL     1       5.053   6.439  15.011  0.00  0.00    +0.000 F 
ATOM     32  F   UNL     1       6.758   5.220  14.425  0.00  0.00    +0.000 F 
ENDBRANCH  28  29
ENDBRANCH  26  28
ENDBRANCH   1  26
TORSDOF 6
ENDMDL
MODEL 4
REMARK VINA RESULT:      -8.1      1.230      1.824
REMARK  Name = 
REMARK  8 active torsions:
REMARK  status: ('A' for Active; 'I' for Inactive)
REMARK    1  A    between atoms: C_1  and  C_2
REMARK    2  A    between atoms: C_2  and  O_3
REMARK    3  A    between atoms: C_2  and  C_29
REMARK    4  A    between atoms: O_3  and  C_4
REMARK    5  A    between atoms: C_7  and  S_8
REMARK    6  A    between atoms: S_8  and  C_9
REMARK    7  A    between atoms: C_13  and  C_14
REMARK    8  A    between atoms: C_21  and  C_22
REMARK                            x       y       z     vdW  Elec       q    Type
REMARK                         _______ _______ _______ _____ _____    ______ ____
ROOT
ATOM      1  C   UNL     1       0.308  11.894  19.478  0.00  0.00    +0.000 A 
ATOM      2  C   UNL     1      -0.391  12.785  18.636  0.00  0.00    +0.000 A 
ATOM      3  C   UNL     1      -1.470  12.368  17.852  0.00  0.00    +0.000 A 
ATOM      4  C   UNL     1      -1.878  11.044  17.907  0.00  0.00    +0.000 A 
ATOM      5  C   UNL     1      -1.228  10.152  18.757  0.00  0.00    +0.000 A 
ATOM      6  C   UNL     1      -0.104  10.551  19.535  0.00  0.00    +0.000 A 
ENDROOT
BRANCH   6   7
ATOM      7  C   UNL     1       0.643   9.386  20.125  0.00  0.00    +0.000 C 
ATOM      8  O   UNL     1       0.272   9.072  21.269  0.00  0.00    +0.000 OA
ATOM      9  N   UNL     1       1.647   8.650  19.526  0.00  0.00    +0.000 N 
ATOM     10  C   UNL     1       2.017   7.407  20.190  0.00  0.00    +0.000 C 
ATOM     11  C   UNL     1       2.695   6.639  19.110  0.00  0.00    +0.000 A 
ATOM     12  C   UNL     1       2.756   5.276  18.911  0.00  0.00    +0.000 A 
ATOM     13  C   UNL     1       3.494   4.806  17.830  0.00  0.00    +0.000 A 
ATOM     14  C   UNL     1       4.232   5.692  17.009  0.00  0.00    +0.000 A 
ATOM     15  C   UNL     1       4.046   7.080  17.154  0.00  0.00    +0.000 A 
ATOM     16  C   UNL     1       3.204   7.525  18.162  0.00  0.00    +0.000 A 
ATOM     17  C   UNL     1       2.401   8.802  18.276  0.00  0.00    +0.000 C 
BRANCH  14  18
ATOM     18  C   UNL     1       5.194   5.129  15.993  0.00  0.00    +0.000 C 
ATOM     19  F   UNL     1       5.385   5.943  14.915  0.00  0.00    +0.000 F 
ATOM     20  F   UNL     1       6.436   4.902  16.504  0.00  0.00    +0.000 F 
ATOM     21  F   UNL     1       4.775   3.939  15.485  0.00  0.00    +0.000 F 
ENDBRANCH  14  18
ENDBRANCH   6   7
BRANCH   4  22
ATOM     22  S   UNL     1      -3.188  10.479  16.856  0.00  0.00    +0.000 S 
ATOM     23  C   UNL     1      -4.477  11.677  17.009  0.00  0.00    +0.000 C 
ATOM     24  O   UNL     1      -2.694  10.511  15.501  0.00  0.00    +0.000 OA
ATOM     25  O   UNL     1      -3.703   9.241  17.432  0.00  0.00    +0.000 OA
ENDBRANCH   4  22
BRANCH   1  26
ATOM     26  O   UNL     1       1.436  12.285  20.142  0.00  0.00    +0.000 OA
BRANCH  26  28
ATOM     27  C   UNL     1       2.790  14.024  21.111  0.00  0.00    +0.000 C 
ATOM     28  C   UNL     1       1.990  13.597  19.875  0.00  0.00    +0.000 C 
BRANCH  28  29
ATOM     29  C   UNL     1       2.895  13.618  18.631  0.00  0.00    +0.000 C 
ATOM     30  F   UNL     1       2.380  14.349  17.619  0.00  0.00    +0.000 F 
ATOM     31  F   UNL     1       4.126  14.105  18.896  0.00  0.00    +0.000 F 
ATOM     32  F   UNL     1       3.060  12.354  18.165  0.00  0.00    +0.000 F 
ENDBRANCH  28  29
ENDBRANCH  26  28
ENDBRANCH   1  26
TORSDOF 6
ENDMDL
MODEL 5
REMARK VINA RESULT:      -8.0      4.078      9.157
REMARK  Name = 
REMARK  8 active torsions:
REMARK  status: ('A' for Active; 'I' for Inactive)
REMARK    1  A    between atoms: C_1  and  C_2
REMARK    2  A    between atoms: C_2  and  O_3
REMARK    3  A    between atoms: C_2  and  C_29
REMARK    4  A    between atoms: O_3  and  C_4
REMARK    5  A    between atoms: C_7  and  S_8
REMARK    6  A    between atoms: S_8  and  C_9
REMARK    7  A    between atoms: C_13  and  C_14
REMARK    8  A    between atoms: C_21  and  C_22
REMARK                            x       y       z     vdW  Elec       q    Type
REMARK                         _______ _______ _______ _____ _____    ______ ____
ROOT
ATOM      1  C   UNL     1       3.534   4.485  17.512  0.00  0.00    +0.000 A 
ATOM      2  C   UNL     1       4.520   4.300  16.519  0.00  0.00    +0.000 A 
ATOM      3  C   UNL     1       5.724   5.009  16.531  0.00  0.00    +0.000 A 
ATOM      4  C   UNL     1       5.970   5.913  17.553  0.00  0.00    +0.000 A 
ATOM      5  C   UNL     1       5.029   6.088  18.566  0.00  0.00    +0.000 A 
ATOM      6  C   UNL     1       3.781   5.402  18.549  0.00  0.00    +0.000 A 
ENDROOT
BRANCH   6   7
ATOM      7  C   UNL     1       2.792   5.961  19.534  0.00  0.00    +0.000 C 
ATOM      8  O   UNL     1       2.631   5.260  20.547  0.00  0.00    +0.000 OA
ATOM      9  N   UNL     1       2.092   7.148  19.430  0.00  0.00    +0.000 N 
ATOM     10  C   UNL     1       1.408   7.601  20.634  0.00  0.00    +0.000 C 
ATOM     11  C   UNL     1       1.204   9.053  20.378  0.00  0.00    +0.000 A 
ATOM     12  C   UNL     1       1.155  10.100  21.272  0.00  0.00    +0.000 A 
ATOM     13  C   UNL     1       0.914  11.376  20.772  0.00  0.00    +0.000 A 
ATOM     14  C   UNL     1       0.639  11.582  19.399  0.00  0.00    +0.000 A 
ATOM     15  C   UNL     1       0.825  10.520  18.494  0.00  0.00    +0.000 A 
ATOM     16  C   UNL     1       1.190   9.283  19.003  0.00  0.00    +0.000 A 
ATOM     17  C   UNL     1       1.941   8.139  18.358  0.00  0.00    +0.000 C 
BRANCH  14  18
ATOM     18  C   UNL     1       0.161  12.935  18.936  0.00  0.00    +0.000 C 
ATOM     19  F   UNL     1       1.157  13.721  18.435  0.00  0.00    +0.000 F 
ATOM     20  F   UNL     1      -0.777  12.862  17.951  0.00  0.00    +0.000 F 
ATOM     21  F   UNL     1      -0.405  13.657  19.941  0.00  0.00    +0.000 F 
ENDBRANCH  14  18
ENDBRANCH   6   7
BRANCH   4  22
ATOM     22  S   UNL     1       7.453   6.882  17.538  0.00  0.00    +0.000 S 
ATOM     23  C   UNL     1       6.924   8.567  17.604  0.00  0.00    +0.000 C 
ATOM     24  O   UNL     1       8.173   6.582  18.751  0.00  0.00    +0.000 OA
ATOM     25  O   UNL     1       8.080   6.696  16.233  0.00  0.00    +0.000 OA
ENDBRANCH   4  22
BRANCH   1  26
ATOM     26  O   UNL     1       2.313   3.880  17.419  0.00  0.00    +0.000 OA
BRANCH  26  28
ATOM     27  C   UNL     1       3.523   2.064  18.436  0.00  0.00    +0.000 C 
ATOM     28  C   UNL     1       2.158   2.529  17.916  0.00  0.00    +0.000 C 
BRANCH  28  29
ATOM     29  C   UNL     1       1.107   2.424  19.035  0.00  0.00    +0.000 C 
ATOM     30  F   UNL     1       1.619   1.961  20.196  0.00  0.00    +0.000 F 
ATOM     31  F   UNL     1       0.514   3.608  19.298  0.00  0.00    +0.000 F 
ATOM     32  F   UNL     1       0.126   1.564  18.661  0.00  0.00    +0.000 F 
ENDBRANCH  28  29
ENDBRANCH  26  28
ENDBRANCH   1  26
TORSDOF 6
ENDMDL
MODEL 6
REMARK VINA RESULT:      -8.0      0.691      1.036
REMARK  Name = 
REMARK  8 active torsions:
REMARK  status: ('A' for Active; 'I' for Inactive)
REMARK    1  A    between atoms: C_1  and  C_2
REMARK    2  A    between atoms: C_2  and  O_3
REMARK    3  A    between atoms: C_2  and  C_29
REMARK    4  A    between atoms: O_3  and  C_4
REMARK    5  A    between atoms: C_7  and  S_8
REMARK    6  A    between atoms: S_8  and  C_9
REMARK    7  A    between atoms: C_13  and  C_14
REMARK    8  A    between atoms: C_21  and  C_22
REMARK                            x       y       z     vdW  Elec       q    Type
REMARK                         _______ _______ _______ _____ _____    ______ ____
ROOT
ATOM      1  C   UNL     1       0.777  12.353  19.496  0.00  0.00    +0.000 A 
ATOM      2  C   UNL     1       0.207  13.175  18.501  0.00  0.00    +0.000 A 
ATOM      3  C   UNL     1      -0.981  12.833  17.851  0.00  0.00    +0.000 A 
ATOM      4  C   UNL     1      -1.632  11.660  18.197  0.00  0.00    +0.000 A 
ATOM      5  C   UNL     1      -1.110  10.847  19.202  0.00  0.00    +0.000 A 
ATOM      6  C   UNL     1       0.119  11.161  19.849  0.00  0.00    +0.000 A 
ENDROOT
BRANCH   6   7
ATOM      7  C   UNL     1       0.665  10.015  20.656  0.00  0.00    +0.000 C 
ATOM      8  O   UNL     1       0.424  10.090  21.872  0.00  0.00    +0.000 OA
ATOM      9  N   UNL     1       1.361   8.919  20.182  0.00  0.00    +0.000 N 
ATOM     10  C   UNL     1       1.541   7.817  21.117  0.00  0.00    +0.000 C 
ATOM     11  C   UNL     1       1.838   6.664  20.224  0.00  0.00    +0.000 A 
ATOM     12  C   UNL     1       1.552   5.327  20.397  0.00  0.00    +0.000 A 
ATOM     13  C   UNL     1       1.976   4.436  19.416  0.00  0.00    +0.000 A 
ATOM     14  C   UNL     1       2.753   4.875  18.317  0.00  0.00    +0.000 A 
ATOM     15  C   UNL     1       2.916   6.257  18.098  0.00  0.00    +0.000 A 
ATOM     16  C   UNL     1       2.375   7.134  19.026  0.00  0.00    +0.000 A 
ATOM     17  C   UNL     1       1.916   8.566  18.870  0.00  0.00    +0.000 C 
BRANCH  14  18
ATOM     18  C   UNL     1       3.381   3.854  17.402  0.00  0.00    +0.000 C 
ATOM     19  F   UNL     1       4.113   2.910  18.062  0.00  0.00    +0.000 F 
ATOM     20  F   UNL     1       2.466   3.161  16.669  0.00  0.00    +0.000 F 
ATOM     21  F   UNL     1       4.233   4.417  16.504  0.00  0.00    +0.000 F 
ENDBRANCH  14  18
ENDBRANCH   6   7
BRANCH   4  22
ATOM     22  S   UNL     1      -3.093  11.168  17.323  0.00  0.00    +0.000 S 
ATOM     23  C   UNL     1      -3.328   9.459  17.707  0.00  0.00    +0.000 C 
ATOM     24  O   UNL     1      -4.195  11.916  17.877  0.00  0.00    +0.000 OA
ATOM     25  O   UNL     1      -2.789  11.233  15.898  0.00  0.00    +0.000 OA
ENDBRANCH   4  22
BRANCH   1  26
ATOM     26  O   UNL     1       2.000  12.634  20.033  0.00  0.00    +0.000 OA
BRANCH  26  28
ATOM     27  C   UNL     1       3.287  14.273  21.240  0.00  0.00    +0.000 C 
ATOM     28  C   UNL     1       2.511  13.988  19.949  0.00  0.00    +0.000 C 
BRANCH  28  29
ATOM     29  C   UNL     1       3.422  14.204  18.729  0.00  0.00    +0.000 C 
ATOM     30  F   UNL     1       2.923  15.103  17.853  0.00  0.00    +0.000 F 
ATOM     31  F   UNL     1       4.659  14.622  19.076  0.00  0.00    +0.000 F 
ATOM     32  F   UNL     1       3.572  13.035  18.058  0.00  0.00    +0.000 F 
ENDBRANCH  28  29
ENDBRANCH  26  28
ENDBRANCH   1  26
TORSDOF 6
ENDMDL
MODEL 7
REMARK VINA RESULT:      -8.0      4.166      8.384
REMARK  Name = 
REMARK  8 active torsions:
REMARK  status: ('A' for Active; 'I' for Inactive)
REMARK    1  A    between atoms: C_1  and  C_2
REMARK    2  A    between atoms: C_2  and  O_3
REMARK    3  A    between atoms: C_2  and  C_29
REMARK    4  A    between atoms: O_3  and  C_4
REMARK    5  A    between atoms: C_7  and  S_8
REMARK    6  A    between atoms: S_8  and  C_9
REMARK    7  A    between atoms: C_13  and  C_14
REMARK    8  A    between atoms: C_21  and  C_22
REMARK                            x       y       z     vdW  Elec       q    Type
REMARK                         _______ _______ _______ _____ _____    ______ ____
ROOT
ATOM      1  C   UNL     1       4.781   5.603  18.208  0.00  0.00    +0.000 A 
ATOM      2  C   UNL     1       5.026   4.354  18.818  0.00  0.00    +0.000 A 
ATOM      3  C   UNL     1       4.002   3.600  19.395  0.00  0.00    +0.000 A 
ATOM      4  C   UNL     1       2.702   4.079  19.360  0.00  0.00    +0.000 A 
ATOM      5  C   UNL     1       2.426   5.293  18.733  0.00  0.00    +0.000 A 
ATOM      6  C   UNL     1       3.463   6.093  18.172  0.00  0.00    +0.000 A 
ENDROOT
BRANCH   6   7
ATOM      7  C   UNL     1       3.011   7.488  17.839  0.00  0.00    +0.000 C 
ATOM      8  O   UNL     1       3.244   7.831  16.668  0.00  0.00    +0.000 OA
ATOM      9  N   UNL     1       2.365   8.377  18.676  0.00  0.00    +0.000 N 
ATOM     10  C   UNL     1       1.788   9.555  18.042  0.00  0.00    +0.000 C 
ATOM     11  C   UNL     1       0.784  10.015  19.040  0.00  0.00    +0.000 A 
ATOM     12  C   UNL     1      -0.415  10.665  18.839  0.00  0.00    +0.000 A 
ATOM     13  C   UNL     1      -1.161  11.021  19.958  0.00  0.00    +0.000 A 
ATOM     14  C   UNL     1      -0.665  10.802  21.266  0.00  0.00    +0.000 A 
ATOM     15  C   UNL     1       0.494  10.023  21.440  0.00  0.00    +0.000 A 
ATOM     16  C   UNL     1       1.155   9.570  20.308  0.00  0.00    +0.000 A 
ATOM     17  C   UNL     1       2.046   8.365  20.109  0.00  0.00    +0.000 C 
BRANCH  14  18
ATOM     18  C   UNL     1      -1.394  11.403  22.442  0.00  0.00    +0.000 C 
ATOM     19  F   UNL     1      -0.725  12.440  23.024  0.00  0.00    +0.000 F 
ATOM     20  F   UNL     1      -2.619  11.898  22.113  0.00  0.00    +0.000 F 
ATOM     21  F   UNL     1      -1.608  10.499  23.436  0.00  0.00    +0.000 F 
ENDBRANCH  14  18
ENDBRANCH   6   7
BRANCH   4  22
ATOM     22  S   UNL     1       1.404   3.177  20.162  0.00  0.00    +0.000 S 
ATOM     23  C   UNL     1       0.726   2.113  18.925  0.00  0.00    +0.000 C 
ATOM     24  O   UNL     1       2.017   2.361  21.180  0.00  0.00    +0.000 OA
ATOM     25  O   UNL     1       0.357   4.135  20.503  0.00  0.00    +0.000 OA
ENDBRANCH   4  22
BRANCH   1  26
ATOM     26  O   UNL     1       5.806   6.387  17.761  0.00  0.00    +0.000 OA
BRANCH  26  28
ATOM     27  C   UNL     1       7.415   4.665  17.269  0.00  0.00    +0.000 C 
ATOM     28  C   UNL     1       6.670   5.884  16.713  0.00  0.00    +0.000 C 
BRANCH  28  29
ATOM     29  C   UNL     1       5.896   5.492  15.442  0.00  0.00    +0.000 C 
ATOM     30  F   UNL     1       6.704   5.273  14.382  0.00  0.00    +0.000 F 
ATOM     31  F   UNL     1       5.147   4.381  15.615  0.00  0.00    +0.000 F 
ATOM     32  F   UNL     1       5.048   6.493  15.097  0.00  0.00    +0.000 F 
ENDBRANCH  28  29
ENDBRANCH  26  28
ENDBRANCH   1  26
TORSDOF 6
ENDMDL
MODEL 8
REMARK VINA RESULT:      -8.0      0.669      1.097
REMARK  Name = 
REMARK  8 active torsions:
REMARK  status: ('A' for Active; 'I' for Inactive)
REMARK    1  A    between atoms: C_1  and  C_2
REMARK    2  A    between atoms: C_2  and  O_3
REMARK    3  A    between atoms: C_2  and  C_29
REMARK    4  A    between atoms: O_3  and  C_4
REMARK    5  A    between atoms: C_7  and  S_8
REMARK    6  A    between atoms: S_8  and  C_9
REMARK    7  A    between atoms: C_13  and  C_14
REMARK    8  A    between atoms: C_21  and  C_22
REMARK                            x       y       z     vdW  Elec       q    Type
REMARK                         _______ _______ _______ _____ _____    ______ ____
ROOT
ATOM      1  C   UNL     1       0.552  12.308  19.461  0.00  0.00    +0.000 A 
ATOM      2  C   UNL     1      -0.089  13.072  18.463  0.00  0.00    +0.000 A 
ATOM      3  C   UNL     1      -1.241  12.622  17.813  0.00  0.00    +0.000 A 
ATOM      4  C   UNL     1      -1.783  11.395  18.163  0.00  0.00    +0.000 A 
ATOM      5  C   UNL     1      -1.190  10.636  19.170  0.00  0.00    +0.000 A 
ATOM      6  C   UNL     1       0.005  11.063  19.817  0.00  0.00    +0.000 A 
ENDROOT
BRANCH   6   7
ATOM      7  C   UNL     1       0.653   9.974  20.628  0.00  0.00    +0.000 C 
ATOM      8  O   UNL     1       0.485  10.086  21.854  0.00  0.00    +0.000 OA
ATOM      9  N   UNL     1       1.368   8.892  20.151  0.00  0.00    +0.000 N 
ATOM     10  C   UNL     1       1.655   7.836  21.112  0.00  0.00    +0.000 C 
ATOM     11  C   UNL     1       1.949   6.664  20.244  0.00  0.00    +0.000 A 
ATOM     12  C   UNL     1       1.736   5.323  20.483  0.00  0.00    +0.000 A 
ATOM     13  C   UNL     1       2.138   4.414  19.509  0.00  0.00    +0.000 A 
ATOM     14  C   UNL     1       2.824   4.843  18.348  0.00  0.00    +0.000 A 
ATOM     15  C   UNL     1       2.909   6.220  18.069  0.00  0.00    +0.000 A 
ATOM     16  C   UNL     1       2.388   7.109  18.998  0.00  0.00    +0.000 A 
ATOM     17  C   UNL     1       1.855   8.513  18.819  0.00  0.00    +0.000 C 
BRANCH  14  18
ATOM     18  C   UNL     1       3.440   3.816  17.432  0.00  0.00    +0.000 C 
ATOM     19  F   UNL     1       4.227   4.358  16.458  0.00  0.00    +0.000 F 
ATOM     20  F   UNL     1       4.233   2.924  18.088  0.00  0.00    +0.000 F 
ATOM     21  F   UNL     1       2.504   3.076  16.778  0.00  0.00    +0.000 F 
ENDBRANCH  14  18
ENDBRANCH   6   7
BRANCH   4  22
ATOM     22  S   UNL     1      -3.193  10.769  17.290  0.00  0.00    +0.000 S 
ATOM     23  C   UNL     1      -2.739  10.773  15.583  0.00  0.00    +0.000 C 
ATOM     24  O   UNL     1      -3.383   9.402  17.709  0.00  0.00    +0.000 OA
ATOM     25  O   UNL     1      -4.263  11.750  17.436  0.00  0.00    +0.000 OA
ENDBRANCH   4  22
BRANCH   1  26
ATOM     26  O   UNL     1       1.745  12.702  19.997  0.00  0.00    +0.000 OA
BRANCH  26  28
ATOM     27  C   UNL     1       1.291  14.352  21.691  0.00  0.00    +0.000 C 
ATOM     28  C   UNL     1       1.941  14.099  20.326  0.00  0.00    +0.000 C 
BRANCH  28  29
ATOM     29  C   UNL     1       3.427  14.496  20.370  0.00  0.00    +0.000 C 
ATOM     30  F   UNL     1       4.084  14.199  19.228  0.00  0.00    +0.000 F 
ATOM     31  F   UNL     1       3.603  15.814  20.607  0.00  0.00    +0.000 F 
ATOM     32  F   UNL     1       4.049  13.826  21.373  0.00  0.00    +0.000 F 
ENDBRANCH  28  29
ENDBRANCH  26  28
ENDBRANCH   1  26
TORSDOF 6
ENDMDL
MODEL 9
REMARK VINA RESULT:      -7.9      4.295      8.479
REMARK  Name = 
REMARK  8 active torsions:
REMARK  status: ('A' for Active; 'I' for Inactive)
REMARK    1  A    between atoms: C_1  and  C_2
REMARK    2  A    between atoms: C_2  and  O_3
REMARK    3  A    between atoms: C_2  and  C_29
REMARK    4  A    between atoms: O_3  and  C_4
REMARK    5  A    between atoms: C_7  and  S_8
REMARK    6  A    between atoms: S_8  and  C_9
REMARK    7  A    between atoms: C_13  and  C_14
REMARK    8  A    between atoms: C_21  and  C_22
REMARK                            x       y       z     vdW  Elec       q    Type
REMARK                         _______ _______ _______ _____ _____    ______ ____
ROOT
ATOM      1  C   UNL     1       4.871   5.311  18.632  0.00  0.00    +0.000 A 
ATOM      2  C   UNL     1       5.031   4.059  19.263  0.00  0.00    +0.000 A 
ATOM      3  C   UNL     1       3.938   3.277  19.643  0.00  0.00    +0.000 A 
ATOM      4  C   UNL     1       2.654   3.732  19.384  0.00  0.00    +0.000 A 
ATOM      5  C   UNL     1       2.468   4.949  18.730  0.00  0.00    +0.000 A 
ATOM      6  C   UNL     1       3.570   5.775  18.369  0.00  0.00    +0.000 A 
ENDROOT
BRANCH   6   7
ATOM      7  C   UNL     1       3.155   7.166  17.975  0.00  0.00    +0.000 C 
ATOM      8  O   UNL     1       3.425   7.463  16.799  0.00  0.00    +0.000 OA
ATOM      9  N   UNL     1       2.504   8.097  18.762  0.00  0.00    +0.000 N 
ATOM     10  C   UNL     1       1.967   9.262  18.073  0.00  0.00    +0.000 C 
ATOM     11  C   UNL     1       0.947   9.775  19.026  0.00  0.00    +0.000 A 
ATOM     12  C   UNL     1      -0.234  10.440  18.770  0.00  0.00    +0.000 A 
ATOM     13  C   UNL     1      -1.002  10.849  19.855  0.00  0.00    +0.000 A 
ATOM     14  C   UNL     1      -0.545  10.668  21.183  0.00  0.00    +0.000 A 
ATOM     15  C   UNL     1       0.593   9.874  21.416  0.00  0.00    +0.000 A 
ATOM     16  C   UNL     1       1.275   9.369  20.318  0.00  0.00    +0.000 A 
ATOM     17  C   UNL     1       2.147   8.140  20.185  0.00  0.00    +0.000 C 
BRANCH  14  18
ATOM     18  C   UNL     1      -1.293  11.323  22.317  0.00  0.00    +0.000 C 
ATOM     19  F   UNL     1      -0.648  12.406  22.840  0.00  0.00    +0.000 F 
ATOM     20  F   UNL     1      -2.526  11.774  21.952  0.00  0.00    +0.000 F 
ATOM     21  F   UNL     1      -1.496  10.477  23.362  0.00  0.00    +0.000 F 
ENDBRANCH  14  18
ENDBRANCH   6   7
BRANCH   4  22
ATOM     22  S   UNL     1       1.255   2.795  19.936  0.00  0.00    +0.000 S 
ATOM     23  C   UNL     1       1.502   2.540  21.666  0.00  0.00    +0.000 C 
ATOM     24  O   UNL     1       0.088   3.624  19.758  0.00  0.00    +0.000 OA
ATOM     25  O   UNL     1       1.339   1.480  19.307  0.00  0.00    +0.000 OA
ENDBRANCH   4  22
BRANCH   1  26
ATOM     26  O   UNL     1       5.943   6.120  18.381  0.00  0.00    +0.000 OA
BRANCH  26  28
ATOM     27  C   UNL     1       7.534   7.304  17.018  0.00  0.00    +0.000 C 
ATOM     28  C   UNL     1       6.415   6.257  17.018  0.00  0.00    +0.000 C 
BRANCH  28  29
ATOM     29  C   UNL     1       6.936   4.932  16.434  0.00  0.00    +0.000 C 
ATOM     30  F   UNL     1       5.948   4.046  16.180  0.00  0.00    +0.000 F 
ATOM     31  F   UNL     1       7.624   5.110  15.286  0.00  0.00    +0.000 F 
ATOM     32  F   UNL     1       7.781   4.344  17.316  0.00  0.00    +0.000 F 
ENDBRANCH  28  29
ENDBRANCH  26  28
ENDBRANCH   1  26
TORSDOF 6
ENDMDL
