MODEL 1
REMARK VINA RESULT:      -8.1      0.000      0.000
REMARK  Name = 
REMARK  4 active torsions:
REMARK  status: ('A' for Active; 'I' for Inactive)
REMARK    1  A    between atoms: C_2  and  C_18
REMARK    2  A    between atoms: N_3  and  C_4
REMARK    3  A    between atoms: C_7  and  N_8
REMARK    4  A    between atoms: C_9  and  C_11
REMARK                            x       y       z     vdW  Elec       q    Type
REMARK                         _______ _______ _______ _____ _____    ______ ____
ROOT
ATOM      1  C   UNL     1       1.377   8.423  20.696  0.00  0.00    +0.000 A 
ATOM      2  C   UNL     1       0.573   9.255  19.919  0.00  0.00    +0.000 A 
ATOM      3  C   UNL     1      -0.287  10.180  20.506  0.00  0.00    +0.000 A 
ATOM      4  C   UNL     1      -0.387  10.285  21.887  0.00  0.00    +0.000 A 
ATOM      5  C   UNL     1       0.415   9.456  22.679  0.00  0.00    +0.000 A 
ATOM      6  C   UNL     1       1.281   8.520  22.086  0.00  0.00    +0.000 A 
ENDROOT
BRANCH   1   9
ATOM      7  O   UNL     1       1.289   5.491  20.630  0.00  0.00    +0.000 OA
ATOM      8  C   UNL     1       2.156   6.164  20.082  0.00  0.00    +0.000 C 
ATOM      9  N   UNL     1       2.322   7.533  20.134  0.00  0.00    +0.000 N 
ATOM     10  H   UNL     1       3.069   7.941  19.588  0.00  0.00    +0.000 HD
BRANCH   8  11
ATOM     11  C   UNL     1       3.060   5.426  19.186  0.00  0.00    +0.000 A 
ATOM     12  C   UNL     1       2.671   4.935  17.938  0.00  0.00    +0.000 A 
ATOM     13  C   UNL     1       3.662   4.485  17.056  0.00  0.00    +0.000 A 
ATOM     14  C   UNL     1       5.011   4.531  17.425  0.00  0.00    +0.000 A 
ATOM     15  C   UNL     1       5.362   4.934  18.712  0.00  0.00    +0.000 A 
ATOM     16  C   UNL     1       4.398   5.383  19.591  0.00  0.00    +0.000 A 
ATOM     17  O   UNL     1       6.654   4.944  19.161  0.00  0.00    +0.000 OA
ATOM     18  C   UNL     1       7.508   5.311  18.084  0.00  0.00    +0.000 C 
ATOM     19  C   UNL     1       7.298   4.414  16.869  0.00  0.00    +0.000 C 
ATOM     20  O   UNL     1       5.934   4.229  16.464  0.00  0.00    +0.000 OA
ENDBRANCH   8  11
ENDBRANCH   1   9
BRANCH   4  21
ATOM     21  N   UNL     1      -1.262  11.192  22.515  0.00  0.00    +0.000 N 
ATOM     22  C   UNL     1      -1.033  12.544  22.728  0.00  0.00    +0.000 C 
ATOM     23  O   UNL     1      -0.031  13.162  22.381  0.00  0.00    +0.000 OA
ATOM     24  H   UNL     1      -2.182  10.859  22.780  0.00  0.00    +0.000 HD
BRANCH  22  25
ATOM     25  C   UNL     1      -2.131  13.223  23.386  0.00  0.00    +0.000 A 
ATOM     26  C   UNL     1      -2.163  14.451  24.018  0.00  0.00    +0.000 A 
ATOM     27  C   UNL     1      -3.484  14.634  24.480  0.00  0.00    +0.000 A 
ATOM     28  C   UNL     1      -4.179  13.507  24.106  0.00  0.00    +0.000 A 
ATOM     29  O   UNL     1      -3.371  12.643  23.436  0.00  0.00    +0.000 OA
ENDBRANCH  22  25
ENDBRANCH   4  21
TORSDOF 4
ENDMDL
MODEL 2
REMARK VINA RESULT:      -8.0      0.541      1.192
REMARK  Name = 
REMARK  4 active torsions:
REMARK  status: ('A' for Active; 'I' for Inactive)
REMARK    1  A    between atoms: C_2  and  C_18
REMARK    2  A    between atoms: N_3  and  C_4
REMARK    3  A    between atoms: C_7  and  N_8
REMARK    4  A    between atoms: C_9  and  C_11
REMARK                            x       y       z     vdW  Elec       q    Type
REMARK                         _______ _______ _______ _____ _____    ______ ____
ROOT
ATOM      1  C   UNL     1       1.406   8.550  20.816  0.00  0.00    +0.000 A 
ATOM      2  C   UNL     1       1.210   8.623  22.194  0.00  0.00    +0.000 A 
ATOM      3  C   UNL     1       0.249   9.470  22.741  0.00  0.00    +0.000 A 
ATOM      4  C   UNL     1      -0.529  10.286  21.930  0.00  0.00    +0.000 A 
ATOM      5  C   UNL     1      -0.342  10.221  20.545  0.00  0.00    +0.000 A 
ATOM      6  C   UNL     1       0.631   9.369  19.992  0.00  0.00    +0.000 A 
ENDROOT
BRANCH   1   9
ATOM      7  O   UNL     1       1.244   5.621  20.729  0.00  0.00    +0.000 OA
ATOM      8  C   UNL     1       2.112   6.277  20.163  0.00  0.00    +0.000 C 
ATOM      9  N   UNL     1       2.314   7.641  20.222  0.00  0.00    +0.000 N 
ATOM     10  H   UNL     1       3.056   8.036  19.660  0.00  0.00    +0.000 HD
BRANCH   8  11
ATOM     11  C   UNL     1       2.974   5.525  19.237  0.00  0.00    +0.000 A 
ATOM     12  C   UNL     1       2.547   5.077  17.985  0.00  0.00    +0.000 A 
ATOM     13  C   UNL     1       3.506   4.610  17.078  0.00  0.00    +0.000 A 
ATOM     14  C   UNL     1       4.861   4.596  17.426  0.00  0.00    +0.000 A 
ATOM     15  C   UNL     1       5.247   4.957  18.716  0.00  0.00    +0.000 A 
ATOM     16  C   UNL     1       4.314   5.422  19.620  0.00  0.00    +0.000 A 
ATOM     17  O   UNL     1       6.545   4.907  19.144  0.00  0.00    +0.000 OA
ATOM     18  C   UNL     1       7.396   5.265  18.061  0.00  0.00    +0.000 C 
ATOM     19  C   UNL     1       7.133   4.403  16.831  0.00  0.00    +0.000 C 
ATOM     20  O   UNL     1       5.757   4.280  16.444  0.00  0.00    +0.000 OA
ENDBRANCH   8  11
ENDBRANCH   1   9
BRANCH   4  21
ATOM     21  N   UNL     1      -1.493  11.170  22.450  0.00  0.00    +0.000 N 
ATOM     22  C   UNL     1      -1.259  12.450  22.933  0.00  0.00    +0.000 C 
ATOM     23  O   UNL     1      -0.171  13.016  22.962  0.00  0.00    +0.000 OA
ATOM     24  H   UNL     1      -2.466  10.890  22.411  0.00  0.00    +0.000 HD
BRANCH  22  25
ATOM     25  C   UNL     1      -2.457  13.127  23.387  0.00  0.00    +0.000 A 
ATOM     26  C   UNL     1      -3.772  12.702  23.379  0.00  0.00    +0.000 A 
ATOM     27  C   UNL     1      -4.538  13.745  23.942  0.00  0.00    +0.000 A 
ATOM     28  C   UNL     1      -3.649  14.746  24.256  0.00  0.00    +0.000 A 
ATOM     29  O   UNL     1      -2.380  14.382  23.929  0.00  0.00    +0.000 OA
ENDBRANCH  22  25
ENDBRANCH   4  21
TORSDOF 4
ENDMDL
MODEL 3
REMARK VINA RESULT:      -7.7      1.385     11.155
REMARK  Name = 
REMARK  4 active torsions:
REMARK  status: ('A' for Active; 'I' for Inactive)
REMARK    1  A    between atoms: C_2  and  C_18
REMARK    2  A    between atoms: N_3  and  C_4
REMARK    3  A    between atoms: C_7  and  N_8
REMARK    4  A    between atoms: C_9  and  C_11
REMARK                            x       y       z     vdW  Elec       q    Type
REMARK                         _______ _______ _______ _____ _____    ______ ____
ROOT
ATOM      1  C   UNL     1      -0.524  10.192  22.216  0.00  0.00    +0.000 A 
ATOM      2  C   UNL     1       0.440   9.438  22.881  0.00  0.00    +0.000 A 
ATOM      3  C   UNL     1       1.347   8.646  22.181  0.00  0.00    +0.000 A 
ATOM      4  C   UNL     1       1.300   8.563  20.795  0.00  0.00    +0.000 A 
ATOM      5  C   UNL     1       0.337   9.316  20.114  0.00  0.00    +0.000 A 
ATOM      6  C   UNL     1      -0.580  10.114  20.822  0.00  0.00    +0.000 A 
ENDROOT
BRANCH   1   9
ATOM      7  O   UNL     1      -0.295  13.102  22.522  0.00  0.00    +0.000 OA
ATOM      8  C   UNL     1      -1.253  12.444  22.913  0.00  0.00    +0.000 C 
ATOM      9  N   UNL     1      -1.404  11.072  22.889  0.00  0.00    +0.000 N 
ATOM     10  H   UNL     1      -2.279  10.685  23.216  0.00  0.00    +0.000 HD
BRANCH   8  11
ATOM     11  C   UNL     1      -2.415  13.224  23.369  0.00  0.00    +0.000 A 
ATOM     12  C   UNL     1      -2.504  14.613  23.245  0.00  0.00    +0.000 A 
ATOM     13  C   UNL     1      -3.743  15.227  23.461  0.00  0.00    +0.000 A 
ATOM     14  C   UNL     1      -4.865  14.459  23.794  0.00  0.00    +0.000 A 
ATOM     15  C   UNL     1      -4.726  13.089  24.006  0.00  0.00    +0.000 A 
ATOM     16  C   UNL     1      -3.512  12.469  23.794  0.00  0.00    +0.000 A 
ATOM     17  O   UNL     1      -5.764  12.288  24.394  0.00  0.00    +0.000 OA
ATOM     18  C   UNL     1      -6.957  12.756  23.773  0.00  0.00    +0.000 C 
ATOM     19  C   UNL     1      -7.196  14.235  24.059  0.00  0.00    +0.000 C 
ATOM     20  O   UNL     1      -6.072  15.099  23.834  0.00  0.00    +0.000 OA
ENDBRANCH   8  11
ENDBRANCH   1   9
BRANCH   4  21
ATOM     21  N   UNL     1       2.184   7.755  20.056  0.00  0.00    +0.000 N 
ATOM     22  C   UNL     1       2.201   6.367  20.028  0.00  0.00    +0.000 C 
ATOM     23  O   UNL     1       1.428   5.631  20.633  0.00  0.00    +0.000 OA
ATOM     24  H   UNL     1       2.832   8.211  19.425  0.00  0.00    +0.000 HD
BRANCH  22  25
ATOM     25  C   UNL     1       3.219   5.816  19.157  0.00  0.00    +0.000 A 
ATOM     26  C   UNL     1       3.144   5.446  17.828  0.00  0.00    +0.000 A 
ATOM     27  C   UNL     1       4.424   4.978  17.464  0.00  0.00    +0.000 A 
ATOM     28  C   UNL     1       5.205   5.085  18.592  0.00  0.00    +0.000 A 
ATOM     29  O   UNL     1       4.487   5.598  19.627  0.00  0.00    +0.000 OA
ENDBRANCH  22  25
ENDBRANCH   4  21
TORSDOF 4
ENDMDL
MODEL 4
REMARK VINA RESULT:      -7.7      1.850     10.826
REMARK  Name = 
REMARK  4 active torsions:
REMARK  status: ('A' for Active; 'I' for Inactive)
REMARK    1  A    between atoms: C_2  and  C_18
REMARK    2  A    between atoms: N_3  and  C_4
REMARK    3  A    between atoms: C_7  and  N_8
REMARK    4  A    between atoms: C_9  and  C_11
REMARK                            x       y       z     vdW  Elec       q    Type
REMARK                         _______ _______ _______ _____ _____    ______ ____
ROOT
ATOM      1  C   UNL     1       0.478   9.476  19.776  0.00  0.00    +0.000 A 
ATOM      2  C   UNL     1       0.821   9.695  18.443  0.00  0.00    +0.000 A 
ATOM      3  C   UNL     1       1.796   8.925  17.813  0.00  0.00    +0.000 A 
ATOM      4  C   UNL     1       2.476   7.930  18.503  0.00  0.00    +0.000 A 
ATOM      5  C   UNL     1       2.140   7.699  19.842  0.00  0.00    +0.000 A 
ATOM      6  C   UNL     1       1.159   8.478  20.479  0.00  0.00    +0.000 A 
ENDROOT
BRANCH   1   9
ATOM      7  O   UNL     1       0.690  11.803  21.551  0.00  0.00    +0.000 OA
ATOM      8  C   UNL     1      -0.373  11.318  21.180  0.00  0.00    +0.000 C 
ATOM      9  N   UNL     1      -0.565  10.181  20.422  0.00  0.00    +0.000 N 
ATOM     10  H   UNL     1      -1.512   9.935  20.165  0.00  0.00    +0.000 HD
BRANCH   8  11
ATOM     11  C   UNL     1      -1.575  12.102  21.503  0.00  0.00    +0.000 A 
ATOM     12  C   UNL     1      -2.389  12.694  20.533  0.00  0.00    +0.000 A 
ATOM     13  C   UNL     1      -3.641  13.188  20.919  0.00  0.00    +0.000 A 
ATOM     14  C   UNL     1      -4.061  13.087  22.250  0.00  0.00    +0.000 A 
ATOM     15  C   UNL     1      -3.190  12.582  23.214  0.00  0.00    +0.000 A 
ATOM     16  C   UNL     1      -1.955  12.088  22.848  0.00  0.00    +0.000 A 
ATOM     17  O   UNL     1      -3.510  12.512  24.541  0.00  0.00    +0.000 OA
ATOM     18  C   UNL     1      -4.897  12.210  24.660  0.00  0.00    +0.000 C 
ATOM     19  C   UNL     1      -5.757  13.200  23.883  0.00  0.00    +0.000 C 
ATOM     20  O   UNL     1      -5.351  13.442  22.528  0.00  0.00    +0.000 OA
ENDBRANCH   8  11
ENDBRANCH   1   9
BRANCH   4  21
ATOM     21  N   UNL     1       3.483   7.149  17.906  0.00  0.00    +0.000 N 
ATOM     22  C   UNL     1       3.405   5.797  17.603  0.00  0.00    +0.000 C 
ATOM     23  O   UNL     1       2.431   5.077  17.794  0.00  0.00    +0.000 OA
ATOM     24  H   UNL     1       4.327   7.617  17.597  0.00  0.00    +0.000 HD
BRANCH  22  25
ATOM     25  C   UNL     1       4.601   5.273  16.974  0.00  0.00    +0.000 A 
ATOM     26  C   UNL     1       5.817   5.884  16.735  0.00  0.00    +0.000 A 
ATOM     27  C   UNL     1       6.635   4.925  16.102  0.00  0.00    +0.000 A 
ATOM     28  C   UNL     1       5.870   3.787  15.986  0.00  0.00    +0.000 A 
ATOM     29  O   UNL     1       4.633   3.983  16.516  0.00  0.00    +0.000 OA
ENDBRANCH  22  25
ENDBRANCH   4  21
TORSDOF 4
ENDMDL
MODEL 5
REMARK VINA RESULT:      -7.7      1.490     11.129
REMARK  Name = 
REMARK  4 active torsions:
REMARK  status: ('A' for Active; 'I' for Inactive)
REMARK    1  A    between atoms: C_2  and  C_18
REMARK    2  A    between atoms: N_3  and  C_4
REMARK    3  A    between atoms: C_7  and  N_8
REMARK    4  A    between atoms: C_9  and  C_11
REMARK                            x       y       z     vdW  Elec       q    Type
REMARK                         _______ _______ _______ _____ _____    ______ ____
ROOT
ATOM      1  C   UNL     1      -0.538  10.418  21.907  0.00  0.00    +0.000 A 
ATOM      2  C   UNL     1      -0.412  10.518  20.523  0.00  0.00    +0.000 A 
ATOM      3  C   UNL     1       0.464   9.697  19.817  0.00  0.00    +0.000 A 
ATOM      4  C   UNL     1       1.259   8.768  20.475  0.00  0.00    +0.000 A 
ATOM      5  C   UNL     1       1.142   8.657  21.865  0.00  0.00    +0.000 A 
ATOM      6  C   UNL     1       0.260   9.488  22.578  0.00  0.00    +0.000 A 
ENDROOT
BRANCH   1   9
ATOM      7  O   UNL     1      -0.252  13.149  22.943  0.00  0.00    +0.000 OA
ATOM      8  C   UNL     1      -1.282  12.488  23.025  0.00  0.00    +0.000 C 
ATOM      9  N   UNL     1      -1.477  11.176  22.645  0.00  0.00    +0.000 N 
ATOM     10  H   UNL     1      -2.406  10.786  22.742  0.00  0.00    +0.000 HD
BRANCH   8  11
ATOM     11  C   UNL     1      -2.470  13.221  23.491  0.00  0.00    +0.000 A 
ATOM     12  C   UNL     1      -2.580  14.612  23.447  0.00  0.00    +0.000 A 
ATOM     13  C   UNL     1      -3.836  15.192  23.662  0.00  0.00    +0.000 A 
ATOM     14  C   UNL     1      -4.953  14.388  23.915  0.00  0.00    +0.000 A 
ATOM     15  C   UNL     1      -4.796  13.010  24.050  0.00  0.00    +0.000 A 
ATOM     16  C   UNL     1      -3.565  12.423  23.838  0.00  0.00    +0.000 A 
ATOM     17  O   UNL     1      -5.830  12.171  24.358  0.00  0.00    +0.000 OA
ATOM     18  C   UNL     1      -7.013  12.656  23.731  0.00  0.00    +0.000 C 
ATOM     19  C   UNL     1      -7.286  14.111  24.096  0.00  0.00    +0.000 C 
ATOM     20  O   UNL     1      -6.172  15.004  23.957  0.00  0.00    +0.000 OA
ENDBRANCH   8  11
ENDBRANCH   1   9
BRANCH   4  21
ATOM     21  N   UNL     1       2.172   7.939  19.797  0.00  0.00    +0.000 N 
ATOM     22  C   UNL     1       2.288   6.562  19.928  0.00  0.00    +0.000 C 
ATOM     23  O   UNL     1       1.592   5.852  20.647  0.00  0.00    +0.000 OA
ATOM     24  H   UNL     1       2.762   8.360  19.089  0.00  0.00    +0.000 HD
BRANCH  22  25
ATOM     25  C   UNL     1       3.312   5.983  19.083  0.00  0.00    +0.000 A 
ATOM     26  C   UNL     1       3.841   6.440  17.891  0.00  0.00    +0.000 A 
ATOM     27  C   UNL     1       4.814   5.499  17.493  0.00  0.00    +0.000 A 
ATOM     28  C   UNL     1       4.819   4.521  18.460  0.00  0.00    +0.000 A 
ATOM     29  O   UNL     1       3.915   4.805  19.436  0.00  0.00    +0.000 OA
ENDBRANCH  22  25
ENDBRANCH   4  21
TORSDOF 4
ENDMDL
MODEL 6
REMARK VINA RESULT:      -7.6      1.125      1.197
REMARK  Name = 
REMARK  4 active torsions:
REMARK  status: ('A' for Active; 'I' for Inactive)
REMARK    1  A    between atoms: C_2  and  C_18
REMARK    2  A    between atoms: N_3  and  C_4
REMARK    3  A    between atoms: C_7  and  N_8
REMARK    4  A    between atoms: C_9  and  C_11
REMARK                            x       y       z     vdW  Elec       q    Type
REMARK                         _______ _______ _______ _____ _____    ______ ____
ROOT
ATOM      1  C   UNL     1       1.347   8.460  20.690  0.00  0.00    +0.000 A 
ATOM      2  C   UNL     1       0.542   9.306  19.930  0.00  0.00    +0.000 A 
ATOM      3  C   UNL     1      -0.297  10.239  20.534  0.00  0.00    +0.000 A 
ATOM      4  C   UNL     1      -0.375  10.339  21.917  0.00  0.00    +0.000 A 
ATOM      5  C   UNL     1       0.429   9.496  22.693  0.00  0.00    +0.000 A 
ATOM      6  C   UNL     1       1.273   8.551  22.083  0.00  0.00    +0.000 A 
ENDROOT
BRANCH   1   9
ATOM      7  O   UNL     1       1.261   5.527  20.682  0.00  0.00    +0.000 OA
ATOM      8  C   UNL     1       2.105   6.190  20.089  0.00  0.00    +0.000 C 
ATOM      9  N   UNL     1       2.271   7.560  20.110  0.00  0.00    +0.000 N 
ATOM     10  H   UNL     1       2.998   7.959  19.530  0.00  0.00    +0.000 HD
BRANCH   8  11
ATOM     11  C   UNL     1       2.977   5.437  19.174  0.00  0.00    +0.000 A 
ATOM     12  C   UNL     1       2.810   4.077  18.900  0.00  0.00    +0.000 A 
ATOM     13  C   UNL     1       3.514   3.518  17.827  0.00  0.00    +0.000 A 
ATOM     14  C   UNL     1       4.366   4.312  17.049  0.00  0.00    +0.000 A 
ATOM     15  C   UNL     1       4.588   5.641  17.405  0.00  0.00    +0.000 A 
ATOM     16  C   UNL     1       3.899   6.207  18.458  0.00  0.00    +0.000 A 
ATOM     17  O   UNL     1       5.453   6.456  16.730  0.00  0.00    +0.000 OA
ATOM     18  C   UNL     1       5.400   6.129  15.345  0.00  0.00    +0.000 C 
ATOM     19  C   UNL     1       5.659   4.645  15.108  0.00  0.00    +0.000 C 
ATOM     20  O   UNL     1       4.897   3.745  15.925  0.00  0.00    +0.000 OA
ENDBRANCH   8  11
ENDBRANCH   1   9
BRANCH   4  21
ATOM     21  N   UNL     1      -1.229  11.253  22.562  0.00  0.00    +0.000 N 
ATOM     22  C   UNL     1      -0.995  12.610  22.745  0.00  0.00    +0.000 C 
ATOM     23  O   UNL     1      -0.008  13.224  22.352  0.00  0.00    +0.000 OA
ATOM     24  H   UNL     1      -2.137  10.923  22.867  0.00  0.00    +0.000 HD
BRANCH  22  25
ATOM     25  C   UNL     1      -2.069  13.296  23.432  0.00  0.00    +0.000 A 
ATOM     26  C   UNL     1      -2.095  14.553  24.007  0.00  0.00    +0.000 A 
ATOM     27  C   UNL     1      -3.391  14.731  24.534  0.00  0.00    +0.000 A 
ATOM     28  C   UNL     1      -4.080  13.573  24.255  0.00  0.00    +0.000 A 
ATOM     29  O   UNL     1      -3.291  12.694  23.581  0.00  0.00    +0.000 OA
ENDBRANCH  22  25
ENDBRANCH   4  21
TORSDOF 4
ENDMDL
MODEL 7
REMARK VINA RESULT:      -7.6      1.694     10.899
REMARK  Name = 
REMARK  4 active torsions:
REMARK  status: ('A' for Active; 'I' for Inactive)
REMARK    1  A    between atoms: C_2  and  C_18
REMARK    2  A    between atoms: N_3  and  C_4
REMARK    3  A    between atoms: C_7  and  N_8
REMARK    4  A    between atoms: C_9  and  C_11
REMARK                            x       y       z     vdW  Elec       q    Type
REMARK                         _______ _______ _______ _____ _____    ______ ____
ROOT
ATOM      1  C   UNL     1       0.173   9.710  20.388  0.00  0.00    +0.000 A 
ATOM      2  C   UNL     1       0.832   8.645  20.998  0.00  0.00    +0.000 A 
ATOM      3  C   UNL     1       1.769   7.883  20.305  0.00  0.00    +0.000 A 
ATOM      4  C   UNL     1       2.058   8.147  18.972  0.00  0.00    +0.000 A 
ATOM      5  C   UNL     1       1.403   9.214  18.347  0.00  0.00    +0.000 A 
ATOM      6  C   UNL     1       0.454   9.981  19.046  0.00  0.00    +0.000 A 
ENDROOT
BRANCH   1   9
ATOM      7  O   UNL     1       0.166  10.379  23.245  0.00  0.00    +0.000 OA
ATOM      8  C   UNL     1      -0.597  10.874  22.423  0.00  0.00    +0.000 C 
ATOM      9  N   UNL     1      -0.721  10.556  21.085  0.00  0.00    +0.000 N 
ATOM     10  H   UNL     1      -1.376  11.090  20.529  0.00  0.00    +0.000 HD
BRANCH   8  11
ATOM     11  C   UNL     1      -1.402  12.007  22.906  0.00  0.00    +0.000 A 
ATOM     12  C   UNL     1      -1.043  13.343  22.707  0.00  0.00    +0.000 A 
ATOM     13  C   UNL     1      -1.994  14.338  22.965  0.00  0.00    +0.000 A 
ATOM     14  C   UNL     1      -3.275  13.993  23.413  0.00  0.00    +0.000 A 
ATOM     15  C   UNL     1      -3.573  12.661  23.696  0.00  0.00    +0.000 A 
ATOM     16  C   UNL     1      -2.647  11.670  23.443  0.00  0.00    +0.000 A 
ATOM     17  O   UNL     1      -4.781  12.260  24.195  0.00  0.00    +0.000 OA
ATOM     18  C   UNL     1      -5.802  13.073  23.625  0.00  0.00    +0.000 C 
ATOM     19  C   UNL     1      -5.523  14.557  23.838  0.00  0.00    +0.000 C 
ATOM     20  O   UNL     1      -4.200  14.995  23.493  0.00  0.00    +0.000 OA
ENDBRANCH   8  11
ENDBRANCH   1   9
BRANCH   4  21
ATOM     21  N   UNL     1       2.981   7.384  18.233  0.00  0.00    +0.000 N 
ATOM     22  C   UNL     1       3.040   5.998  18.172  0.00  0.00    +0.000 C 
ATOM     23  O   UNL     1       2.277   5.224  18.741  0.00  0.00    +0.000 OA
ATOM     24  H   UNL     1       3.628   7.875  17.627  0.00  0.00    +0.000 HD
BRANCH  22  25
ATOM     25  C   UNL     1       4.093   5.500  17.310  0.00  0.00    +0.000 A 
ATOM     26  C   UNL     1       5.092   6.184  16.645  0.00  0.00    +0.000 A 
ATOM     27  C   UNL     1       5.853   5.219  15.952  0.00  0.00    +0.000 A 
ATOM     28  C   UNL     1       5.272   4.003  16.230  0.00  0.00    +0.000 A 
ATOM     29  O   UNL     1       4.204   4.159  17.058  0.00  0.00    +0.000 OA
ENDBRANCH  22  25
ENDBRANCH   4  21
TORSDOF 4
ENDMDL
MODEL 8
REMARK VINA RESULT:      -7.6      1.747     10.834
REMARK  Name = 
REMARK  4 active torsions:
REMARK  status: ('A' for Active; 'I' for Inactive)
REMARK    1  A    between atoms: C_2  and  C_18
REMARK    2  A    between atoms: N_3  and  C_4
REMARK    3  A    between atoms: C_7  and  N_8
REMARK    4  A    between atoms: C_9  and  C_11
REMARK                            x       y       z     vdW  Elec       q    Type
REMARK                         _______ _______ _______ _____ _____    ______ ____
ROOT
ATOM      1  C   UNL     1       0.537   9.748  20.203  0.00  0.00    +0.000 A 
ATOM      2  C   UNL     1       0.924   9.997  18.888  0.00  0.00    +0.000 A 
ATOM      3  C   UNL     1       1.768   9.123  18.206  0.00  0.00    +0.000 A 
ATOM      4  C   UNL     1       2.271   7.987  18.827  0.00  0.00    +0.000 A 
ATOM      5  C   UNL     1       1.889   7.725  20.148  0.00  0.00    +0.000 A 
ATOM      6  C   UNL     1       1.040   8.609  20.836  0.00  0.00    +0.000 A 
ENDROOT
BRANCH   1   9
ATOM      7  O   UNL     1       0.373  10.252  23.089  0.00  0.00    +0.000 OA
ATOM      8  C   UNL     1      -0.334  10.806  22.254  0.00  0.00    +0.000 C 
ATOM      9  N   UNL     1      -0.384  10.568  20.896  0.00  0.00    +0.000 N 
ATOM     10  H   UNL     1      -0.998  11.143  20.335  0.00  0.00    +0.000 HD
BRANCH   8  11
ATOM     11  C   UNL     1      -1.151  11.924  22.755  0.00  0.00    +0.000 A 
ATOM     12  C   UNL     1      -0.846  13.265  22.513  0.00  0.00    +0.000 A 
ATOM     13  C   UNL     1      -1.815  14.235  22.800  0.00  0.00    +0.000 A 
ATOM     14  C   UNL     1      -3.060  13.859  23.317  0.00  0.00    +0.000 A 
ATOM     15  C   UNL     1      -3.300  12.525  23.640  0.00  0.00    +0.000 A 
ATOM     16  C   UNL     1      -2.357  11.558  23.360  0.00  0.00    +0.000 A 
ATOM     17  O   UNL     1      -4.469  12.097  24.205  0.00  0.00    +0.000 OA
ATOM     18  C   UNL     1      -5.542  12.865  23.672  0.00  0.00    +0.000 C 
ATOM     19  C   UNL     1      -5.301  14.361  23.843  0.00  0.00    +0.000 C 
ATOM     20  O   UNL     1      -4.012  14.833  23.424  0.00  0.00    +0.000 OA
ENDBRANCH   8  11
ENDBRANCH   1   9
BRANCH   4  21
ATOM     21  N   UNL     1       3.145   7.095  18.178  0.00  0.00    +0.000 N 
ATOM     22  C   UNL     1       2.891   5.762  17.882  0.00  0.00    +0.000 C 
ATOM     23  O   UNL     1       1.849   5.162  18.128  0.00  0.00    +0.000 OA
ATOM     24  H   UNL     1       4.020   7.460  17.822  0.00  0.00    +0.000 HD
BRANCH  22  25
ATOM     25  C   UNL     1       3.979   5.104  17.190  0.00  0.00    +0.000 A 
ATOM     26  C   UNL     1       4.300   3.761  17.116  0.00  0.00    +0.000 A 
ATOM     27  C   UNL     1       5.452   3.664  16.307  0.00  0.00    +0.000 A 
ATOM     28  C   UNL     1       5.770   4.951  15.938  0.00  0.00    +0.000 A 
ATOM     29  O   UNL     1       4.880   5.836  16.464  0.00  0.00    +0.000 OA
ENDBRANCH  22  25
ENDBRANCH   4  21
TORSDOF 4
ENDMDL
MODEL 9
REMARK VINA RESULT:      -7.6      1.826     10.854
REMARK  Name = 
REMARK  4 active torsions:
REMARK  status: ('A' for Active; 'I' for Inactive)
REMARK    1  A    between atoms: C_2  and  C_18
REMARK    2  A    between atoms: N_3  and  C_4
REMARK    3  A    between atoms: C_7  and  N_8
REMARK    4  A    between atoms: C_9  and  C_11
REMARK                            x       y       z     vdW  Elec       q    Type
REMARK                         _______ _______ _______ _____ _____    ______ ____
ROOT
ATOM      1  C   UNL     1       0.539   9.251  19.794  0.00  0.00    +0.000 A 
ATOM      2  C   UNL     1       1.196   8.218  20.458  0.00  0.00    +0.000 A 
ATOM      3  C   UNL     1       2.222   7.503  19.844  0.00  0.00    +0.000 A 
ATOM      4  C   UNL     1       2.605   7.783  18.539  0.00  0.00    +0.000 A 
ATOM      5  C   UNL     1       1.953   8.819  17.860  0.00  0.00    +0.000 A 
ATOM      6  C   UNL     1       0.916   9.538  18.479  0.00  0.00    +0.000 A 
ENDROOT
BRANCH   1   9
ATOM      7  O   UNL     1       0.926  11.612  21.494  0.00  0.00    +0.000 OA
ATOM      8  C   UNL     1      -0.171  11.196  21.137  0.00  0.00    +0.000 C 
ATOM      9  N   UNL     1      -0.448  10.053  20.414  0.00  0.00    +0.000 N 
ATOM     10  H   UNL     1      -1.411   9.871  20.164  0.00  0.00    +0.000 HD
BRANCH   8  11
ATOM     11  C   UNL     1      -1.311  12.079  21.431  0.00  0.00    +0.000 A 
ATOM     12  C   UNL     1      -2.039  12.747  20.444  0.00  0.00    +0.000 A 
ATOM     13  C   UNL     1      -3.255  13.345  20.797  0.00  0.00    +0.000 A 
ATOM     14  C   UNL     1      -3.724  13.269  22.114  0.00  0.00    +0.000 A 
ATOM     15  C   UNL     1      -2.931  12.681  23.097  0.00  0.00    +0.000 A 
ATOM     16  C   UNL     1      -1.732  12.085  22.764  0.00  0.00    +0.000 A 
ATOM     17  O   UNL     1      -3.298  12.627  24.413  0.00  0.00    +0.000 OA
ATOM     18  C   UNL     1      -4.708  12.445  24.486  0.00  0.00    +0.000 C 
ATOM     19  C   UNL     1      -5.455  13.513  23.695  0.00  0.00    +0.000 C 
ATOM     20  O   UNL     1      -4.987  13.731  22.355  0.00  0.00    +0.000 OA
ENDBRANCH   8  11
ENDBRANCH   1   9
BRANCH   4  21
ATOM     21  N   UNL     1       3.620   7.065  17.879  0.00  0.00    +0.000 N 
ATOM     22  C   UNL     1       3.593   5.718  17.547  0.00  0.00    +0.000 C 
ATOM     23  O   UNL     1       2.663   4.948  17.763  0.00  0.00    +0.000 OA
ATOM     24  H   UNL     1       4.427   7.580  17.545  0.00  0.00    +0.000 HD
BRANCH  22  25
ATOM     25  C   UNL     1       4.782   5.267  16.854  0.00  0.00    +0.000 A 
ATOM     26  C   UNL     1       5.046   4.058  16.238  0.00  0.00    +0.000 A 
ATOM     27  C   UNL     1       6.352   4.148  15.711  0.00  0.00    +0.000 A 
ATOM     28  C   UNL     1       6.811   5.402  16.040  0.00  0.00    +0.000 A 
ATOM     29  O   UNL     1       5.866   6.095  16.729  0.00  0.00    +0.000 OA
ENDBRANCH  22  25
ENDBRANCH   4  21
TORSDOF 4
ENDMDL
