MODEL 1
REMARK VINA RESULT:      -8.2      0.000      0.000
REMARK  Name = 
REMARK  5 active torsions:
REMARK  status: ('A' for Active; 'I' for Inactive)
REMARK    1  A    between atoms: C_1  and  C_2
REMARK    2  A    between atoms: C_9  and  O_10
REMARK    3  A    between atoms: O_10  and  C_11
REMARK    4  A    between atoms: C_11  and  C_12
REMARK    5  A    between atoms: N_14  and  C_15
REMARK                            x       y       z     vdW  Elec       q    Type
REMARK                         _______ _______ _______ _____ _____    ______ ____
ROOT
ATOM      1  O   UNL     1       4.927   4.814  18.519  0.00  0.00    +0.000 OA
ENDROOT
BRANCH   1  10
ATOM      2  C   UNL     1       5.501   3.093  12.194  0.00  0.00    +0.000 C 
ATOM      3  C   UNL     1       6.310   3.992  13.080  0.00  0.00    +0.000 A 
ATOM      4  C   UNL     1       7.390   4.637  12.618  0.00  0.00    +0.000 A 
ATOM      5  C   UNL     1       8.220   5.529  13.442  0.00  0.00    +0.000 A 
ATOM      6  O   UNL     1       9.194   6.101  12.966  0.00  0.00    +0.000 OA
ATOM      7  O   UNL     1       7.845   5.684  14.764  0.00  0.00    +0.000 OA
ATOM      8  C   UNL     1       6.713   5.022  15.279  0.00  0.00    +0.000 A 
ATOM      9  C   UNL     1       6.431   5.263  16.627  0.00  0.00    +0.000 A 
ATOM     10  C   UNL     1       5.325   4.659  17.217  0.00  0.00    +0.000 A 
ATOM     11  C   UNL     1       4.524   3.816  16.441  0.00  0.00    +0.000 A 
ATOM     12  C   UNL     1       4.822   3.579  15.089  0.00  0.00    +0.000 A 
ATOM     13  C   UNL     1       5.930   4.185  14.486  0.00  0.00    +0.000 A 
ENDBRANCH   1  10
BRANCH   1  14
ATOM     14  C   UNL     1       3.514   4.775  18.752  0.00  0.00    +0.000 C 
BRANCH  14  15
ATOM     15  C   UNL     1       2.956   6.125  19.027  0.00  0.00    +0.000 A 
ATOM     16  C   UNL     1       2.293   6.584  20.144  0.00  0.00    +0.000 A 
ATOM     17  N   UNL     1       1.895   7.861  19.823  0.00  0.00    +0.000 N 
ATOM     18  N   UNL     1       2.331   8.164  18.575  0.00  0.00    +0.000 NA
ATOM     19  N   UNL     1       2.974   7.113  18.084  0.00  0.00    +0.000 NA
BRANCH  17  20
ATOM     20  C   UNL     1       1.116   8.765  20.591  0.00  0.00    +0.000 A 
ATOM     21  C   UNL     1       1.082   8.672  21.991  0.00  0.00    +0.000 A 
ATOM     22  C   UNL     1       0.291   9.554  22.732  0.00  0.00    +0.000 A 
ATOM     23  C   UNL     1      -0.466  10.526  22.083  0.00  0.00    +0.000 A 
ATOM     24 CL   UNL     1      -1.446  11.599  23.003  0.00  0.00    +0.000 Cl
ATOM     25  C   UNL     1      -0.435  10.631  20.694  0.00  0.00    +0.000 A 
ATOM     26  C   UNL     1       0.357   9.754  19.946  0.00  0.00    +0.000 A 
ENDBRANCH  17  20
ENDBRANCH  14  15
ENDBRANCH   1  14
TORSDOF 4
ENDMDL
MODEL 2
REMARK VINA RESULT:      -8.2      4.901      9.546
REMARK  Name = 
REMARK  5 active torsions:
REMARK  status: ('A' for Active; 'I' for Inactive)
REMARK    1  A    between atoms: C_1  and  C_2
REMARK    2  A    between atoms: C_9  and  O_10
REMARK    3  A    between atoms: O_10  and  C_11
REMARK    4  A    between atoms: C_11  and  C_12
REMARK    5  A    between atoms: N_14  and  C_15
REMARK                            x       y       z     vdW  Elec       q    Type
REMARK                         _______ _______ _______ _____ _____    ______ ____
ROOT
ATOM      1  O   UNL     1       0.890  10.127  19.787  0.00  0.00    +0.000 OA
ENDROOT
BRANCH   1  10
ATOM      2  C   UNL     1      -5.123  12.373  18.341  0.00  0.00    +0.000 C 
ATOM      3  C   UNL     1      -4.120  11.578  17.560  0.00  0.00    +0.000 A 
ATOM      4  C   UNL     1      -4.370  11.183  16.303  0.00  0.00    +0.000 A 
ATOM      5  C   UNL     1      -3.424  10.402  15.492  0.00  0.00    +0.000 A 
ATOM      6  O   UNL     1      -3.700  10.073  14.345  0.00  0.00    +0.000 OA
ATOM      7  O   UNL     1      -2.223  10.065  16.088  0.00  0.00    +0.000 OA
ATOM      8  C   UNL     1      -1.928  10.468  17.406  0.00  0.00    +0.000 A 
ATOM      9  C   UNL     1      -0.680  10.072  17.897  0.00  0.00    +0.000 A 
ATOM     10  C   UNL     1      -0.302  10.435  19.185  0.00  0.00    +0.000 A 
ATOM     11  C   UNL     1      -1.189  11.185  19.963  0.00  0.00    +0.000 A 
ATOM     12  C   UNL     1      -2.442  11.571  19.459  0.00  0.00    +0.000 A 
ATOM     13  C   UNL     1      -2.830  11.214  18.163  0.00  0.00    +0.000 A 
ENDBRANCH   1  10
BRANCH   1  14
ATOM     14  C   UNL     1       0.881   8.987  20.654  0.00  0.00    +0.000 C 
BRANCH  14  15
ATOM     15  C   UNL     1       1.690   7.865  20.111  0.00  0.00    +0.000 A 
ATOM     16  C   UNL     1       2.438   7.808  18.956  0.00  0.00    +0.000 A 
ATOM     17  N   UNL     1       2.878   6.508  18.880  0.00  0.00    +0.000 N 
ATOM     18  N   UNL     1       2.437   5.822  19.964  0.00  0.00    +0.000 NA
ATOM     19  N   UNL     1       1.711   6.640  20.715  0.00  0.00    +0.000 NA
BRANCH  17  20
ATOM     20  C   UNL     1       3.635   5.888  17.852  0.00  0.00    +0.000 A 
ATOM     21  C   UNL     1       3.563   4.501  17.645  0.00  0.00    +0.000 A 
ATOM     22  C   UNL     1       4.332   3.901  16.645  0.00  0.00    +0.000 A 
ATOM     23  C   UNL     1       5.174   4.678  15.852  0.00  0.00    +0.000 A 
ATOM     24 CL   UNL     1       6.127   3.928  14.631  0.00  0.00    +0.000 Cl
ATOM     25  C   UNL     1       5.249   6.056  16.045  0.00  0.00    +0.000 A 
ATOM     26  C   UNL     1       4.479   6.663  17.042  0.00  0.00    +0.000 A 
ENDBRANCH  17  20
ENDBRANCH  14  15
ENDBRANCH   1  14
TORSDOF 4
ENDMDL
MODEL 3
REMARK VINA RESULT:      -8.2      6.358      8.094
REMARK  Name = 
REMARK  5 active torsions:
REMARK  status: ('A' for Active; 'I' for Inactive)
REMARK    1  A    between atoms: C_1  and  C_2
REMARK    2  A    between atoms: C_9  and  O_10
REMARK    3  A    between atoms: O_10  and  C_11
REMARK    4  A    between atoms: C_11  and  C_12
REMARK    5  A    between atoms: N_14  and  C_15
REMARK                            x       y       z     vdW  Elec       q    Type
REMARK                         _______ _______ _______ _____ _____    ______ ____
ROOT
ATOM      1  O   UNL     1       7.049   7.868  17.246  0.00  0.00    +0.000 OA
ENDROOT
BRANCH   1  10
ATOM      2  C   UNL     1       1.562   4.276  17.777  0.00  0.00    +0.000 C 
ATOM      3  C   UNL     1       2.948   4.102  18.323  0.00  0.00    +0.000 A 
ATOM      4  C   UNL     1       3.270   3.045  19.084  0.00  0.00    +0.000 A 
ATOM      5  C   UNL     1       4.611   2.825  19.645  0.00  0.00    +0.000 A 
ATOM      6  O   UNL     1       4.853   1.838  20.328  0.00  0.00    +0.000 OA
ATOM      7  O   UNL     1       5.569   3.781  19.362  0.00  0.00    +0.000 OA
ATOM      8  C   UNL     1       5.264   4.900  18.562  0.00  0.00    +0.000 A 
ATOM      9  C   UNL     1       6.318   5.792  18.341  0.00  0.00    +0.000 A 
ATOM     10  C   UNL     1       6.108   6.921  17.553  0.00  0.00    +0.000 A 
ATOM     11  C   UNL     1       4.839   7.136  17.007  0.00  0.00    +0.000 A 
ATOM     12  C   UNL     1       3.789   6.234  17.243  0.00  0.00    +0.000 A 
ATOM     13  C   UNL     1       3.991   5.094  18.030  0.00  0.00    +0.000 A 
ENDBRANCH   1  10
BRANCH   1  14
ATOM     14  C   UNL     1       8.207   7.900  18.088  0.00  0.00    +0.000 C 
BRANCH  14  15
ATOM     15  C   UNL     1       8.614   9.289  18.426  0.00  0.00    +0.000 A 
ATOM     16  C   UNL     1       8.708  10.394  17.610  0.00  0.00    +0.000 A 
ATOM     17  N   UNL     1       9.241  11.381  18.405  0.00  0.00    +0.000 N 
ATOM     18  N   UNL     1       9.428  10.894  19.656  0.00  0.00    +0.000 NA
ATOM     19  N   UNL     1       9.052   9.622  19.676  0.00  0.00    +0.000 NA
BRANCH  17  20
ATOM     20  C   UNL     1       9.608  12.704  18.047  0.00  0.00    +0.000 A 
ATOM     21  C   UNL     1      10.764  12.948  17.290  0.00  0.00    +0.000 A 
ATOM     22  C   UNL     1      11.126  14.258  16.966  0.00  0.00    +0.000 A 
ATOM     23  C   UNL     1      10.341  15.326  17.396  0.00  0.00    +0.000 A 
ATOM     24 CL   UNL     1      10.802  16.936  17.004  0.00  0.00    +0.000 Cl
ATOM     25  C   UNL     1       9.189  15.095  18.144  0.00  0.00    +0.000 A 
ATOM     26  C   UNL     1       8.819  13.786  18.469  0.00  0.00    +0.000 A 
ENDBRANCH  17  20
ENDBRANCH  14  15
ENDBRANCH   1  14
TORSDOF 4
ENDMDL
MODEL 4
REMARK VINA RESULT:      -8.1      1.212      1.697
REMARK  Name = 
REMARK  5 active torsions:
REMARK  status: ('A' for Active; 'I' for Inactive)
REMARK    1  A    between atoms: C_1  and  C_2
REMARK    2  A    between atoms: C_9  and  O_10
REMARK    3  A    between atoms: O_10  and  C_11
REMARK    4  A    between atoms: C_11  and  C_12
REMARK    5  A    between atoms: N_14  and  C_15
REMARK                            x       y       z     vdW  Elec       q    Type
REMARK                         _______ _______ _______ _____ _____    ______ ____
ROOT
ATOM      1  O   UNL     1       5.493   4.748  18.648  0.00  0.00    +0.000 OA
ENDROOT
BRANCH   1  10
ATOM      2  C   UNL     1       5.356   3.140  12.269  0.00  0.00    +0.000 C 
ATOM      3  C   UNL     1       6.265   4.017  13.077  0.00  0.00    +0.000 A 
ATOM      4  C   UNL     1       7.293   4.665  12.510  0.00  0.00    +0.000 A 
ATOM      5  C   UNL     1       8.215   5.537  13.254  0.00  0.00    +0.000 A 
ATOM      6  O   UNL     1       9.135   6.112  12.684  0.00  0.00    +0.000 OA
ATOM      7  O   UNL     1       7.989   5.670  14.611  0.00  0.00    +0.000 OA
ATOM      8  C   UNL     1       6.914   5.005  15.236  0.00  0.00    +0.000 A 
ATOM      9  C   UNL     1       6.784   5.223  16.611  0.00  0.00    +0.000 A 
ATOM     10  C   UNL     1       5.745   4.614  17.307  0.00  0.00    +0.000 A 
ATOM     11  C   UNL     1       4.857   3.790  16.610  0.00  0.00    +0.000 A 
ATOM     12  C   UNL     1       5.003   3.576  15.229  0.00  0.00    +0.000 A 
ATOM     13  C   UNL     1       6.043   4.187  14.519  0.00  0.00    +0.000 A 
ENDBRANCH   1  10
BRANCH   1  14
ATOM     14  C   UNL     1       4.303   4.113  19.130  0.00  0.00    +0.000 C 
BRANCH  14  15
ATOM     15  C   UNL     1       3.292   5.099  19.592  0.00  0.00    +0.000 A 
ATOM     16  C   UNL     1       3.078   6.392  19.169  0.00  0.00    +0.000 A 
ATOM     17  N   UNL     1       2.105   6.885  20.007  0.00  0.00    +0.000 N 
ATOM     18  N   UNL     1       1.730   5.914  20.876  0.00  0.00    +0.000 NA
ATOM     19  N   UNL     1       2.450   4.827  20.632  0.00  0.00    +0.000 NA
BRANCH  17  20
ATOM     20  C   UNL     1       1.557   8.193  20.055  0.00  0.00    +0.000 A 
ATOM     21  C   UNL     1       1.476   8.980  18.895  0.00  0.00    +0.000 A 
ATOM     22  C   UNL     1       0.957  10.275  18.963  0.00  0.00    +0.000 A 
ATOM     23  C   UNL     1       0.520  10.790  20.181  0.00  0.00    +0.000 A 
ATOM     24 CL   UNL     1      -0.106  12.390  20.257  0.00  0.00    +0.000 Cl
ATOM     25  C   UNL     1       0.591  10.016  21.338  0.00  0.00    +0.000 A 
ATOM     26  C   UNL     1       1.107   8.717  21.277  0.00  0.00    +0.000 A 
ENDBRANCH  17  20
ENDBRANCH  14  15
ENDBRANCH   1  14
TORSDOF 4
ENDMDL
MODEL 5
REMARK VINA RESULT:      -8.1      6.762      8.633
REMARK  Name = 
REMARK  5 active torsions:
REMARK  status: ('A' for Active; 'I' for Inactive)
REMARK    1  A    between atoms: C_1  and  C_2
REMARK    2  A    between atoms: C_9  and  O_10
REMARK    3  A    between atoms: O_10  and  C_11
REMARK    4  A    between atoms: C_11  and  C_12
REMARK    5  A    between atoms: N_14  and  C_15
REMARK                            x       y       z     vdW  Elec       q    Type
REMARK                         _______ _______ _______ _____ _____    ______ ____
ROOT
ATOM      1  O   UNL     1       8.780   8.856  18.704  0.00  0.00    +0.000 OA
ENDROOT
BRANCH   1  10
ATOM      2  C   UNL     1      10.427  14.609  21.441  0.00  0.00    +0.000 C 
ATOM      3  C   UNL     1      10.403  14.129  20.021  0.00  0.00    +0.000 A 
ATOM      4  C   UNL     1      10.768  14.929  19.008  0.00  0.00    +0.000 A 
ATOM      5  C   UNL     1      10.763  14.511  17.598  0.00  0.00    +0.000 A 
ATOM      6  O   UNL     1      11.114  15.281  16.712  0.00  0.00    +0.000 OA
ATOM      7  O   UNL     1      10.347  13.220  17.333  0.00  0.00    +0.000 OA
ATOM      8  C   UNL     1       9.960  12.353  18.374  0.00  0.00    +0.000 A 
ATOM      9  C   UNL     1       9.565  11.071  17.981  0.00  0.00    +0.000 A 
ATOM     10  C   UNL     1       9.178  10.146  18.946  0.00  0.00    +0.000 A 
ATOM     11  C   UNL     1       9.186  10.529  20.290  0.00  0.00    +0.000 A 
ATOM     12  C   UNL     1       9.580  11.822  20.670  0.00  0.00    +0.000 A 
ATOM     13  C   UNL     1       9.976  12.758  19.708  0.00  0.00    +0.000 A 
ENDBRANCH   1  10
BRANCH   1  14
ATOM     14  C   UNL     1       7.920   8.665  17.575  0.00  0.00    +0.000 C 
BRANCH  14  15
ATOM     15  C   UNL     1       7.199   7.367  17.635  0.00  0.00    +0.000 A 
ATOM     16  C   UNL     1       5.845   7.123  17.701  0.00  0.00    +0.000 A 
ATOM     17  N   UNL     1       5.734   5.762  17.856  0.00  0.00    +0.000 N 
ATOM     18  N   UNL     1       6.973   5.209  17.851  0.00  0.00    +0.000 NA
ATOM     19  N   UNL     1       7.868   6.179  17.721  0.00  0.00    +0.000 NA
BRANCH  17  20
ATOM     20  C   UNL     1       4.562   4.984  18.043  0.00  0.00    +0.000 A 
ATOM     21  C   UNL     1       4.389   3.772  17.357  0.00  0.00    +0.000 A 
ATOM     22  C   UNL     1       3.218   3.029  17.532  0.00  0.00    +0.000 A 
ATOM     23  C   UNL     1       2.220   3.491  18.387  0.00  0.00    +0.000 A 
ATOM     24 CL   UNL     1       0.777   2.576  18.587  0.00  0.00    +0.000 Cl
ATOM     25  C   UNL     1       2.384   4.690  19.077  0.00  0.00    +0.000 A 
ATOM     26  C   UNL     1       3.554   5.437  18.908  0.00  0.00    +0.000 A 
ENDBRANCH  17  20
ENDBRANCH  14  15
ENDBRANCH   1  14
TORSDOF 4
ENDMDL
MODEL 6
REMARK VINA RESULT:      -8.1      3.012      5.100
REMARK  Name = 
REMARK  5 active torsions:
REMARK  status: ('A' for Active; 'I' for Inactive)
REMARK    1  A    between atoms: C_1  and  C_2
REMARK    2  A    between atoms: C_9  and  O_10
REMARK    3  A    between atoms: O_10  and  C_11
REMARK    4  A    between atoms: C_11  and  C_12
REMARK    5  A    between atoms: N_14  and  C_15
REMARK                            x       y       z     vdW  Elec       q    Type
REMARK                         _______ _______ _______ _____ _____    ______ ____
ROOT
ATOM      1  O   UNL     1       1.248   7.205  21.099  0.00  0.00    +0.000 OA
ENDROOT
BRANCH   1  10
ATOM      2  C   UNL     1       3.409   1.858  17.931  0.00  0.00    +0.000 C 
ATOM      3  C   UNL     1       3.667   3.323  17.745  0.00  0.00    +0.000 A 
ATOM      4  C   UNL     1       4.478   3.770  16.775  0.00  0.00    +0.000 A 
ATOM      5  C   UNL     1       4.766   5.195  16.547  0.00  0.00    +0.000 A 
ATOM      6  O   UNL     1       5.509   5.549  15.640  0.00  0.00    +0.000 OA
ATOM      7  O   UNL     1       4.160   6.097  17.402  0.00  0.00    +0.000 OA
ATOM      8  C   UNL     1       3.300   5.659  18.429  0.00  0.00    +0.000 A 
ATOM      9  C   UNL     1       2.742   6.666  19.223  0.00  0.00    +0.000 A 
ATOM     10  C   UNL     1       1.873   6.325  20.254  0.00  0.00    +0.000 A 
ATOM     11  C   UNL     1       1.584   4.975  20.474  0.00  0.00    +0.000 A 
ATOM     12  C   UNL     1       2.156   3.974  19.672  0.00  0.00    +0.000 A 
ATOM     13  C   UNL     1       3.028   4.307  18.630  0.00  0.00    +0.000 A 
ENDBRANCH   1  10
BRANCH   1  14
ATOM     14  C   UNL     1       1.238   8.575  20.683  0.00  0.00    +0.000 C 
BRANCH  14  15
ATOM     15  C   UNL     1       0.492   9.441  21.632  0.00  0.00    +0.000 A 
ATOM     16  C   UNL     1      -0.334  10.513  21.371  0.00  0.00    +0.000 A 
ATOM     17  N   UNL     1      -0.663  11.019  22.606  0.00  0.00    +0.000 N 
ATOM     18  N   UNL     1      -0.083  10.262  23.569  0.00  0.00    +0.000 NA
ATOM     19  N   UNL     1       0.624   9.303  22.984  0.00  0.00    +0.000 NA
BRANCH  17  20
ATOM     20  C   UNL     1      -1.438  12.167  22.914  0.00  0.00    +0.000 A 
ATOM     21  C   UNL     1      -0.882  13.453  22.829  0.00  0.00    +0.000 A 
ATOM     22  C   UNL     1      -1.650  14.572  23.159  0.00  0.00    +0.000 A 
ATOM     23  C   UNL     1      -2.969  14.415  23.576  0.00  0.00    +0.000 A 
ATOM     24 CL   UNL     1      -3.903  15.798  23.993  0.00  0.00    +0.000 Cl
ATOM     25  C   UNL     1      -3.534  13.144  23.660  0.00  0.00    +0.000 A 
ATOM     26  C   UNL     1      -2.772  12.019  23.327  0.00  0.00    +0.000 A 
ENDBRANCH  17  20
ENDBRANCH  14  15
ENDBRANCH   1  14
TORSDOF 4
ENDMDL
MODEL 7
REMARK VINA RESULT:      -7.9      4.287      5.955
REMARK  Name = 
REMARK  5 active torsions:
REMARK  status: ('A' for Active; 'I' for Inactive)
REMARK    1  A    between atoms: C_1  and  C_2
REMARK    2  A    between atoms: C_9  and  O_10
REMARK    3  A    between atoms: O_10  and  C_11
REMARK    4  A    between atoms: C_11  and  C_12
REMARK    5  A    between atoms: N_14  and  C_15
REMARK                            x       y       z     vdW  Elec       q    Type
REMARK                         _______ _______ _______ _____ _____    ______ ____
ROOT
ATOM      1  O   UNL     1       2.634   8.558  18.576  0.00  0.00    +0.000 OA
ENDROOT
BRANCH   1  10
ATOM      2  C   UNL     1       2.935   2.029  17.816  0.00  0.00    +0.000 C 
ATOM      3  C   UNL     1       2.520   2.900  18.963  0.00  0.00    +0.000 A 
ATOM      4  C   UNL     1       2.109   2.373  20.126  0.00  0.00    +0.000 A 
ATOM      5  C   UNL     1       1.690   3.180  21.282  0.00  0.00    +0.000 A 
ATOM      6  O   UNL     1       1.330   2.646  22.324  0.00  0.00    +0.000 OA
ATOM      7  O   UNL     1       1.725   4.553  21.129  0.00  0.00    +0.000 OA
ATOM      8  C   UNL     1       2.156   5.139  19.921  0.00  0.00    +0.000 A 
ATOM      9  C   UNL     1       2.154   6.536  19.890  0.00  0.00    +0.000 A 
ATOM     10  C   UNL     1       2.574   7.198  18.740  0.00  0.00    +0.000 A 
ATOM     11  C   UNL     1       2.983   6.442  17.638  0.00  0.00    +0.000 A 
ATOM     12  C   UNL     1       2.974   5.039  17.682  0.00  0.00    +0.000 A 
ATOM     13  C   UNL     1       2.558   4.363  18.834  0.00  0.00    +0.000 A 
ENDBRANCH   1  10
BRANCH   1  14
ATOM     14  C   UNL     1       1.476   9.172  17.999  0.00  0.00    +0.000 C 
BRANCH  14  15
ATOM     15  C   UNL     1       0.872  10.185  18.903  0.00  0.00    +0.000 A 
ATOM     16  C   UNL     1      -0.246  10.086  19.701  0.00  0.00    +0.000 A 
ATOM     17  N   UNL     1      -0.421  11.343  20.229  0.00  0.00    +0.000 N 
ATOM     18  N   UNL     1       0.572  12.154  19.789  0.00  0.00    +0.000 NA
ATOM     19  N   UNL     1       1.360  11.458  18.979  0.00  0.00    +0.000 NA
BRANCH  17  20
ATOM     20  C   UNL     1      -1.464  11.814  21.068  0.00  0.00    +0.000 A 
ATOM     21  C   UNL     1      -1.387  11.664  22.462  0.00  0.00    +0.000 A 
ATOM     22  C   UNL     1      -2.433  12.111  23.273  0.00  0.00    +0.000 A 
ATOM     23  C   UNL     1      -3.555  12.705  22.701  0.00  0.00    +0.000 A 
ATOM     24 CL   UNL     1      -4.844  13.240  23.707  0.00  0.00    +0.000 Cl
ATOM     25  C   UNL     1      -3.640  12.863  21.319  0.00  0.00    +0.000 A 
ATOM     26  C   UNL     1      -2.595  12.421  20.501  0.00  0.00    +0.000 A 
ENDBRANCH  17  20
ENDBRANCH  14  15
ENDBRANCH   1  14
TORSDOF 4
ENDMDL
MODEL 8
REMARK VINA RESULT:      -7.9      4.664      7.643
REMARK  Name = 
REMARK  5 active torsions:
REMARK  status: ('A' for Active; 'I' for Inactive)
REMARK    1  A    between atoms: C_1  and  C_2
REMARK    2  A    between atoms: C_9  and  O_10
REMARK    3  A    between atoms: O_10  and  C_11
REMARK    4  A    between atoms: C_11  and  C_12
REMARK    5  A    between atoms: N_14  and  C_15
REMARK                            x       y       z     vdW  Elec       q    Type
REMARK                         _______ _______ _______ _____ _____    ______ ____
ROOT
ATOM      1  O   UNL     1       5.539   5.437  16.070  0.00  0.00    +0.000 OA
ENDROOT
BRANCH   1  10
ATOM      2  C   UNL     1       1.232   7.015  20.788  0.00  0.00    +0.000 C 
ATOM      3  C   UNL     1       2.007   5.765  20.496  0.00  0.00    +0.000 A 
ATOM      4  C   UNL     1       1.891   4.677  21.270  0.00  0.00    +0.000 A 
ATOM      5  C   UNL     1       2.628   3.426  21.031  0.00  0.00    +0.000 A 
ATOM      6  O   UNL     1       2.478   2.458  21.767  0.00  0.00    +0.000 OA
ATOM      7  O   UNL     1       3.484   3.405  19.946  0.00  0.00    +0.000 OA
ATOM      8  C   UNL     1       3.626   4.532  19.111  0.00  0.00    +0.000 A 
ATOM      9  C   UNL     1       4.516   4.386  18.043  0.00  0.00    +0.000 A 
ATOM     10  C   UNL     1       4.709   5.445  17.161  0.00  0.00    +0.000 A 
ATOM     11  C   UNL     1       4.008   6.636  17.373  0.00  0.00    +0.000 A 
ATOM     12  C   UNL     1       3.121   6.770  18.453  0.00  0.00    +0.000 A 
ATOM     13  C   UNL     1       2.917   5.709  19.344  0.00  0.00    +0.000 A 
ENDBRANCH   1  10
BRANCH   1  14
ATOM     14  C   UNL     1       6.939   5.318  16.347  0.00  0.00    +0.000 C 
BRANCH  14  15
ATOM     15  C   UNL     1       7.422   6.391  17.255  0.00  0.00    +0.000 A 
ATOM     16  C   UNL     1       7.570   7.739  17.011  0.00  0.00    +0.000 A 
ATOM     17  N   UNL     1       8.161   8.244  18.145  0.00  0.00    +0.000 N 
ATOM     18  N   UNL     1       8.331   7.243  19.044  0.00  0.00    +0.000 NA
ATOM     19  N   UNL     1       7.887   6.113  18.508  0.00  0.00    +0.000 NA
BRANCH  17  20
ATOM     20  C   UNL     1       8.596   9.570  18.402  0.00  0.00    +0.000 A 
ATOM     21  C   UNL     1       9.398   9.859  19.518  0.00  0.00    +0.000 A 
ATOM     22  C   UNL     1       9.798  11.173  19.771  0.00  0.00    +0.000 A 
ATOM     23  C   UNL     1       9.403  12.200  18.918  0.00  0.00    +0.000 A 
ATOM     24 CL   UNL     1       9.890  13.817  19.245  0.00  0.00    +0.000 Cl
ATOM     25  C   UNL     1       8.612  11.924  17.804  0.00  0.00    +0.000 A 
ATOM     26  C   UNL     1       8.210  10.611  17.543  0.00  0.00    +0.000 A 
ENDBRANCH  17  20
ENDBRANCH  14  15
ENDBRANCH   1  14
TORSDOF 4
ENDMDL
MODEL 9
REMARK VINA RESULT:      -7.9      3.813      6.017
REMARK  Name = 
REMARK  5 active torsions:
REMARK  status: ('A' for Active; 'I' for Inactive)
REMARK    1  A    between atoms: C_1  and  C_2
REMARK    2  A    between atoms: C_9  and  O_10
REMARK    3  A    between atoms: O_10  and  C_11
REMARK    4  A    between atoms: C_11  and  C_12
REMARK    5  A    between atoms: N_14  and  C_15
REMARK                            x       y       z     vdW  Elec       q    Type
REMARK                         _______ _______ _______ _____ _____    ______ ____
ROOT
ATOM      1  O   UNL     1       1.129   8.858  19.775  0.00  0.00    +0.000 OA
ENDROOT
BRANCH   1  10
ATOM      2  C   UNL     1       5.446   5.688  15.952  0.00  0.00    +0.000 C 
ATOM      3  C   UNL     1       4.832   5.361  17.280  0.00  0.00    +0.000 A 
ATOM      4  C   UNL     1       5.139   4.228  17.929  0.00  0.00    +0.000 A 
ATOM      5  C   UNL     1       4.567   3.856  19.232  0.00  0.00    +0.000 A 
ATOM      6  O   UNL     1       4.888   2.811  19.785  0.00  0.00    +0.000 OA
ATOM      7  O   UNL     1       3.660   4.739  19.789  0.00  0.00    +0.000 OA
ATOM      8  C   UNL     1       3.319   5.939  19.134  0.00  0.00    +0.000 A 
ATOM      9  C   UNL     1       2.397   6.752  19.800  0.00  0.00    +0.000 A 
ATOM     10  C   UNL     1       2.011   7.962  19.230  0.00  0.00    +0.000 A 
ATOM     11  C   UNL     1       2.555   8.330  17.996  0.00  0.00    +0.000 A 
ATOM     12  C   UNL     1       3.476   7.501  17.336  0.00  0.00    +0.000 A 
ATOM     13  C   UNL     1       3.874   6.284  17.902  0.00  0.00    +0.000 A 
ENDBRANCH   1  10
BRANCH   1  14
ATOM     14  C   UNL     1       1.048  10.132  19.127  0.00  0.00    +0.000 C 
BRANCH  14  15
ATOM     15  C   UNL     1      -0.315  10.404  18.598  0.00  0.00    +0.000 A 
ATOM     16  C   UNL     1      -1.299  11.225  19.102  0.00  0.00    +0.000 A 
ATOM     17  N   UNL     1      -2.390  11.012  18.293  0.00  0.00    +0.000 N 
ATOM     18  N   UNL     1      -2.061  10.123  17.324  0.00  0.00    +0.000 NA
ATOM     19  N   UNL     1      -0.802   9.746  17.504  0.00  0.00    +0.000 NA
BRANCH  17  20
ATOM     20  C   UNL     1      -3.696  11.556  18.406  0.00  0.00    +0.000 A 
ATOM     21  C   UNL     1      -4.639  11.377  17.382  0.00  0.00    +0.000 A 
ATOM     22  C   UNL     1      -5.913  11.939  17.497  0.00  0.00    +0.000 A 
ATOM     23  C   UNL     1      -6.250  12.679  18.628  0.00  0.00    +0.000 A 
ATOM     24 CL   UNL     1      -7.817  13.378  18.755  0.00  0.00    +0.000 Cl
ATOM     25  C   UNL     1      -5.324  12.858  19.653  0.00  0.00    +0.000 A 
ATOM     26  C   UNL     1      -4.048  12.296  19.546  0.00  0.00    +0.000 A 
ENDBRANCH  17  20
ENDBRANCH  14  15
ENDBRANCH   1  14
TORSDOF 4
ENDMDL
