MODEL 1
REMARK VINA RESULT:      -7.0      0.000      0.000
REMARK  Name = 
REMARK  4 active torsions:
REMARK  status: ('A' for Active; 'I' for Inactive)
REMARK    1  A    between atoms: C_2  and  C_3
REMARK    2  A    between atoms: C_3  and  C_4
REMARK    3  A    between atoms: N_11  and  N_12
REMARK    4  A    between atoms: C_13  and  C_14
REMARK                            x       y       z     vdW  Elec       q    Type
REMARK                         _______ _______ _______ _____ _____    ______ ____
ROOT
ATOM      1  O   UNL     1       7.591   6.058  18.530  0.00  0.00    +0.000 OA
ATOM      2  C   UNL     1       7.287   6.716  17.537  0.00  0.00    +0.000 C 
ATOM      3  N   UNL     1       7.683   8.025  17.286  0.00  0.00    +0.000 N 
ATOM      4  H   UNL     1       7.446   8.474  16.411  0.00  0.00    +0.000 HD
ENDROOT
BRANCH   3   5
ATOM      5  N   UNL     1       8.466   8.683  18.194  0.00  0.00    +0.000 NA
ATOM      6  C   UNL     1       8.585   9.962  18.023  0.00  0.00    +0.000 C 
BRANCH   6   7
ATOM      7  C   UNL     1       9.393  10.755  18.917  0.00  0.00    +0.000 A 
ATOM      8  C   UNL     1       9.371  10.806  20.297  0.00  0.00    +0.000 A 
ATOM      9  C   UNL     1      10.320  11.737  20.820  0.00  0.00    +0.000 A 
ATOM     10  C   UNL     1      11.031  12.358  19.820  0.00  0.00    +0.000 A 
ATOM     11  S   UNL     1      10.569  11.812  18.266  0.00  0.00    +0.000 S 
ENDBRANCH   6   7
ENDBRANCH   3   5
BRANCH   2  12
ATOM     12  C   UNL     1       6.401   6.143  16.444  0.00  0.00    +0.000 C 
BRANCH  12  13
ATOM     13  C   UNL     1       5.112   5.545  16.958  0.00  0.00    +0.000 A 
ATOM     14  C   UNL     1       4.165   6.348  17.614  0.00  0.00    +0.000 A 
ATOM     15  C   UNL     1       2.957   5.801  18.059  0.00  0.00    +0.000 A 
ATOM     16  C   UNL     1       2.688   4.452  17.850  0.00  0.00    +0.000 A 
ATOM     17 CL   UNL     1       1.201   3.778  18.393  0.00  0.00    +0.000 Cl
ATOM     18  C   UNL     1       3.618   3.642  17.201  0.00  0.00    +0.000 A 
ATOM     19  C   UNL     1       4.825   4.188  16.754  0.00  0.00    +0.000 A 
ENDBRANCH  12  13
ENDBRANCH   2  12
TORSDOF 4
ENDMDL
MODEL 2
REMARK VINA RESULT:      -6.8      0.849      1.044
REMARK  Name = 
REMARK  4 active torsions:
REMARK  status: ('A' for Active; 'I' for Inactive)
REMARK    1  A    between atoms: C_2  and  C_3
REMARK    2  A    between atoms: C_3  and  C_4
REMARK    3  A    between atoms: N_11  and  N_12
REMARK    4  A    between atoms: C_13  and  C_14
REMARK                            x       y       z     vdW  Elec       q    Type
REMARK                         _______ _______ _______ _____ _____    ______ ____
ROOT
ATOM      1  O   UNL     1       7.628   6.313  18.387  0.00  0.00    +0.000 OA
ATOM      2  C   UNL     1       7.184   7.078  17.534  0.00  0.00    +0.000 C 
ATOM      3  N   UNL     1       7.549   8.410  17.379  0.00  0.00    +0.000 N 
ATOM      4  H   UNL     1       7.186   8.956  16.606  0.00  0.00    +0.000 HD
ENDROOT
BRANCH   3   5
ATOM      5  N   UNL     1       8.467   8.966  18.227  0.00  0.00    +0.000 NA
ATOM      6  C   UNL     1       8.722  10.224  18.045  0.00  0.00    +0.000 C 
BRANCH   6   7
ATOM      7  C   UNL     1       9.679  10.911  18.878  0.00  0.00    +0.000 A 
ATOM      8  C   UNL     1      10.938  11.378  18.556  0.00  0.00    +0.000 A 
ATOM      9  C   UNL     1      11.589  11.993  19.668  0.00  0.00    +0.000 A 
ATOM     10  C   UNL     1      10.802  11.975  20.796  0.00  0.00    +0.000 A 
ATOM     11  S   UNL     1       9.285  11.237  20.510  0.00  0.00    +0.000 S 
ENDBRANCH   6   7
ENDBRANCH   3   5
BRANCH   2  12
ATOM     12  C   UNL     1       6.137   6.627  16.529  0.00  0.00    +0.000 C 
BRANCH  12  13
ATOM     13  C   UNL     1       4.950   5.935  17.157  0.00  0.00    +0.000 A 
ATOM     14  C   UNL     1       3.928   6.683  17.765  0.00  0.00    +0.000 A 
ATOM     15  C   UNL     1       2.812   6.045  18.316  0.00  0.00    +0.000 A 
ATOM     16  C   UNL     1       2.711   4.657  18.261  0.00  0.00    +0.000 A 
ATOM     17 CL   UNL     1       1.338   3.870  18.935  0.00  0.00    +0.000 Cl
ATOM     18  C   UNL     1       3.716   3.902  17.662  0.00  0.00    +0.000 A 
ATOM     19  C   UNL     1       4.831   4.540  17.109  0.00  0.00    +0.000 A 
ENDBRANCH  12  13
ENDBRANCH   2  12
TORSDOF 4
ENDMDL
MODEL 3
REMARK VINA RESULT:      -6.7      0.401      1.204
REMARK  Name = 
REMARK  4 active torsions:
REMARK  status: ('A' for Active; 'I' for Inactive)
REMARK    1  A    between atoms: C_2  and  C_3
REMARK    2  A    between atoms: C_3  and  C_4
REMARK    3  A    between atoms: N_11  and  N_12
REMARK    4  A    between atoms: C_13  and  C_14
REMARK                            x       y       z     vdW  Elec       q    Type
REMARK                         _______ _______ _______ _____ _____    ______ ____
ROOT
ATOM      1  O   UNL     1       6.909   6.334  18.602  0.00  0.00    +0.000 OA
ATOM      2  C   UNL     1       6.769   6.930  17.536  0.00  0.00    +0.000 C 
ATOM      3  N   UNL     1       7.405   8.116  17.188  0.00  0.00    +0.000 N 
ATOM      4  H   UNL     1       7.288   8.509  16.262  0.00  0.00    +0.000 HD
ENDROOT
BRANCH   3   5
ATOM      5  N   UNL     1       8.256   8.716  18.075  0.00  0.00    +0.000 NA
ATOM      6  C   UNL     1       8.442   9.989  17.915  0.00  0.00    +0.000 C 
BRANCH   6   7
ATOM      7  C   UNL     1       9.324  10.723  18.789  0.00  0.00    +0.000 A 
ATOM      8  C   UNL     1       9.423  10.677  20.165  0.00  0.00    +0.000 A 
ATOM      9  C   UNL     1      10.414  11.574  20.668  0.00  0.00    +0.000 A 
ATOM     10  C   UNL     1      11.036  12.268  19.656  0.00  0.00    +0.000 A 
ATOM     11  S   UNL     1      10.440  11.829  18.113  0.00  0.00    +0.000 S 
ENDBRANCH   6   7
ENDBRANCH   3   5
BRANCH   2  12
ATOM     12  C   UNL     1       5.840   6.412  16.451  0.00  0.00    +0.000 C 
BRANCH  12  13
ATOM     13  C   UNL     1       4.652   5.646  16.984  0.00  0.00    +0.000 A 
ATOM     14  C   UNL     1       4.541   4.262  16.768  0.00  0.00    +0.000 A 
ATOM     15  C   UNL     1       3.458   3.547  17.291  0.00  0.00    +0.000 A 
ATOM     16  C   UNL     1       2.484   4.209  18.032  0.00  0.00    +0.000 A 
ATOM     17 CL   UNL     1       1.154   3.330  18.680  0.00  0.00    +0.000 Cl
ATOM     18  C   UNL     1       2.580   5.581  18.255  0.00  0.00    +0.000 A 
ATOM     19  C   UNL     1       3.663   6.296  17.734  0.00  0.00    +0.000 A 
ENDBRANCH  12  13
ENDBRANCH   2  12
TORSDOF 4
ENDMDL
MODEL 4
REMARK VINA RESULT:      -6.7      1.390      1.635
REMARK  Name = 
REMARK  4 active torsions:
REMARK  status: ('A' for Active; 'I' for Inactive)
REMARK    1  A    between atoms: C_2  and  C_3
REMARK    2  A    between atoms: C_3  and  C_4
REMARK    3  A    between atoms: N_11  and  N_12
REMARK    4  A    between atoms: C_13  and  C_14
REMARK                            x       y       z     vdW  Elec       q    Type
REMARK                         _______ _______ _______ _____ _____    ______ ____
ROOT
ATOM      1  O   UNL     1       7.621   6.736  16.386  0.00  0.00    +0.000 OA
ATOM      2  C   UNL     1       7.659   6.631  17.610  0.00  0.00    +0.000 C 
ATOM      3  N   UNL     1       8.042   7.636  18.492  0.00  0.00    +0.000 N 
ATOM      4  H   UNL     1       7.982   7.490  19.493  0.00  0.00    +0.000 HD
ENDROOT
BRANCH   3   5
ATOM      5  N   UNL     1       8.426   8.855  18.007  0.00  0.00    +0.000 NA
ATOM      6  C   UNL     1       8.959   9.667  18.865  0.00  0.00    +0.000 C 
BRANCH   6   7
ATOM      7  C   UNL     1       9.395  10.983  18.465  0.00  0.00    +0.000 A 
ATOM      8  C   UNL     1       8.692  11.968  17.799  0.00  0.00    +0.000 A 
ATOM      9  C   UNL     1       9.483  13.134  17.567  0.00  0.00    +0.000 A 
ATOM     10  C   UNL     1      10.756  12.997  18.068  0.00  0.00    +0.000 A 
ATOM     11  S   UNL     1      10.991  11.481  18.824  0.00  0.00    +0.000 S 
ENDBRANCH   6   7
ENDBRANCH   3   5
BRANCH   2  12
ATOM     12  C   UNL     1       7.289   5.334  18.309  0.00  0.00    +0.000 C 
BRANCH  12  13
ATOM     13  C   UNL     1       5.824   4.984  18.203  0.00  0.00    +0.000 A 
ATOM     14  C   UNL     1       4.919   5.391  19.198  0.00  0.00    +0.000 A 
ATOM     15  C   UNL     1       3.557   5.096  19.083  0.00  0.00    +0.000 A 
ATOM     16  C   UNL     1       3.091   4.396  17.974  0.00  0.00    +0.000 A 
ATOM     17 CL   UNL     1       1.415   4.036  17.827  0.00  0.00    +0.000 Cl
ATOM     18  C   UNL     1       3.975   3.986  16.978  0.00  0.00    +0.000 A 
ATOM     19  C   UNL     1       5.338   4.281  17.092  0.00  0.00    +0.000 A 
ENDBRANCH  12  13
ENDBRANCH   2  12
TORSDOF 4
ENDMDL
MODEL 5
REMARK VINA RESULT:      -6.6      1.283      1.776
REMARK  Name = 
REMARK  4 active torsions:
REMARK  status: ('A' for Active; 'I' for Inactive)
REMARK    1  A    between atoms: C_2  and  C_3
REMARK    2  A    between atoms: C_3  and  C_4
REMARK    3  A    between atoms: N_11  and  N_12
REMARK    4  A    between atoms: C_13  and  C_14
REMARK                            x       y       z     vdW  Elec       q    Type
REMARK                         _______ _______ _______ _____ _____    ______ ____
ROOT
ATOM      1  O   UNL     1       7.692   6.122  18.629  0.00  0.00    +0.000 OA
ATOM      2  C   UNL     1       7.115   6.816  17.794  0.00  0.00    +0.000 C 
ATOM      3  N   UNL     1       7.436   8.132  17.482  0.00  0.00    +0.000 N 
ATOM      4  H   UNL     1       6.955   8.613  16.732  0.00  0.00    +0.000 HD
ENDROOT
BRANCH   3   5
ATOM      5  N   UNL     1       8.461   8.755  18.138  0.00  0.00    +0.000 NA
ATOM      6  C   UNL     1       8.492  10.048  18.049  0.00  0.00    +0.000 C 
BRANCH   6   7
ATOM      7  C   UNL     1       9.534  10.808  18.696  0.00  0.00    +0.000 A 
ATOM      8  C   UNL     1      10.679  11.355  18.151  0.00  0.00    +0.000 A 
ATOM      9  C   UNL     1      11.477  12.026  19.128  0.00  0.00    +0.000 A 
ATOM     10  C   UNL     1      10.909  11.968  20.379  0.00  0.00    +0.000 A 
ATOM     11  S   UNL     1       9.420  11.125  20.372  0.00  0.00    +0.000 S 
ENDBRANCH   6   7
ENDBRANCH   3   5
BRANCH   2  12
ATOM     12  C   UNL     1       5.937   6.285  16.995  0.00  0.00    +0.000 C 
BRANCH  12  13
ATOM     13  C   UNL     1       4.760   5.876  17.849  0.00  0.00    +0.000 A 
ATOM     14  C   UNL     1       4.788   4.673  18.574  0.00  0.00    +0.000 A 
ATOM     15  C   UNL     1       3.712   4.312  19.391  0.00  0.00    +0.000 A 
ATOM     16  C   UNL     1       2.604   5.149  19.489  0.00  0.00    +0.000 A 
ATOM     17 CL   UNL     1       1.281   4.708  20.496  0.00  0.00    +0.000 Cl
ATOM     18  C   UNL     1       2.561   6.345  18.776  0.00  0.00    +0.000 A 
ATOM     19  C   UNL     1       3.637   6.708  17.960  0.00  0.00    +0.000 A 
ENDBRANCH  12  13
ENDBRANCH   2  12
TORSDOF 4
ENDMDL
MODEL 6
REMARK VINA RESULT:      -6.6      1.104      1.484
REMARK  Name = 
REMARK  4 active torsions:
REMARK  status: ('A' for Active; 'I' for Inactive)
REMARK    1  A    between atoms: C_2  and  C_3
REMARK    2  A    between atoms: C_3  and  C_4
REMARK    3  A    between atoms: N_11  and  N_12
REMARK    4  A    between atoms: C_13  and  C_14
REMARK                            x       y       z     vdW  Elec       q    Type
REMARK                         _______ _______ _______ _____ _____    ______ ____
ROOT
ATOM      1  O   UNL     1       8.044   5.441  19.335  0.00  0.00    +0.000 OA
ATOM      2  C   UNL     1       7.551   5.864  18.292  0.00  0.00    +0.000 C 
ATOM      3  N   UNL     1       7.663   7.167  17.820  0.00  0.00    +0.000 N 
ATOM      4  H   UNL     1       7.284   7.420  16.915  0.00  0.00    +0.000 HD
ENDROOT
BRANCH   3   5
ATOM      5  N   UNL     1       8.359   8.095  18.545  0.00  0.00    +0.000 NA
ATOM      6  C   UNL     1       8.349   9.305  18.081  0.00  0.00    +0.000 C 
BRANCH   6   7
ATOM      7  C   UNL     1       9.056  10.363  18.761  0.00  0.00    +0.000 A 
ATOM      8  C   UNL     1       9.553  10.390  20.049  0.00  0.00    +0.000 A 
ATOM      9  C   UNL     1      10.179  11.635  20.362  0.00  0.00    +0.000 A 
ATOM     10  C   UNL     1      10.139  12.509  19.300  0.00  0.00    +0.000 A 
ATOM     11  S   UNL     1       9.366  11.827  17.934  0.00  0.00    +0.000 S 
ENDBRANCH   6   7
ENDBRANCH   3   5
BRANCH   2  12
ATOM     12  C   UNL     1       6.726   4.970  17.382  0.00  0.00    +0.000 C 
BRANCH  12  13
ATOM     13  C   UNL     1       5.321   4.726  17.883  0.00  0.00    +0.000 A 
ATOM     14  C   UNL     1       4.448   3.885  17.173  0.00  0.00    +0.000 A 
ATOM     15  C   UNL     1       3.160   3.631  17.655  0.00  0.00    +0.000 A 
ATOM     16  C   UNL     1       2.738   4.214  18.846  0.00  0.00    +0.000 A 
ATOM     17 CL   UNL     1       1.155   3.900  19.443  0.00  0.00    +0.000 Cl
ATOM     18  C   UNL     1       3.592   5.050  19.561  0.00  0.00    +0.000 A 
ATOM     19  C   UNL     1       4.881   5.303  19.082  0.00  0.00    +0.000 A 
ENDBRANCH  12  13
ENDBRANCH   2  12
TORSDOF 4
ENDMDL
MODEL 7
REMARK VINA RESULT:      -6.5      1.478      2.031
REMARK  Name = 
REMARK  4 active torsions:
REMARK  status: ('A' for Active; 'I' for Inactive)
REMARK    1  A    between atoms: C_2  and  C_3
REMARK    2  A    between atoms: C_3  and  C_4
REMARK    3  A    between atoms: N_11  and  N_12
REMARK    4  A    between atoms: C_13  and  C_14
REMARK                            x       y       z     vdW  Elec       q    Type
REMARK                         _______ _______ _______ _____ _____    ______ ____
ROOT
ATOM      1  O   UNL     1       7.190   7.811  16.950  0.00  0.00    +0.000 OA
ATOM      2  C   UNL     1       7.775   7.399  17.949  0.00  0.00    +0.000 C 
ATOM      3  N   UNL     1       8.553   8.172  18.803  0.00  0.00    +0.000 N 
ATOM      4  H   UNL     1       8.947   7.770  19.645  0.00  0.00    +0.000 HD
ENDROOT
BRANCH   3   5
ATOM      5  N   UNL     1       8.724   9.505  18.546  0.00  0.00    +0.000 NA
ATOM      6  C   UNL     1       9.377  10.178  19.440  0.00  0.00    +0.000 C 
BRANCH   6   7
ATOM      7  C   UNL     1       9.610  11.593  19.275  0.00  0.00    +0.000 A 
ATOM      8  C   UNL     1      10.215  12.482  20.141  0.00  0.00    +0.000 A 
ATOM      9  C   UNL     1      10.240  13.812  19.621  0.00  0.00    +0.000 A 
ATOM     10  C   UNL     1       9.656  13.886  18.378  0.00  0.00    +0.000 A 
ATOM     11  S   UNL     1       9.098  12.362  17.837  0.00  0.00    +0.000 S 
ENDBRANCH   6   7
ENDBRANCH   3   5
BRANCH   2  12
ATOM     12  C   UNL     1       7.711   5.938  18.362  0.00  0.00    +0.000 C 
BRANCH  12  13
ATOM     13  C   UNL     1       6.389   5.276  18.050  0.00  0.00    +0.000 A 
ATOM     14  C   UNL     1       6.226   4.532  16.869  0.00  0.00    +0.000 A 
ATOM     15  C   UNL     1       5.014   3.890  16.597  0.00  0.00    +0.000 A 
ATOM     16  C   UNL     1       3.960   3.986  17.501  0.00  0.00    +0.000 A 
ATOM     17 CL   UNL     1       2.469   3.194  17.170  0.00  0.00    +0.000 Cl
ATOM     18  C   UNL     1       4.107   4.720  18.676  0.00  0.00    +0.000 A 
ATOM     19  C   UNL     1       5.319   5.361  18.951  0.00  0.00    +0.000 A 
ENDBRANCH  12  13
ENDBRANCH   2  12
TORSDOF 4
ENDMDL
MODEL 8
REMARK VINA RESULT:      -6.5      1.339      1.944
REMARK  Name = 
REMARK  4 active torsions:
REMARK  status: ('A' for Active; 'I' for Inactive)
REMARK    1  A    between atoms: C_2  and  C_3
REMARK    2  A    between atoms: C_3  and  C_4
REMARK    3  A    between atoms: N_11  and  N_12
REMARK    4  A    between atoms: C_13  and  C_14
REMARK                            x       y       z     vdW  Elec       q    Type
REMARK                         _______ _______ _______ _____ _____    ______ ____
ROOT
ATOM      1  O   UNL     1       7.685   7.058  16.538  0.00  0.00    +0.000 OA
ATOM      2  C   UNL     1       7.723   6.939  17.761  0.00  0.00    +0.000 C 
ATOM      3  N   UNL     1       8.191   7.902  18.648  0.00  0.00    +0.000 N 
ATOM      4  H   UNL     1       8.126   7.753  19.648  0.00  0.00    +0.000 HD
ENDROOT
BRANCH   3   5
ATOM      5  N   UNL     1       8.669   9.091  18.171  0.00  0.00    +0.000 NA
ATOM      6  C   UNL     1       9.119   9.922  19.058  0.00  0.00    +0.000 C 
BRANCH   6   7
ATOM      7  C   UNL     1       9.641  11.209  18.667  0.00  0.00    +0.000 A 
ATOM      8  C   UNL     1       9.092  12.151  17.820  0.00  0.00    +0.000 A 
ATOM      9  C   UNL     1       9.928  13.298  17.671  0.00  0.00    +0.000 A 
ATOM     10  C   UNL     1      11.081  13.191  18.412  0.00  0.00    +0.000 A 
ATOM     11  S   UNL     1      11.147  11.725  19.292  0.00  0.00    +0.000 S 
ENDBRANCH   6   7
ENDBRANCH   3   5
BRANCH   2  12
ATOM     12  C   UNL     1       7.254   5.671  18.452  0.00  0.00    +0.000 C 
BRANCH  12  13
ATOM     13  C   UNL     1       5.802   5.342  18.198  0.00  0.00    +0.000 A 
ATOM     14  C   UNL     1       5.384   4.006  18.073  0.00  0.00    +0.000 A 
ATOM     15  C   UNL     1       4.034   3.700  17.873  0.00  0.00    +0.000 A 
ATOM     16  C   UNL     1       3.095   4.725  17.797  0.00  0.00    +0.000 A 
ATOM     17 CL   UNL     1       1.433   4.351  17.555  0.00  0.00    +0.000 Cl
ATOM     18  C   UNL     1       3.494   6.055  17.919  0.00  0.00    +0.000 A 
ATOM     19  C   UNL     1       4.843   6.361  18.122  0.00  0.00    +0.000 A 
ENDBRANCH  12  13
ENDBRANCH   2  12
TORSDOF 4
ENDMDL
MODEL 9
REMARK VINA RESULT:      -6.4      1.382      1.627
REMARK  Name = 
REMARK  4 active torsions:
REMARK  status: ('A' for Active; 'I' for Inactive)
REMARK    1  A    between atoms: C_2  and  C_3
REMARK    2  A    between atoms: C_3  and  C_4
REMARK    3  A    between atoms: N_11  and  N_12
REMARK    4  A    between atoms: C_13  and  C_14
REMARK                            x       y       z     vdW  Elec       q    Type
REMARK                         _______ _______ _______ _____ _____    ______ ____
ROOT
ATOM      1  O   UNL     1       7.148   7.828  16.936  0.00  0.00    +0.000 OA
ATOM      2  C   UNL     1       7.732   7.368  17.914  0.00  0.00    +0.000 C 
ATOM      3  N   UNL     1       8.525   8.097  18.794  0.00  0.00    +0.000 N 
ATOM      4  H   UNL     1       8.918   7.655  19.617  0.00  0.00    +0.000 HD
ENDROOT
BRANCH   3   5
ATOM      5  N   UNL     1       8.710   9.436  18.592  0.00  0.00    +0.000 NA
ATOM      6  C   UNL     1       9.335  10.074  19.531  0.00  0.00    +0.000 C 
BRANCH   6   7
ATOM      7  C   UNL     1       9.580  11.492  19.425  0.00  0.00    +0.000 A 
ATOM      8  C   UNL     1       9.744  12.424  20.431  0.00  0.00    +0.000 A 
ATOM      9  C   UNL     1       9.951  13.741  19.919  0.00  0.00    +0.000 A 
ATOM     10  C   UNL     1       9.939  13.764  18.544  0.00  0.00    +0.000 A 
ATOM     11  S   UNL     1       9.697  12.207  17.877  0.00  0.00    +0.000 S 
ENDBRANCH   6   7
ENDBRANCH   3   5
BRANCH   2  12
ATOM     12  C   UNL     1       7.653   5.893  18.267  0.00  0.00    +0.000 C 
BRANCH  12  13
ATOM     13  C   UNL     1       6.271   5.303  18.106  0.00  0.00    +0.000 A 
ATOM     14  C   UNL     1       5.303   5.471  19.109  0.00  0.00    +0.000 A 
ATOM     15  C   UNL     1       4.014   4.955  18.945  0.00  0.00    +0.000 A 
ATOM     16  C   UNL     1       3.685   4.270  17.778  0.00  0.00    +0.000 A 
ATOM     17 CL   UNL     1       2.098   3.638  17.572  0.00  0.00    +0.000 Cl
ATOM     18  C   UNL     1       4.634   4.096  16.774  0.00  0.00    +0.000 A 
ATOM     19  C   UNL     1       5.923   4.613  16.937  0.00  0.00    +0.000 A 
ENDBRANCH  12  13
ENDBRANCH   2  12
TORSDOF 4
ENDMDL
