MODEL 1
REMARK VINA RESULT:      -9.4      0.000      0.000
REMARK  Name = 
REMARK  7 active torsions:
REMARK  status: ('A' for Active; 'I' for Inactive)
REMARK    1  A    between atoms: C_2  and  C_5
REMARK    2  A    between atoms: C_9  and  N_10
REMARK    3  A    between atoms: N_13  and  C_14
REMARK    4  A    between atoms: C_14  and  C_15
REMARK    5  A    between atoms: C_15  and  C_16
REMARK    6  A    between atoms: C_16  and  O_17
REMARK    7  A    between atoms: O_17  and  C_18
REMARK                            x       y       z     vdW  Elec       q    Type
REMARK                         _______ _______ _______ _____ _____    ______ ____
ROOT
ATOM      1  N   UNL     1       5.207   4.585  17.871  0.00  0.00    +0.000 N 
ATOM      2  C   UNL     1       6.124   5.070  18.908  0.00  0.00    +0.000 C 
ATOM      3  C   UNL     1       7.532   5.238  18.289  0.00  0.00    +0.000 C 
ATOM      4  N   UNL     1       7.582   6.103  17.080  0.00  0.00    +0.000 NA
ATOM      5  C   UNL     1       6.613   5.556  16.093  0.00  0.00    +0.000 C 
ATOM      6  C   UNL     1       5.175   5.379  16.633  0.00  0.00    +0.000 C 
ENDROOT
BRANCH   1  11
ATOM      7  C   UNL     1       2.253   3.377  19.731  0.00  0.00    +0.000 A 
ATOM      8  C   UNL     1       1.793   2.360  18.890  0.00  0.00    +0.000 A 
ATOM      9  C   UNL     1       2.478   2.067  17.712  0.00  0.00    +0.000 A 
ATOM     10  C   UNL     1       3.623   2.792  17.363  0.00  0.00    +0.000 A 
ATOM     11  C   UNL     1       4.114   3.806  18.189  0.00  0.00    +0.000 A 
ATOM     12  C   UNL     1       3.413   4.078  19.371  0.00  0.00    +0.000 A 
BRANCH   7  14
ATOM     13  F   UNL     1       2.363   4.215  21.977  0.00  0.00    +0.000 F 
ATOM     14  C   UNL     1       1.536   3.764  20.996  0.00  0.00    +0.000 C 
ATOM     15  F   UNL     1       0.841   2.725  21.541  0.00  0.00    +0.000 F 
ATOM     16  F   UNL     1       0.622   4.754  20.793  0.00  0.00    +0.000 F 
ENDBRANCH   7  14
ENDBRANCH   1  11
BRANCH   4  17
ATOM     17  C   UNL     1       7.281   7.512  17.383  0.00  0.00    +0.000 C 
BRANCH  17  18
ATOM     18  C   UNL     1       8.323   8.171  18.286  0.00  0.00    +0.000 C 
BRANCH  18  19
ATOM     19  C   UNL     1       8.433   9.668  18.037  0.00  0.00    +0.000 C 
BRANCH  19  20
ATOM     20  O   UNL     1       8.899  10.266  19.245  0.00  0.00    +0.000 OA
BRANCH  20  21
ATOM     21  C   UNL     1       9.601  11.435  19.111  0.00  0.00    +0.000 A 
ATOM     22  C   UNL     1      10.673  11.568  20.028  0.00  0.00    +0.000 A 
ATOM     23  C   UNL     1      11.477  12.709  20.054  0.00  0.00    +0.000 A 
ATOM     24  C   UNL     1      11.173  13.691  19.142  0.00  0.00    +0.000 A 
ATOM     25  N   UNL     1      11.770  14.927  18.929  0.00  0.00    +0.000 N 
ATOM     26  C   UNL     1      11.098  15.571  17.883  0.00  0.00    +0.000 A 
ATOM     27  S   UNL     1      11.437  17.062  17.271  0.00  0.00    +0.000 S 
ATOM     28  N   UNL     1      10.079  14.712  17.455  0.00  0.00    +0.000 N 
ATOM     29  C   UNL     1      10.124  13.558  18.231  0.00  0.00    +0.000 A 
ATOM     30  C   UNL     1       9.321  12.445  18.188  0.00  0.00    +0.000 A 
ATOM     31  H   UNL     1      12.555  15.312  19.435  0.00  0.00    +0.000 HD
ATOM     32  H   UNL     1       9.426  14.912  16.709  0.00  0.00    +0.000 HD
ENDBRANCH  20  21
ENDBRANCH  19  20
ENDBRANCH  18  19
ENDBRANCH  17  18
ENDBRANCH   4  17
TORSDOF 7
ENDMDL
MODEL 2
REMARK VINA RESULT:      -9.2      0.956      1.456
REMARK  Name = 
REMARK  7 active torsions:
REMARK  status: ('A' for Active; 'I' for Inactive)
REMARK    1  A    between atoms: C_2  and  C_5
REMARK    2  A    between atoms: C_9  and  N_10
REMARK    3  A    between atoms: N_13  and  C_14
REMARK    4  A    between atoms: C_14  and  C_15
REMARK    5  A    between atoms: C_15  and  C_16
REMARK    6  A    between atoms: C_16  and  O_17
REMARK    7  A    between atoms: O_17  and  C_18
REMARK                            x       y       z     vdW  Elec       q    Type
REMARK                         _______ _______ _______ _____ _____    ______ ____
ROOT
ATOM      1  N   UNL     1       5.168   4.458  17.758  0.00  0.00    +0.000 N 
ATOM      2  C   UNL     1       6.128   4.924  18.765  0.00  0.00    +0.000 C 
ATOM      3  C   UNL     1       7.523   5.043  18.106  0.00  0.00    +0.000 C 
ATOM      4  N   UNL     1       7.565   5.896  16.887  0.00  0.00    +0.000 NA
ATOM      5  C   UNL     1       6.553   5.369  15.933  0.00  0.00    +0.000 C 
ATOM      6  C   UNL     1       5.126   5.241  16.513  0.00  0.00    +0.000 C 
ENDROOT
BRANCH   1  11
ATOM      7  C   UNL     1       2.216   3.374  19.697  0.00  0.00    +0.000 A 
ATOM      8  C   UNL     1       1.717   2.349  18.890  0.00  0.00    +0.000 A 
ATOM      9  C   UNL     1       2.373   2.008  17.708  0.00  0.00    +0.000 A 
ATOM     10  C   UNL     1       3.530   2.694  17.322  0.00  0.00    +0.000 A 
ATOM     11  C   UNL     1       4.061   3.716  18.114  0.00  0.00    +0.000 A 
ATOM     12  C   UNL     1       3.387   4.035  19.300  0.00  0.00    +0.000 A 
BRANCH   7  14
ATOM     13  F   UNL     1       0.531   4.711  20.759  0.00  0.00    +0.000 F 
ATOM     14  C   UNL     1       1.530   3.811  20.963  0.00  0.00    +0.000 C 
ATOM     15  F   UNL     1       2.387   4.397  21.846  0.00  0.00    +0.000 F 
ATOM     16  F   UNL     1       0.963   2.769  21.632  0.00  0.00    +0.000 F 
ENDBRANCH   7  14
ENDBRANCH   1  11
BRANCH   4  17
ATOM     17  C   UNL     1       7.315   7.316  17.184  0.00  0.00    +0.000 C 
BRANCH  17  18
ATOM     18  C   UNL     1       8.221   7.871  18.283  0.00  0.00    +0.000 C 
BRANCH  18  19
ATOM     19  C   UNL     1       8.416   9.374  18.161  0.00  0.00    +0.000 C 
BRANCH  19  20
ATOM     20  O   UNL     1       9.204   9.792  19.274  0.00  0.00    +0.000 OA
BRANCH  20  21
ATOM     21  C   UNL     1       9.763  11.039  19.187  0.00  0.00    +0.000 A 
ATOM     22  C   UNL     1      10.291  11.343  17.907  0.00  0.00    +0.000 A 
ATOM     23  C   UNL     1      10.923  12.560  17.646  0.00  0.00    +0.000 A 
ATOM     24  C   UNL     1      11.003  13.444  18.695  0.00  0.00    +0.000 A 
ATOM     25  N   UNL     1      11.572  14.710  18.754  0.00  0.00    +0.000 N 
ATOM     26  C   UNL     1      11.401  15.214  20.049  0.00  0.00    +0.000 A 
ATOM     27  S   UNL     1      11.912  16.678  20.606  0.00  0.00    +0.000 S 
ATOM     28  N   UNL     1      10.716  14.240  20.785  0.00  0.00    +0.000 N 
ATOM     29  C   UNL     1      10.475  13.152  19.953  0.00  0.00    +0.000 A 
ATOM     30  C   UNL     1       9.848  11.962  20.232  0.00  0.00    +0.000 A 
ATOM     31  H   UNL     1      12.036  15.198  18.001  0.00  0.00    +0.000 HD
ATOM     32  H   UNL     1      10.453  14.327  21.757  0.00  0.00    +0.000 HD
ENDBRANCH  20  21
ENDBRANCH  19  20
ENDBRANCH  18  19
ENDBRANCH  17  18
ENDBRANCH   4  17
TORSDOF 7
ENDMDL
MODEL 3
REMARK VINA RESULT:      -9.1      1.049      1.156
REMARK  Name = 
REMARK  7 active torsions:
REMARK  status: ('A' for Active; 'I' for Inactive)
REMARK    1  A    between atoms: C_2  and  C_5
REMARK    2  A    between atoms: C_9  and  N_10
REMARK    3  A    between atoms: N_13  and  C_14
REMARK    4  A    between atoms: C_14  and  C_15
REMARK    5  A    between atoms: C_15  and  C_16
REMARK    6  A    between atoms: C_16  and  O_17
REMARK    7  A    between atoms: O_17  and  C_18
REMARK                            x       y       z     vdW  Elec       q    Type
REMARK                         _______ _______ _______ _____ _____    ______ ____
ROOT
ATOM      1  N   UNL     1       5.269   4.588  18.047  0.00  0.00    +0.000 N 
ATOM      2  C   UNL     1       6.035   5.212  19.132  0.00  0.00    +0.000 C 
ATOM      3  C   UNL     1       7.498   5.401  18.664  0.00  0.00    +0.000 C 
ATOM      4  N   UNL     1       7.652   6.159  17.392  0.00  0.00    +0.000 NA
ATOM      5  C   UNL     1       6.831   5.475  16.358  0.00  0.00    +0.000 C 
ATOM      6  C   UNL     1       5.348   5.268  16.745  0.00  0.00    +0.000 C 
ENDROOT
BRANCH   1  11
ATOM      7  C   UNL     1       2.528   3.002  19.949  0.00  0.00    +0.000 A 
ATOM      8  C   UNL     1       1.890   2.263  18.949  0.00  0.00    +0.000 A 
ATOM      9  C   UNL     1       2.383   2.281  17.646  0.00  0.00    +0.000 A 
ATOM     10  C   UNL     1       3.514   3.043  17.331  0.00  0.00    +0.000 A 
ATOM     11  C   UNL     1       4.181   3.782  18.311  0.00  0.00    +0.000 A 
ATOM     12  C   UNL     1       3.670   3.743  19.614  0.00  0.00    +0.000 A 
BRANCH   7  14
ATOM     13  F   UNL     1       2.281   4.227  21.997  0.00  0.00    +0.000 F 
ATOM     14  C   UNL     1       2.020   3.052  21.364  0.00  0.00    +0.000 C 
ATOM     15  F   UNL     1       2.561   2.077  22.148  0.00  0.00    +0.000 F 
ATOM     16  F   UNL     1       0.670   2.879  21.437  0.00  0.00    +0.000 F 
ENDBRANCH   7  14
ENDBRANCH   1  11
BRANCH   4  17
ATOM     17  C   UNL     1       7.255   7.571  17.527  0.00  0.00    +0.000 C 
BRANCH  17  18
ATOM     18  C   UNL     1       8.273   8.413  18.296  0.00  0.00    +0.000 C 
BRANCH  18  19
ATOM     19  C   UNL     1       8.422   9.808  17.710  0.00  0.00    +0.000 C 
BRANCH  19  20
ATOM     20  O   UNL     1       8.932  10.650  18.742  0.00  0.00    +0.000 OA
BRANCH  20  21
ATOM     21  C   UNL     1       9.441  11.857  18.344  0.00  0.00    +0.000 A 
ATOM     22  C   UNL     1      10.625  11.754  17.571  0.00  0.00    +0.000 A 
ATOM     23  C   UNL     1      11.296  12.886  17.104  0.00  0.00    +0.000 A 
ATOM     24  C   UNL     1      10.745  14.101  17.433  0.00  0.00    +0.000 A 
ATOM     25  N   UNL     1      11.176  15.387  17.132  0.00  0.00    +0.000 N 
ATOM     26  C   UNL     1      10.276  16.300  17.694  0.00  0.00    +0.000 A 
ATOM     27  S   UNL     1      10.366  17.943  17.611  0.00  0.00    +0.000 S 
ATOM     28  N   UNL     1       9.283  15.557  18.344  0.00  0.00    +0.000 N 
ATOM     29  C   UNL     1       9.575  14.206  18.185  0.00  0.00    +0.000 A 
ATOM     30  C   UNL     1       8.898  13.106  18.654  0.00  0.00    +0.000 A 
ATOM     31  H   UNL     1      11.998  15.639  16.601  0.00  0.00    +0.000 HD
ATOM     32  H   UNL     1       8.497  15.950  18.842  0.00  0.00    +0.000 HD
ENDBRANCH  20  21
ENDBRANCH  19  20
ENDBRANCH  18  19
ENDBRANCH  17  18
ENDBRANCH   4  17
TORSDOF 7
ENDMDL
MODEL 4
REMARK VINA RESULT:      -9.0      0.826      1.068
REMARK  Name = 
REMARK  7 active torsions:
REMARK  status: ('A' for Active; 'I' for Inactive)
REMARK    1  A    between atoms: C_2  and  C_5
REMARK    2  A    between atoms: C_9  and  N_10
REMARK    3  A    between atoms: N_13  and  C_14
REMARK    4  A    between atoms: C_14  and  C_15
REMARK    5  A    between atoms: C_15  and  C_16
REMARK    6  A    between atoms: C_16  and  O_17
REMARK    7  A    between atoms: O_17  and  C_18
REMARK                            x       y       z     vdW  Elec       q    Type
REMARK                         _______ _______ _______ _____ _____    ______ ____
ROOT
ATOM      1  N   UNL     1       5.263   4.627  17.918  0.00  0.00    +0.000 N 
ATOM      2  C   UNL     1       6.158   5.184  18.939  0.00  0.00    +0.000 C 
ATOM      3  C   UNL     1       7.552   5.416  18.307  0.00  0.00    +0.000 C 
ATOM      4  N   UNL     1       7.547   6.257  17.079  0.00  0.00    +0.000 NA
ATOM      5  C   UNL     1       6.605   5.636  16.111  0.00  0.00    +0.000 C 
ATOM      6  C   UNL     1       5.181   5.392  16.664  0.00  0.00    +0.000 C 
ENDROOT
BRANCH   1  11
ATOM      7  C   UNL     1       2.326   3.356  19.762  0.00  0.00    +0.000 A 
ATOM      8  C   UNL     1       1.978   2.242  18.993  0.00  0.00    +0.000 A 
ATOM      9  C   UNL     1       2.732   1.907  17.870  0.00  0.00    +0.000 A 
ATOM     10  C   UNL     1       3.836   2.685  17.504  0.00  0.00    +0.000 A 
ATOM     11  C   UNL     1       4.217   3.797  18.260  0.00  0.00    +0.000 A 
ATOM     12  C   UNL     1       3.447   4.110  19.387  0.00  0.00    +0.000 A 
BRANCH   7  14
ATOM     13  F   UNL     1       0.669   4.812  20.706  0.00  0.00    +0.000 F 
ATOM     14  C   UNL     1       1.529   3.788  20.962  0.00  0.00    +0.000 C 
ATOM     15  F   UNL     1       2.318   4.212  21.989  0.00  0.00    +0.000 F 
ATOM     16  F   UNL     1       0.767   2.779  21.471  0.00  0.00    +0.000 F 
ENDBRANCH   7  14
ENDBRANCH   1  11
BRANCH   4  17
ATOM     17  C   UNL     1       7.171   7.653  17.355  0.00  0.00    +0.000 C 
BRANCH  17  18
ATOM     18  C   UNL     1       8.228   8.417  18.152  0.00  0.00    +0.000 C 
BRANCH  18  19
ATOM     19  C   UNL     1       8.197   9.909  17.862  0.00  0.00    +0.000 C 
BRANCH  19  20
ATOM     20  O   UNL     1       9.539  10.386  17.942  0.00  0.00    +0.000 OA
BRANCH  20  21
ATOM     21  C   UNL     1       9.697  11.695  18.312  0.00  0.00    +0.000 A 
ATOM     22  C   UNL     1      10.216  11.863  19.620  0.00  0.00    +0.000 A 
ATOM     23  C   UNL     1      10.414  13.130  20.173  0.00  0.00    +0.000 A 
ATOM     24  C   UNL     1      10.081  14.200  19.379  0.00  0.00    +0.000 A 
ATOM     25  N   UNL     1      10.151  15.562  19.642  0.00  0.00    +0.000 N 
ATOM     26  C   UNL     1       9.695  16.257  18.516  0.00  0.00    +0.000 A 
ATOM     27  S   UNL     1       9.586  17.893  18.350  0.00  0.00    +0.000 S 
ATOM     28  N   UNL     1       9.345  15.302  17.554  0.00  0.00    +0.000 N 
ATOM     29  C   UNL     1       9.579  14.039  18.087  0.00  0.00    +0.000 A 
ATOM     30  C   UNL     1       9.377  12.803  17.523  0.00  0.00    +0.000 A 
ATOM     31  H   UNL     1      10.472  15.995  20.497  0.00  0.00    +0.000 HD
ATOM     32  H   UNL     1       8.981  15.512  16.635  0.00  0.00    +0.000 HD
ENDBRANCH  20  21
ENDBRANCH  19  20
ENDBRANCH  18  19
ENDBRANCH  17  18
ENDBRANCH   4  17
TORSDOF 7
ENDMDL
MODEL 5
REMARK VINA RESULT:      -8.9      6.794      8.305
REMARK  Name = 
REMARK  7 active torsions:
REMARK  status: ('A' for Active; 'I' for Inactive)
REMARK    1  A    between atoms: C_2  and  C_5
REMARK    2  A    between atoms: C_9  and  N_10
REMARK    3  A    between atoms: N_13  and  C_14
REMARK    4  A    between atoms: C_14  and  C_15
REMARK    5  A    between atoms: C_15  and  C_16
REMARK    6  A    between atoms: C_16  and  O_17
REMARK    7  A    between atoms: O_17  and  C_18
REMARK                            x       y       z     vdW  Elec       q    Type
REMARK                         _______ _______ _______ _____ _____    ______ ____
ROOT
ATOM      1  N   UNL     1       4.294   3.402  17.390  0.00  0.00    +0.000 N 
ATOM      2  C   UNL     1       2.901   3.240  16.960  0.00  0.00    +0.000 C 
ATOM      3  C   UNL     1       2.269   2.068  17.748  0.00  0.00    +0.000 C 
ATOM      4  N   UNL     1       2.365   2.188  19.228  0.00  0.00    +0.000 NA
ATOM      5  C   UNL     1       3.799   2.369  19.574  0.00  0.00    +0.000 C 
ATOM      6  C   UNL     1       4.497   3.538  18.841  0.00  0.00    +0.000 C 
ENDROOT
BRANCH   1  11
ATOM      7  C   UNL     1       6.101   4.064  14.237  0.00  0.00    +0.000 A 
ATOM      8  C   UNL     1       7.089   4.954  14.666  0.00  0.00    +0.000 A 
ATOM      9  C   UNL     1       7.162   5.320  16.009  0.00  0.00    +0.000 A 
ATOM     10  C   UNL     1       6.245   4.804  16.931  0.00  0.00    +0.000 A 
ATOM     11  C   UNL     1       5.254   3.902  16.535  0.00  0.00    +0.000 A 
ATOM     12  C   UNL     1       5.204   3.545  15.181  0.00  0.00    +0.000 A 
BRANCH   7  14
ATOM     13  F   UNL     1       4.701   3.879  12.297  0.00  0.00    +0.000 F 
ATOM     14  C   UNL     1       5.948   3.662  12.795  0.00  0.00    +0.000 C 
ATOM     15  F   UNL     1       6.208   2.340  12.591  0.00  0.00    +0.000 F 
ATOM     16  F   UNL     1       6.801   4.338  11.974  0.00  0.00    +0.000 F 
ENDBRANCH   7  14
ENDBRANCH   1  11
BRANCH   4  17
ATOM     17  C   UNL     1       1.555   3.299  19.755  0.00  0.00    +0.000 C 
BRANCH  17  18
ATOM     18  C   UNL     1       1.996   3.761  21.144  0.00  0.00    +0.000 C 
BRANCH  18  19
ATOM     19  C   UNL     1       2.019   5.277  21.263  0.00  0.00    +0.000 C 
BRANCH  19  20
ATOM     20  O   UNL     1       2.792   5.777  20.174  0.00  0.00    +0.000 OA
BRANCH  20  21
ATOM     21  C   UNL     1       2.376   6.963  19.629  0.00  0.00    +0.000 A 
ATOM     22  C   UNL     1       2.816   7.169  18.298  0.00  0.00    +0.000 A 
ATOM     23  C   UNL     1       2.509   8.336  17.597  0.00  0.00    +0.000 A 
ATOM     24  C   UNL     1       1.756   9.270  18.267  0.00  0.00    +0.000 A 
ATOM     25  N   UNL     1       1.304  10.516  17.852  0.00  0.00    +0.000 N 
ATOM     26  C   UNL     1       0.575  11.095  18.897  0.00  0.00    +0.000 A 
ATOM     27  S   UNL     1      -0.155  12.572  18.883  0.00  0.00    +0.000 S 
ATOM     28  N   UNL     1       0.583  10.186  19.962  0.00  0.00    +0.000 N 
ATOM     29  C   UNL     1       1.313   9.066  19.574  0.00  0.00    +0.000 A 
ATOM     30  C   UNL     1       1.602   7.925  20.282  0.00  0.00    +0.000 A 
ATOM     31  H   UNL     1       1.466  10.948  16.953  0.00  0.00    +0.000 HD
ATOM     32  H   UNL     1       0.135  10.334  20.855  0.00  0.00    +0.000 HD
ENDBRANCH  20  21
ENDBRANCH  19  20
ENDBRANCH  18  19
ENDBRANCH  17  18
ENDBRANCH   4  17
TORSDOF 7
ENDMDL
MODEL 6
REMARK VINA RESULT:      -8.8      1.212      1.315
REMARK  Name = 
REMARK  7 active torsions:
REMARK  status: ('A' for Active; 'I' for Inactive)
REMARK    1  A    between atoms: C_2  and  C_5
REMARK    2  A    between atoms: C_9  and  N_10
REMARK    3  A    between atoms: N_13  and  C_14
REMARK    4  A    between atoms: C_14  and  C_15
REMARK    5  A    between atoms: C_15  and  C_16
REMARK    6  A    between atoms: C_16  and  O_17
REMARK    7  A    between atoms: O_17  and  C_18
REMARK                            x       y       z     vdW  Elec       q    Type
REMARK                         _______ _______ _______ _____ _____    ______ ____
ROOT
ATOM      1  N   UNL     1       5.002   4.914  17.817  0.00  0.00    +0.000 N 
ATOM      2  C   UNL     1       6.322   4.501  18.308  0.00  0.00    +0.000 C 
ATOM      3  C   UNL     1       7.390   4.909  17.266  0.00  0.00    +0.000 C 
ATOM      4  N   UNL     1       7.381   6.350  16.895  0.00  0.00    +0.000 NA
ATOM      5  C   UNL     1       6.010   6.687  16.431  0.00  0.00    +0.000 C 
ATOM      6  C   UNL     1       4.885   6.328  17.430  0.00  0.00    +0.000 C 
ENDROOT
BRANCH   1  11
ATOM      7  C   UNL     1       2.446   3.332  19.964  0.00  0.00    +0.000 A 
ATOM      8  C   UNL     1       1.502   2.927  19.018  0.00  0.00    +0.000 A 
ATOM      9  C   UNL     1       1.725   3.166  17.663  0.00  0.00    +0.000 A 
ATOM     10  C   UNL     1       2.891   3.817  17.245  0.00  0.00    +0.000 A 
ATOM     11  C   UNL     1       3.860   4.224  18.166  0.00  0.00    +0.000 A 
ATOM     12  C   UNL     1       3.615   3.967  19.522  0.00  0.00    +0.000 A 
BRANCH   7  14
ATOM     13  F   UNL     1       3.062   2.197  21.986  0.00  0.00    +0.000 F 
ATOM     14  C   UNL     1       2.242   3.136  21.442  0.00  0.00    +0.000 C 
ATOM     15  F   UNL     1       0.973   2.745  21.747  0.00  0.00    +0.000 F 
ATOM     16  F   UNL     1       2.459   4.278  22.153  0.00  0.00    +0.000 F 
ENDBRANCH   7  14
ENDBRANCH   1  11
BRANCH   4  17
ATOM     17  C   UNL     1       7.785   7.221  18.011  0.00  0.00    +0.000 C 
BRANCH  17  18
ATOM     18  C   UNL     1       7.812   8.703  17.641  0.00  0.00    +0.000 C 
BRANCH  18  19
ATOM     19  C   UNL     1       8.617   9.528  18.633  0.00  0.00    +0.000 C 
BRANCH  19  20
ATOM     20  O   UNL     1       9.695  10.124  17.914  0.00  0.00    +0.000 OA
BRANCH  20  21
ATOM     21  C   UNL     1       9.837  11.480  18.049  0.00  0.00    +0.000 A 
ATOM     22  C   UNL     1      11.116  11.880  18.509  0.00  0.00    +0.000 A 
ATOM     23  C   UNL     1      11.428  13.222  18.730  0.00  0.00    +0.000 A 
ATOM     24  C   UNL     1      10.429  14.131  18.477  0.00  0.00    +0.000 A 
ATOM     25  N   UNL     1      10.426  15.514  18.609  0.00  0.00    +0.000 N 
ATOM     26  C   UNL     1       9.167  15.994  18.228  0.00  0.00    +0.000 A 
ATOM     27  S   UNL     1       8.680  17.567  18.220  0.00  0.00    +0.000 S 
ATOM     28  N   UNL     1       8.396  14.885  17.859  0.00  0.00    +0.000 N 
ATOM     29  C   UNL     1       9.172  13.741  18.015  0.00  0.00    +0.000 A 
ATOM     30  C   UNL     1       8.844  12.427  17.789  0.00  0.00    +0.000 A 
ATOM     31  H   UNL     1      11.193  16.091  18.926  0.00  0.00    +0.000 HD
ATOM     32  H   UNL     1       7.438  14.926  17.539  0.00  0.00    +0.000 HD
ENDBRANCH  20  21
ENDBRANCH  19  20
ENDBRANCH  18  19
ENDBRANCH  17  18
ENDBRANCH   4  17
TORSDOF 7
ENDMDL
MODEL 7
REMARK VINA RESULT:      -8.8      0.996      1.018
REMARK  Name = 
REMARK  7 active torsions:
REMARK  status: ('A' for Active; 'I' for Inactive)
REMARK    1  A    between atoms: C_2  and  C_5
REMARK    2  A    between atoms: C_9  and  N_10
REMARK    3  A    between atoms: N_13  and  C_14
REMARK    4  A    between atoms: C_14  and  C_15
REMARK    5  A    between atoms: C_15  and  C_16
REMARK    6  A    between atoms: C_16  and  O_17
REMARK    7  A    between atoms: O_17  and  C_18
REMARK                            x       y       z     vdW  Elec       q    Type
REMARK                         _______ _______ _______ _____ _____    ______ ____
ROOT
ATOM      1  N   UNL     1       5.166   4.592  17.842  0.00  0.00    +0.000 N 
ATOM      2  C   UNL     1       6.475   4.311  18.443  0.00  0.00    +0.000 C 
ATOM      3  C   UNL     1       7.581   4.750  17.454  0.00  0.00    +0.000 C 
ATOM      4  N   UNL     1       7.489   6.165  17.004  0.00  0.00    +0.000 NA
ATOM      5  C   UNL     1       6.133   6.369  16.431  0.00  0.00    +0.000 C 
ATOM      6  C   UNL     1       4.970   5.972  17.370  0.00  0.00    +0.000 C 
ENDROOT
BRANCH   1  11
ATOM      7  C   UNL     1       2.196   3.418  19.697  0.00  0.00    +0.000 A 
ATOM      8  C   UNL     1       1.708   2.427  18.840  0.00  0.00    +0.000 A 
ATOM      9  C   UNL     1       2.379   2.141  17.653  0.00  0.00    +0.000 A 
ATOM     10  C   UNL     1       3.539   2.846  17.310  0.00  0.00    +0.000 A 
ATOM     11  C   UNL     1       4.057   3.833  18.152  0.00  0.00    +0.000 A 
ATOM     12  C   UNL     1       3.369   4.098  19.343  0.00  0.00    +0.000 A 
BRANCH   7  14
ATOM     13  F   UNL     1       2.342   4.110  21.990  0.00  0.00    +0.000 F 
ATOM     14  C   UNL     1       1.494   3.797  20.973  0.00  0.00    +0.000 C 
ATOM     15  F   UNL     1       0.695   2.799  21.446  0.00  0.00    +0.000 F 
ATOM     16  F   UNL     1       0.682   4.880  20.817  0.00  0.00    +0.000 F 
ENDBRANCH   7  14
ENDBRANCH   1  11
BRANCH   4  17
ATOM     17  C   UNL     1       7.746   7.120  18.095  0.00  0.00    +0.000 C 
BRANCH  17  18
ATOM     18  C   UNL     1       7.870   8.566  17.615  0.00  0.00    +0.000 C 
BRANCH  18  19
ATOM     19  C   UNL     1       8.665   9.426  18.585  0.00  0.00    +0.000 C 
BRANCH  19  20
ATOM     20  O   UNL     1       9.313  10.440  17.820  0.00  0.00    +0.000 OA
BRANCH  20  21
ATOM     21  C   UNL     1       9.745  11.540  18.514  0.00  0.00    +0.000 A 
ATOM     22  C   UNL     1       9.889  11.320  19.906  0.00  0.00    +0.000 A 
ATOM     23  C   UNL     1      10.292  12.339  20.771  0.00  0.00    +0.000 A 
ATOM     24  C   UNL     1      10.542  13.562  20.198  0.00  0.00    +0.000 A 
ATOM     25  N   UNL     1      10.942  14.757  20.783  0.00  0.00    +0.000 N 
ATOM     26  C   UNL     1      11.062  15.725  19.780  0.00  0.00    +0.000 A 
ATOM     27  S   UNL     1      11.505  17.299  19.984  0.00  0.00    +0.000 S 
ATOM     28  N   UNL     1      10.733  15.108  18.567  0.00  0.00    +0.000 N 
ATOM     29  C   UNL     1      10.411  13.780  18.826  0.00  0.00    +0.000 A 
ATOM     30  C   UNL     1      10.017  12.792  17.957  0.00  0.00    +0.000 A 
ATOM     31  H   UNL     1      11.117  14.918  21.766  0.00  0.00    +0.000 HD
ATOM     32  H   UNL     1      10.731  15.565  17.666  0.00  0.00    +0.000 HD
ENDBRANCH  20  21
ENDBRANCH  19  20
ENDBRANCH  18  19
ENDBRANCH  17  18
ENDBRANCH   4  17
TORSDOF 7
ENDMDL
MODEL 8
REMARK VINA RESULT:      -8.7      7.032      8.475
REMARK  Name = 
REMARK  7 active torsions:
REMARK  status: ('A' for Active; 'I' for Inactive)
REMARK    1  A    between atoms: C_2  and  C_5
REMARK    2  A    between atoms: C_9  and  N_10
REMARK    3  A    between atoms: N_13  and  C_14
REMARK    4  A    between atoms: C_14  and  C_15
REMARK    5  A    between atoms: C_15  and  C_16
REMARK    6  A    between atoms: C_16  and  O_17
REMARK    7  A    between atoms: O_17  and  C_18
REMARK                            x       y       z     vdW  Elec       q    Type
REMARK                         _______ _______ _______ _____ _____    ______ ____
ROOT
ATOM      1  N   UNL     1       4.070   3.638  16.965  0.00  0.00    +0.000 N 
ATOM      2  C   UNL     1       3.070   4.642  17.347  0.00  0.00    +0.000 C 
ATOM      3  C   UNL     1       1.717   3.931  17.590  0.00  0.00    +0.000 C 
ATOM      4  N   UNL     1       1.766   2.819  18.577  0.00  0.00    +0.000 NA
ATOM      5  C   UNL     1       2.812   1.863  18.127  0.00  0.00    +0.000 C 
ATOM      6  C   UNL     1       4.202   2.496  17.884  0.00  0.00    +0.000 C 
ENDROOT
BRANCH   1  11
ATOM      7  C   UNL     1       6.099   3.927  13.893  0.00  0.00    +0.000 A 
ATOM      8  C   UNL     1       7.193   4.665  14.352  0.00  0.00    +0.000 A 
ATOM      9  C   UNL     1       7.261   5.052  15.689  0.00  0.00    +0.000 A 
ATOM     10  C   UNL     1       6.234   4.709  16.576  0.00  0.00    +0.000 A 
ATOM     11  C   UNL     1       5.133   3.961  16.149  0.00  0.00    +0.000 A 
ATOM     12  C   UNL     1       5.091   3.578  14.802  0.00  0.00    +0.000 A 
BRANCH   7  14
ATOM     13  F   UNL     1       6.072   2.173  12.256  0.00  0.00    +0.000 F 
ATOM     14  C   UNL     1       5.952   3.514  12.453  0.00  0.00    +0.000 C 
ATOM     15  F   UNL     1       6.883   4.095  11.645  0.00  0.00    +0.000 F 
ATOM     16  F   UNL     1       4.741   3.862  11.934  0.00  0.00    +0.000 F 
ENDBRANCH   7  14
ENDBRANCH   1  11
BRANCH   4  17
ATOM     17  C   UNL     1       2.041   3.291  19.944  0.00  0.00    +0.000 C 
BRANCH  17  18
ATOM     18  C   UNL     1       1.112   4.420  20.390  0.00  0.00    +0.000 C 
BRANCH  18  19
ATOM     19  C   UNL     1       1.874   5.571  21.028  0.00  0.00    +0.000 C 
BRANCH  19  20
ATOM     20  O   UNL     1       2.541   6.271  19.979  0.00  0.00    +0.000 OA
BRANCH  20  21
ATOM     21  C   UNL     1       2.031   7.498  19.650  0.00  0.00    +0.000 A 
ATOM     22  C   UNL     1       2.304   7.894  18.316  0.00  0.00    +0.000 A 
ATOM     23  C   UNL     1       1.884   9.129  17.818  0.00  0.00    +0.000 A 
ATOM     24  C   UNL     1       1.192   9.935  18.690  0.00  0.00    +0.000 A 
ATOM     25  N   UNL     1       0.660  11.204  18.500  0.00  0.00    +0.000 N 
ATOM     26  C   UNL     1       0.046  11.611  19.690  0.00  0.00    +0.000 A 
ATOM     27  S   UNL     1      -0.720  13.045  19.958  0.00  0.00    +0.000 S 
ATOM     28  N   UNL     1       0.205  10.572  20.615  0.00  0.00    +0.000 N 
ATOM     29  C   UNL     1       0.913   9.544  19.999  0.00  0.00    +0.000 A 
ATOM     30  C   UNL     1       1.315   8.334  20.510  0.00  0.00    +0.000 A 
ATOM     31  H   UNL     1       0.703  11.756  17.654  0.00  0.00    +0.000 HD
ATOM     32  H   UNL     1      -0.138  10.584  21.565  0.00  0.00    +0.000 HD
ENDBRANCH  20  21
ENDBRANCH  19  20
ENDBRANCH  18  19
ENDBRANCH  17  18
ENDBRANCH   4  17
TORSDOF 7
ENDMDL
MODEL 9
REMARK VINA RESULT:      -8.6      5.881      8.045
REMARK  Name = 
REMARK  7 active torsions:
REMARK  status: ('A' for Active; 'I' for Inactive)
REMARK    1  A    between atoms: C_2  and  C_5
REMARK    2  A    between atoms: C_9  and  N_10
REMARK    3  A    between atoms: N_13  and  C_14
REMARK    4  A    between atoms: C_14  and  C_15
REMARK    5  A    between atoms: C_15  and  C_16
REMARK    6  A    between atoms: C_16  and  O_17
REMARK    7  A    between atoms: O_17  and  C_18
REMARK                            x       y       z     vdW  Elec       q    Type
REMARK                         _______ _______ _______ _____ _____    ______ ____
ROOT
ATOM      1  N   UNL     1       4.036   3.482  17.779  0.00  0.00    +0.000 N 
ATOM      2  C   UNL     1       2.642   3.936  17.728  0.00  0.00    +0.000 C 
ATOM      3  C   UNL     1       1.714   2.728  18.002  0.00  0.00    +0.000 C 
ATOM      4  N   UNL     1       1.997   1.999  19.268  0.00  0.00    +0.000 NA
ATOM      5  C   UNL     1       3.428   1.595  19.246  0.00  0.00    +0.000 C 
ATOM      6  C   UNL     1       4.421   2.754  18.999  0.00  0.00    +0.000 C 
ENDROOT
BRANCH   1  11
ATOM      7  C   UNL     1       6.664   5.920  16.889  0.00  0.00    +0.000 A 
ATOM      8  C   UNL     1       7.122   5.403  15.675  0.00  0.00    +0.000 A 
ATOM      9  C   UNL     1       6.544   4.250  15.146  0.00  0.00    +0.000 A 
ATOM     10  C   UNL     1       5.508   3.604  15.829  0.00  0.00    +0.000 A 
ATOM     11  C   UNL     1       5.019   4.104  17.039  0.00  0.00    +0.000 A 
ATOM     12  C   UNL     1       5.612   5.267  17.547  0.00  0.00    +0.000 A 
BRANCH   7  14
ATOM     13  F   UNL     1       8.249   7.717  16.777  0.00  0.00    +0.000 F 
ATOM     14  C   UNL     1       7.274   7.138  17.528  0.00  0.00    +0.000 C 
ATOM     15  F   UNL     1       7.844   6.865  18.735  0.00  0.00    +0.000 F 
ATOM     16  F   UNL     1       6.355   8.116  17.765  0.00  0.00    +0.000 F 
ENDBRANCH   7  14
ENDBRANCH   1  11
BRANCH   4  17
ATOM     17  C   UNL     1       1.700   2.809  20.462  0.00  0.00    +0.000 C 
BRANCH  17  18
ATOM     18  C   UNL     1       1.211   4.218  20.128  0.00  0.00    +0.000 C 
BRANCH  18  19
ATOM     19  C   UNL     1       1.877   5.276  20.995  0.00  0.00    +0.000 C 
BRANCH  19  20
ATOM     20  O   UNL     1       2.725   6.048  20.147  0.00  0.00    +0.000 OA
BRANCH  20  21
ATOM     21  C   UNL     1       2.213   7.237  19.699  0.00  0.00    +0.000 A 
ATOM     22  C   UNL     1       2.531   7.526  18.348  0.00  0.00    +0.000 A 
ATOM     23  C   UNL     1       2.116   8.709  17.735  0.00  0.00    +0.000 A 
ATOM     24  C   UNL     1       1.383   9.574  18.511  0.00  0.00    +0.000 A 
ATOM     25  N   UNL     1       0.844  10.816  18.198  0.00  0.00    +0.000 N 
ATOM     26  C   UNL     1       0.181  11.310  19.327  0.00  0.00    +0.000 A 
ATOM     27  S   UNL     1      -0.611  12.750  19.447  0.00  0.00    +0.000 S 
ATOM     28  N   UNL     1       0.318  10.353  20.340  0.00  0.00    +0.000 N 
ATOM     29  C   UNL     1       1.060   9.288  19.837  0.00  0.00    +0.000 A 
ATOM     30  C   UNL     1       1.456   8.130  20.460  0.00  0.00    +0.000 A 
ATOM     31  H   UNL     1       0.912  11.296  17.311  0.00  0.00    +0.000 HD
ATOM     32  H   UNL     1      -0.060  10.438  21.273  0.00  0.00    +0.000 HD
ENDBRANCH  20  21
ENDBRANCH  19  20
ENDBRANCH  18  19
ENDBRANCH  17  18
ENDBRANCH   4  17
TORSDOF 7
ENDMDL
