MODEL 1
REMARK VINA RESULT:      -7.1      0.000      0.000
REMARK  Name = 
REMARK  9 active torsions:
REMARK  status: ('A' for Active; 'I' for Inactive)
REMARK    1  A    between atoms: C_1  and  N_2
REMARK    2  A    between atoms: N_2  and  C_3
REMARK    3  A    between atoms: N_2  and  C_11
REMARK    4  A    between atoms: C_3  and  C_4
REMARK    5  A    between atoms: C_4  and  C_5
REMARK    6  A    between atoms: C_11  and  C_12
REMARK    7  A    between atoms: C_11  and  C_15
REMARK    8  A    between atoms: C_12  and  O_14
REMARK    9  A    between atoms: C_18  and  N_19
REMARK                            x       y       z     vdW  Elec       q    Type
REMARK                         _______ _______ _______ _____ _____    ______ ____
ROOT
ATOM      1  C   UNL     1       5.004   5.489  17.823  0.00  0.00    +0.000 C 
ENDROOT
BRANCH   1   2
ATOM      2  C   UNL     1       3.850   6.420  18.247  0.00  0.00    +0.000 A 
ATOM      3  C   UNL     1       3.481   7.521  17.451  0.00  0.00    +0.000 A 
ATOM      4  C   UNL     1       2.515   8.441  17.882  0.00  0.00    +0.000 A 
ATOM      5  C   UNL     1       1.844   8.256  19.090  0.00  0.00    +0.000 A 
ATOM      6  C   UNL     1       2.173   7.135  19.855  0.00  0.00    +0.000 A 
ATOM      7  F   UNL     1       1.579   6.946  21.044  0.00  0.00    +0.000 F 
ATOM      8  C   UNL     1       3.118   6.202  19.425  0.00  0.00    +0.000 A 
BRANCH   5   9
ATOM      9  N   UNL     1       1.046   9.281  19.623  0.00  0.00    +0.000 N 
ATOM     10  H   UNL     1       0.413   8.983  20.358  0.00  0.00    +0.000 HD
ATOM     11  H   UNL     1       1.583  10.109  19.869  0.00  0.00    +0.000 HD
ENDBRANCH   5   9
ENDBRANCH   1   2
BRANCH   1  13
ATOM     12  C   UNL     1       5.858   3.964  16.055  0.00  0.00    +0.000 C 
ATOM     13  N   UNL     1       4.701   4.693  16.580  0.00  0.00    +0.000 NA
BRANCH  13  14
ATOM     14  C   UNL     1       3.543   3.785  16.797  0.00  0.00    +0.000 C 
BRANCH  14  15
ATOM     15  C   UNL     1       3.812   2.663  17.821  0.00  0.00    +0.000 C 
BRANCH  15  16
ATOM     16  C   UNL     1       2.930   2.771  19.042  0.00  0.00    +0.000 A 
ATOM     17  C   UNL     1       3.466   2.637  20.328  0.00  0.00    +0.000 A 
ATOM     18  C   UNL     1       2.643   2.744  21.450  0.00  0.00    +0.000 A 
ATOM     19  C   UNL     1       1.278   2.983  21.298  0.00  0.00    +0.000 A 
ATOM     20  C   UNL     1       0.734   3.114  20.023  0.00  0.00    +0.000 A 
ATOM     21  C   UNL     1       1.554   3.008  18.900  0.00  0.00    +0.000 A 
ENDBRANCH  15  16
ENDBRANCH  14  15
ENDBRANCH  13  14
ENDBRANCH   1  13
BRANCH   1  22
ATOM     22  C   UNL     1       6.377   6.206  17.701  0.00  0.00    +0.000 C 
ATOM     23  O   UNL     1       6.640   7.027  16.829  0.00  0.00    +0.000 OA
BRANCH  22  24
ATOM     24  O   UNL     1       7.277   5.910  18.674  0.00  0.00    +0.000 OA
ATOM     25  H   UNL     1       6.960   5.223  19.295  0.00  0.00    +0.000 HD
ENDBRANCH  22  24
ENDBRANCH   1  22
TORSDOF 8
ENDMDL
MODEL 2
REMARK VINA RESULT:      -7.1      3.028      5.395
REMARK  Name = 
REMARK  9 active torsions:
REMARK  status: ('A' for Active; 'I' for Inactive)
REMARK    1  A    between atoms: C_1  and  N_2
REMARK    2  A    between atoms: N_2  and  C_3
REMARK    3  A    between atoms: N_2  and  C_11
REMARK    4  A    between atoms: C_3  and  C_4
REMARK    5  A    between atoms: C_4  and  C_5
REMARK    6  A    between atoms: C_11  and  C_12
REMARK    7  A    between atoms: C_11  and  C_15
REMARK    8  A    between atoms: C_12  and  O_14
REMARK    9  A    between atoms: C_18  and  N_19
REMARK                            x       y       z     vdW  Elec       q    Type
REMARK                         _______ _______ _______ _____ _____    ______ ____
ROOT
ATOM      1  C   UNL     1       3.912   3.433  19.374  0.00  0.00    +0.000 C 
ENDROOT
BRANCH   1   2
ATOM      2  C   UNL     1       4.789   4.077  18.282  0.00  0.00    +0.000 A 
ATOM      3  C   UNL     1       4.470   3.929  16.918  0.00  0.00    +0.000 A 
ATOM      4  C   UNL     1       5.322   4.409  15.914  0.00  0.00    +0.000 A 
ATOM      5  C   UNL     1       6.486   5.105  16.239  0.00  0.00    +0.000 A 
ATOM      6  C   UNL     1       6.776   5.297  17.592  0.00  0.00    +0.000 A 
ATOM      7  F   UNL     1       7.908   5.925  17.944  0.00  0.00    +0.000 F 
ATOM      8  C   UNL     1       5.923   4.842  18.599  0.00  0.00    +0.000 A 
BRANCH   5   9
ATOM      9  N   UNL     1       7.442   5.389  15.251  0.00  0.00    +0.000 N 
ATOM     10  H   UNL     1       7.980   4.586  14.943  0.00  0.00    +0.000 HD
ATOM     11  H   UNL     1       7.062   5.935  14.482  0.00  0.00    +0.000 HD
ENDBRANCH   5   9
ENDBRANCH   1   2
BRANCH   1  13
ATOM     12  C   UNL     1       1.825   2.094  19.563  0.00  0.00    +0.000 C 
ATOM     13  N   UNL     1       2.474   3.261  18.959  0.00  0.00    +0.000 NA
BRANCH  13  14
ATOM     14  C   UNL     1       1.695   4.503  19.211  0.00  0.00    +0.000 C 
BRANCH  14  15
ATOM     15  C   UNL     1       2.472   5.580  19.995  0.00  0.00    +0.000 C 
BRANCH  15  16
ATOM     16  C   UNL     1       2.168   6.978  19.514  0.00  0.00    +0.000 A 
ATOM     17  C   UNL     1       1.568   7.915  20.363  0.00  0.00    +0.000 A 
ATOM     18  C   UNL     1       1.297   9.207  19.910  0.00  0.00    +0.000 A 
ATOM     19  C   UNL     1       1.620   9.575  18.604  0.00  0.00    +0.000 A 
ATOM     20  C   UNL     1       2.214   8.649  17.749  0.00  0.00    +0.000 A 
ATOM     21  C   UNL     1       2.486   7.357  18.200  0.00  0.00    +0.000 A 
ENDBRANCH  15  16
ENDBRANCH  14  15
ENDBRANCH  13  14
ENDBRANCH   1  13
BRANCH   1  22
ATOM     22  C   UNL     1       4.488   2.105  19.939  0.00  0.00    +0.000 C 
ATOM     23  O   UNL     1       4.815   1.949  21.111  0.00  0.00    +0.000 OA
BRANCH  22  24
ATOM     24  O   UNL     1       4.560   1.078  19.054  0.00  0.00    +0.000 OA
ATOM     25  H   UNL     1       4.024   0.303  19.318  0.00  0.00    +0.000 HD
ENDBRANCH  22  24
ENDBRANCH   1  22
TORSDOF 8
ENDMDL
MODEL 3
REMARK VINA RESULT:      -7.1      2.505      5.505
REMARK  Name = 
REMARK  9 active torsions:
REMARK  status: ('A' for Active; 'I' for Inactive)
REMARK    1  A    between atoms: C_1  and  N_2
REMARK    2  A    between atoms: N_2  and  C_3
REMARK    3  A    between atoms: N_2  and  C_11
REMARK    4  A    between atoms: C_3  and  C_4
REMARK    5  A    between atoms: C_4  and  C_5
REMARK    6  A    between atoms: C_11  and  C_12
REMARK    7  A    between atoms: C_11  and  C_15
REMARK    8  A    between atoms: C_12  and  O_14
REMARK    9  A    between atoms: C_18  and  N_19
REMARK                            x       y       z     vdW  Elec       q    Type
REMARK                         _______ _______ _______ _____ _____    ______ ____
ROOT
ATOM      1  C   UNL     1       5.665   4.808  18.192  0.00  0.00    +0.000 C 
ENDROOT
BRANCH   1   2
ATOM      2  C   UNL     1       4.517   4.382  19.129  0.00  0.00    +0.000 A 
ATOM      3  C   UNL     1       4.356   3.036  19.509  0.00  0.00    +0.000 A 
ATOM      4  C   UNL     1       3.250   2.620  20.264  0.00  0.00    +0.000 A 
ATOM      5  C   UNL     1       2.306   3.542  20.714  0.00  0.00    +0.000 A 
ATOM      6  C   UNL     1       2.494   4.885  20.380  0.00  0.00    +0.000 A 
ATOM      7  F   UNL     1       1.583   5.796  20.759  0.00  0.00    +0.000 F 
ATOM      8  C   UNL     1       3.602   5.313  19.648  0.00  0.00    +0.000 A 
BRANCH   5   9
ATOM      9  N   UNL     1       1.095   3.102  21.273  0.00  0.00    +0.000 N 
ATOM     10  H   UNL     1       1.198   2.533  22.106  0.00  0.00    +0.000 HD
ATOM     11  H   UNL     1       0.418   3.854  21.383  0.00  0.00    +0.000 HD
ENDBRANCH   5   9
ENDBRANCH   1   2
BRANCH   1  13
ATOM     12  C   UNL     1       6.484   7.032  17.438  0.00  0.00    +0.000 C 
ATOM     13  N   UNL     1       5.374   6.075  17.430  0.00  0.00    +0.000 NA
BRANCH  13  14
ATOM     14  C   UNL     1       4.930   5.774  16.043  0.00  0.00    +0.000 C 
BRANCH  14  15
ATOM     15  C   UNL     1       5.251   4.336  15.583  0.00  0.00    +0.000 C 
BRANCH  15  16
ATOM     16  C   UNL     1       5.987   4.301  14.266  0.00  0.00    +0.000 A 
ATOM     17  C   UNL     1       7.131   5.081  14.062  0.00  0.00    +0.000 A 
ATOM     18  C   UNL     1       7.808   5.037  12.842  0.00  0.00    +0.000 A 
ATOM     19  C   UNL     1       7.347   4.215  11.814  0.00  0.00    +0.000 A 
ATOM     20  C   UNL     1       6.207   3.438  12.005  0.00  0.00    +0.000 A 
ATOM     21  C   UNL     1       5.529   3.480  13.223  0.00  0.00    +0.000 A 
ENDBRANCH  15  16
ENDBRANCH  14  15
ENDBRANCH  13  14
ENDBRANCH   1  13
BRANCH   1  22
ATOM     22  C   UNL     1       7.050   4.888  18.893  0.00  0.00    +0.000 C 
ATOM     23  O   UNL     1       7.228   5.411  19.988  0.00  0.00    +0.000 OA
BRANCH  22  24
ATOM     24  O   UNL     1       8.071   4.282  18.236  0.00  0.00    +0.000 OA
ATOM     25  H   UNL     1       7.788   3.834  17.413  0.00  0.00    +0.000 HD
ENDBRANCH  22  24
ENDBRANCH   1  22
TORSDOF 8
ENDMDL
MODEL 4
REMARK VINA RESULT:      -7.1      0.063      1.234
REMARK  Name = 
REMARK  9 active torsions:
REMARK  status: ('A' for Active; 'I' for Inactive)
REMARK    1  A    between atoms: C_1  and  N_2
REMARK    2  A    between atoms: N_2  and  C_3
REMARK    3  A    between atoms: N_2  and  C_11
REMARK    4  A    between atoms: C_3  and  C_4
REMARK    5  A    between atoms: C_4  and  C_5
REMARK    6  A    between atoms: C_11  and  C_12
REMARK    7  A    between atoms: C_11  and  C_15
REMARK    8  A    between atoms: C_12  and  O_14
REMARK    9  A    between atoms: C_18  and  N_19
REMARK                            x       y       z     vdW  Elec       q    Type
REMARK                         _______ _______ _______ _____ _____    ______ ____
ROOT
ATOM      1  C   UNL     1       5.013   5.496  17.847  0.00  0.00    +0.000 C 
ENDROOT
BRANCH   1   2
ATOM      2  C   UNL     1       3.856   6.430  18.256  0.00  0.00    +0.000 A 
ATOM      3  C   UNL     1       3.486   7.520  17.446  0.00  0.00    +0.000 A 
ATOM      4  C   UNL     1       2.515   8.442  17.863  0.00  0.00    +0.000 A 
ATOM      5  C   UNL     1       1.841   8.270  19.071  0.00  0.00    +0.000 A 
ATOM      6  C   UNL     1       2.171   7.159  19.851  0.00  0.00    +0.000 A 
ATOM      7  F   UNL     1       1.574   6.982  21.040  0.00  0.00    +0.000 F 
ATOM      8  C   UNL     1       3.120   6.224  19.435  0.00  0.00    +0.000 A 
BRANCH   5   9
ATOM      9  N   UNL     1       1.038   9.298  19.589  0.00  0.00    +0.000 N 
ATOM     10  H   UNL     1       1.476  10.213  19.591  0.00  0.00    +0.000 HD
ATOM     11  H   UNL     1       0.102   9.304  19.191  0.00  0.00    +0.000 HD
ENDBRANCH   5   9
ENDBRANCH   1   2
BRANCH   1  13
ATOM     12  C   UNL     1       5.889   3.963  16.097  0.00  0.00    +0.000 C 
ATOM     13  N   UNL     1       4.732   4.713  16.591  0.00  0.00    +0.000 NA
BRANCH  13  14
ATOM     14  C   UNL     1       3.550   3.828  16.768  0.00  0.00    +0.000 C 
BRANCH  14  15
ATOM     15  C   UNL     1       3.779   2.671  17.763  0.00  0.00    +0.000 C 
BRANCH  15  16
ATOM     16  C   UNL     1       2.904   2.780  18.988  0.00  0.00    +0.000 A 
ATOM     17  C   UNL     1       1.532   3.032  18.871  0.00  0.00    +0.000 A 
ATOM     18  C   UNL     1       0.731   3.125  20.010  0.00  0.00    +0.000 A 
ATOM     19  C   UNL     1       1.293   2.968  21.277  0.00  0.00    +0.000 A 
ATOM     20  C   UNL     1       2.658   2.721  21.405  0.00  0.00    +0.000 A 
ATOM     21  C   UNL     1       3.460   2.628  20.269  0.00  0.00    +0.000 A 
ENDBRANCH  15  16
ENDBRANCH  14  15
ENDBRANCH  13  14
ENDBRANCH   1  13
BRANCH   1  22
ATOM     22  C   UNL     1       6.392   6.209  17.759  0.00  0.00    +0.000 C 
ATOM     23  O   UNL     1       7.310   6.012  18.548  0.00  0.00    +0.000 OA
BRANCH  22  24
ATOM     24  O   UNL     1       6.550   7.042  16.700  0.00  0.00    +0.000 OA
ATOM     25  H   UNL     1       7.377   6.880  16.202  0.00  0.00    +0.000 HD
ENDBRANCH  22  24
ENDBRANCH   1  22
TORSDOF 8
ENDMDL
MODEL 5
REMARK VINA RESULT:      -7.1      2.934      5.680
REMARK  Name = 
REMARK  9 active torsions:
REMARK  status: ('A' for Active; 'I' for Inactive)
REMARK    1  A    between atoms: C_1  and  N_2
REMARK    2  A    between atoms: N_2  and  C_3
REMARK    3  A    between atoms: N_2  and  C_11
REMARK    4  A    between atoms: C_3  and  C_4
REMARK    5  A    between atoms: C_4  and  C_5
REMARK    6  A    between atoms: C_11  and  C_12
REMARK    7  A    between atoms: C_11  and  C_15
REMARK    8  A    between atoms: C_12  and  O_14
REMARK    9  A    between atoms: C_18  and  N_19
REMARK                            x       y       z     vdW  Elec       q    Type
REMARK                         _______ _______ _______ _____ _____    ______ ____
ROOT
ATOM      1  C   UNL     1       4.106   3.595  19.211  0.00  0.00    +0.000 C 
ENDROOT
BRANCH   1   2
ATOM      2  C   UNL     1       4.961   4.188  18.073  0.00  0.00    +0.000 A 
ATOM      3  C   UNL     1       4.731   3.825  16.732  0.00  0.00    +0.000 A 
ATOM      4  C   UNL     1       5.576   4.266  15.703  0.00  0.00    +0.000 A 
ATOM      5  C   UNL     1       6.636   5.131  15.971  0.00  0.00    +0.000 A 
ATOM      6  C   UNL     1       6.832   5.532  17.295  0.00  0.00    +0.000 A 
ATOM      7  F   UNL     1       7.867   6.330  17.599  0.00  0.00    +0.000 F 
ATOM      8  C   UNL     1       5.985   5.116  18.323  0.00  0.00    +0.000 A 
BRANCH   5   9
ATOM      9  N   UNL     1       7.605   5.392  14.990  0.00  0.00    +0.000 N 
ATOM     10  H   UNL     1       8.225   4.615  14.793  0.00  0.00    +0.000 HD
ATOM     11  H   UNL     1       7.211   5.812  14.151  0.00  0.00    +0.000 HD
ENDBRANCH   5   9
ENDBRANCH   1   2
BRANCH   1  13
ATOM     12  C   UNL     1       1.910   3.720  20.371  0.00  0.00    +0.000 C 
ATOM     13  N   UNL     1       2.657   4.004  19.143  0.00  0.00    +0.000 NA
BRANCH  13  14
ATOM     14  C   UNL     1       2.525   5.432  18.748  0.00  0.00    +0.000 C 
BRANCH  14  15
ATOM     15  C   UNL     1       2.342   6.396  19.939  0.00  0.00    +0.000 C 
BRANCH  15  16
ATOM     16  C   UNL     1       1.950   7.787  19.503  0.00  0.00    +0.000 A 
ATOM     17  C   UNL     1       2.275   8.256  18.225  0.00  0.00    +0.000 A 
ATOM     18  C   UNL     1       1.902   9.542  17.829  0.00  0.00    +0.000 A 
ATOM     19  C   UNL     1       1.205  10.371  18.707  0.00  0.00    +0.000 A 
ATOM     20  C   UNL     1       0.881   9.915  19.983  0.00  0.00    +0.000 A 
ATOM     21  C   UNL     1       1.251   8.631  20.381  0.00  0.00    +0.000 A 
ENDBRANCH  15  16
ENDBRANCH  14  15
ENDBRANCH  13  14
ENDBRANCH   1  13
BRANCH   1  22
ATOM     22  C   UNL     1       4.240   2.054  19.358  0.00  0.00    +0.000 C 
ATOM     23  O   UNL     1       3.595   1.249  18.694  0.00  0.00    +0.000 OA
BRANCH  22  24
ATOM     24  O   UNL     1       5.176   1.633  20.247  0.00  0.00    +0.000 OA
ATOM     25  H   UNL     1       5.608   2.368  20.728  0.00  0.00    +0.000 HD
ENDBRANCH  22  24
ENDBRANCH   1  22
TORSDOF 8
ENDMDL
MODEL 6
REMARK VINA RESULT:      -7.0      3.077      5.778
REMARK  Name = 
REMARK  9 active torsions:
REMARK  status: ('A' for Active; 'I' for Inactive)
REMARK    1  A    between atoms: C_1  and  N_2
REMARK    2  A    between atoms: N_2  and  C_3
REMARK    3  A    between atoms: N_2  and  C_11
REMARK    4  A    between atoms: C_3  and  C_4
REMARK    5  A    between atoms: C_4  and  C_5
REMARK    6  A    between atoms: C_11  and  C_12
REMARK    7  A    between atoms: C_11  and  C_15
REMARK    8  A    between atoms: C_12  and  O_14
REMARK    9  A    between atoms: C_18  and  N_19
REMARK                            x       y       z     vdW  Elec       q    Type
REMARK                         _______ _______ _______ _____ _____    ______ ____
ROOT
ATOM      1  C   UNL     1       4.152   3.725  18.913  0.00  0.00    +0.000 C 
ENDROOT
BRANCH   1   2
ATOM      2  C   UNL     1       5.136   4.058  17.773  0.00  0.00    +0.000 A 
ATOM      3  C   UNL     1       6.389   4.639  18.046  0.00  0.00    +0.000 A 
ATOM      4  C   UNL     1       7.241   5.053  17.012  0.00  0.00    +0.000 A 
ATOM      5  C   UNL     1       6.897   4.844  15.678  0.00  0.00    +0.000 A 
ATOM      6  C   UNL     1       5.677   4.220  15.408  0.00  0.00    +0.000 A 
ATOM      7  F   UNL     1       5.292   4.039  14.135  0.00  0.00    +0.000 F 
ATOM      8  C   UNL     1       4.831   3.785  16.429  0.00  0.00    +0.000 A 
BRANCH   5   9
ATOM      9  N   UNL     1       7.637   5.450  14.650  0.00  0.00    +0.000 N 
ATOM     10  H   UNL     1       8.315   6.135  14.967  0.00  0.00    +0.000 HD
ATOM     11  H   UNL     1       8.025   4.776  13.995  0.00  0.00    +0.000 HD
ENDBRANCH   5   9
ENDBRANCH   1   2
BRANCH   1  13
ATOM     12  C   UNL     1       1.790   3.809  19.686  0.00  0.00    +0.000 C 
ATOM     13  N   UNL     1       2.724   4.082  18.591  0.00  0.00    +0.000 NA
BRANCH  13  14
ATOM     14  C   UNL     1       2.618   5.491  18.129  0.00  0.00    +0.000 C 
BRANCH  14  15
ATOM     15  C   UNL     1       3.061   6.529  19.181  0.00  0.00    +0.000 C 
BRANCH  15  16
ATOM     16  C   UNL     1       2.179   7.754  19.194  0.00  0.00    +0.000 A 
ATOM     17  C   UNL     1       1.978   8.506  18.030  0.00  0.00    +0.000 A 
ATOM     18  C   UNL     1       1.156   9.633  18.052  0.00  0.00    +0.000 A 
ATOM     19  C   UNL     1       0.527  10.020  19.235  0.00  0.00    +0.000 A 
ATOM     20  C   UNL     1       0.722   9.281  20.399  0.00  0.00    +0.000 A 
ATOM     21  C   UNL     1       1.544   8.154  20.380  0.00  0.00    +0.000 A 
ENDBRANCH  15  16
ENDBRANCH  14  15
ENDBRANCH  13  14
ENDBRANCH   1  13
BRANCH   1  22
ATOM     22  C   UNL     1       4.256   2.260  19.423  0.00  0.00    +0.000 C 
ATOM     23  O   UNL     1       4.797   1.945  20.477  0.00  0.00    +0.000 OA
BRANCH  22  24
ATOM     24  O   UNL     1       3.647   1.329  18.645  0.00  0.00    +0.000 OA
ATOM     25  H   UNL     1       3.145   0.665  19.160  0.00  0.00    +0.000 HD
ENDBRANCH  22  24
ENDBRANCH   1  22
TORSDOF 8
ENDMDL
MODEL 7
REMARK VINA RESULT:      -7.0      2.999      5.479
REMARK  Name = 
REMARK  9 active torsions:
REMARK  status: ('A' for Active; 'I' for Inactive)
REMARK    1  A    between atoms: C_1  and  N_2
REMARK    2  A    between atoms: N_2  and  C_3
REMARK    3  A    between atoms: N_2  and  C_11
REMARK    4  A    between atoms: C_3  and  C_4
REMARK    5  A    between atoms: C_4  and  C_5
REMARK    6  A    between atoms: C_11  and  C_12
REMARK    7  A    between atoms: C_11  and  C_15
REMARK    8  A    between atoms: C_12  and  O_14
REMARK    9  A    between atoms: C_18  and  N_19
REMARK                            x       y       z     vdW  Elec       q    Type
REMARK                         _______ _______ _______ _____ _____    ______ ____
ROOT
ATOM      1  C   UNL     1       3.766   3.706  19.564  0.00  0.00    +0.000 C 
ENDROOT
BRANCH   1   2
ATOM      2  C   UNL     1       4.787   4.057  18.464  0.00  0.00    +0.000 A 
ATOM      3  C   UNL     1       6.050   4.588  18.792  0.00  0.00    +0.000 A 
ATOM      4  C   UNL     1       6.940   5.019  17.799  0.00  0.00    +0.000 A 
ATOM      5  C   UNL     1       6.624   4.877  16.448  0.00  0.00    +0.000 A 
ATOM      6  C   UNL     1       5.393   4.303  16.122  0.00  0.00    +0.000 A 
ATOM      7  F   UNL     1       5.036   4.189  14.833  0.00  0.00    +0.000 F 
ATOM      8  C   UNL     1       4.509   3.850  17.103  0.00  0.00    +0.000 A 
BRANCH   5   9
ATOM      9  N   UNL     1       7.407   5.505  15.466  0.00  0.00    +0.000 N 
ATOM     10  H   UNL     1       8.385   5.236  15.473  0.00  0.00    +0.000 HD
ATOM     11  H   UNL     1       6.987   5.460  14.541  0.00  0.00    +0.000 HD
ENDBRANCH   5   9
ENDBRANCH   1   2
BRANCH   1  13
ATOM     12  C   UNL     1       1.814   2.313  18.904  0.00  0.00    +0.000 C 
ATOM     13  N   UNL     1       2.344   3.669  19.067  0.00  0.00    +0.000 NA
BRANCH  13  14
ATOM     14  C   UNL     1       1.457   4.496  19.928  0.00  0.00    +0.000 C 
BRANCH  14  15
ATOM     15  C   UNL     1       2.172   5.685  20.603  0.00  0.00    +0.000 C 
BRANCH  15  16
ATOM     16  C   UNL     1       2.021   6.969  19.824  0.00  0.00    +0.000 A 
ATOM     17  C   UNL     1       1.324   8.056  20.363  0.00  0.00    +0.000 A 
ATOM     18  C   UNL     1       1.195   9.242  19.636  0.00  0.00    +0.000 A 
ATOM     19  C   UNL     1       1.760   9.351  18.366  0.00  0.00    +0.000 A 
ATOM     20  C   UNL     1       2.453   8.273  17.820  0.00  0.00    +0.000 A 
ATOM     21  C   UNL     1       2.583   7.088  18.543  0.00  0.00    +0.000 A 
ENDBRANCH  15  16
ENDBRANCH  14  15
ENDBRANCH  13  14
ENDBRANCH   1  13
BRANCH   1  22
ATOM     22  C   UNL     1       4.111   2.410  20.350  0.00  0.00    +0.000 C 
ATOM     23  O   UNL     1       4.899   1.561  19.948  0.00  0.00    +0.000 OA
BRANCH  22  24
ATOM     24  O   UNL     1       3.521   2.293  21.567  0.00  0.00    +0.000 OA
ATOM     25  H   UNL     1       2.605   2.638  21.586  0.00  0.00    +0.000 HD
ENDBRANCH  22  24
ENDBRANCH   1  22
TORSDOF 8
ENDMDL
MODEL 8
REMARK VINA RESULT:      -7.0      3.045      5.883
REMARK  Name = 
REMARK  9 active torsions:
REMARK  status: ('A' for Active; 'I' for Inactive)
REMARK    1  A    between atoms: C_1  and  N_2
REMARK    2  A    between atoms: N_2  and  C_3
REMARK    3  A    between atoms: N_2  and  C_11
REMARK    4  A    between atoms: C_3  and  C_4
REMARK    5  A    between atoms: C_4  and  C_5
REMARK    6  A    between atoms: C_11  and  C_12
REMARK    7  A    between atoms: C_11  and  C_15
REMARK    8  A    between atoms: C_12  and  O_14
REMARK    9  A    between atoms: C_18  and  N_19
REMARK                            x       y       z     vdW  Elec       q    Type
REMARK                         _______ _______ _______ _____ _____    ______ ____
ROOT
ATOM      1  C   UNL     1       4.348   3.741  18.887  0.00  0.00    +0.000 C 
ENDROOT
BRANCH   1   2
ATOM      2  C   UNL     1       5.256   4.061  17.682  0.00  0.00    +0.000 A 
ATOM      3  C   UNL     1       6.566   4.541  17.871  0.00  0.00    +0.000 A 
ATOM      4  C   UNL     1       7.357   4.945  16.786  0.00  0.00    +0.000 A 
ATOM      5  C   UNL     1       6.890   4.824  15.478  0.00  0.00    +0.000 A 
ATOM      6  C   UNL     1       5.609   4.299  15.288  0.00  0.00    +0.000 A 
ATOM      7  F   UNL     1       5.108   4.206  14.047  0.00  0.00    +0.000 F 
ATOM      8  C   UNL     1       4.822   3.874  16.359  0.00  0.00    +0.000 A 
BRANCH   5   9
ATOM      9  N   UNL     1       7.584   5.427  14.418  0.00  0.00    +0.000 N 
ATOM     10  H   UNL     1       7.228   6.337  14.145  0.00  0.00    +0.000 HD
ATOM     11  H   UNL     1       8.592   5.416  14.551  0.00  0.00    +0.000 HD
ENDBRANCH   5   9
ENDBRANCH   1   2
BRANCH   1  13
ATOM     12  C   UNL     1       2.065   3.962  19.846  0.00  0.00    +0.000 C 
ATOM     13  N   UNL     1       3.000   4.409  18.811  0.00  0.00    +0.000 NA
BRANCH  13  14
ATOM     14  C   UNL     1       3.137   5.890  18.810  0.00  0.00    +0.000 C 
BRANCH  14  15
ATOM     15  C   UNL     1       2.353   6.591  19.938  0.00  0.00    +0.000 C 
BRANCH  15  16
ATOM     16  C   UNL     1       1.862   7.961  19.537  0.00  0.00    +0.000 A 
ATOM     17  C   UNL     1       1.180   8.775  20.449  0.00  0.00    +0.000 A 
ATOM     18  C   UNL     1       0.736  10.043  20.070  0.00  0.00    +0.000 A 
ATOM     19  C   UNL     1       0.968  10.508  18.776  0.00  0.00    +0.000 A 
ATOM     20  C   UNL     1       1.642   9.705  17.859  0.00  0.00    +0.000 A 
ATOM     21  C   UNL     1       2.087   8.438  18.236  0.00  0.00    +0.000 A 
ENDBRANCH  15  16
ENDBRANCH  14  15
ENDBRANCH  13  14
ENDBRANCH   1  13
BRANCH   1  22
ATOM     22  C   UNL     1       4.199   2.221  19.174  0.00  0.00    +0.000 C 
ATOM     23  O   UNL     1       3.457   1.480  18.539  0.00  0.00    +0.000 OA
BRANCH  22  24
ATOM     24  O   UNL     1       4.998   1.733  20.156  0.00  0.00    +0.000 OA
ATOM     25  H   UNL     1       4.734   0.841  20.461  0.00  0.00    +0.000 HD
ENDBRANCH  22  24
ENDBRANCH   1  22
TORSDOF 8
ENDMDL
MODEL 9
REMARK VINA RESULT:      -6.9      3.053      5.093
REMARK  Name = 
REMARK  9 active torsions:
REMARK  status: ('A' for Active; 'I' for Inactive)
REMARK    1  A    between atoms: C_1  and  N_2
REMARK    2  A    between atoms: N_2  and  C_3
REMARK    3  A    between atoms: N_2  and  C_11
REMARK    4  A    between atoms: C_3  and  C_4
REMARK    5  A    between atoms: C_4  and  C_5
REMARK    6  A    between atoms: C_11  and  C_12
REMARK    7  A    between atoms: C_11  and  C_15
REMARK    8  A    between atoms: C_12  and  O_14
REMARK    9  A    between atoms: C_18  and  N_19
REMARK                            x       y       z     vdW  Elec       q    Type
REMARK                         _______ _______ _______ _____ _____    ______ ____
ROOT
ATOM      1  C   UNL     1       6.235   5.748  17.459  0.00  0.00    +0.000 C 
ENDROOT
BRANCH   1   2
ATOM      2  C   UNL     1       6.216   5.163  16.033  0.00  0.00    +0.000 A 
ATOM      3  C   UNL     1       5.265   4.194  15.661  0.00  0.00    +0.000 A 
ATOM      4  C   UNL     1       5.312   3.570  14.407  0.00  0.00    +0.000 A 
ATOM      5  C   UNL     1       6.269   3.939  13.462  0.00  0.00    +0.000 A 
ATOM      6  C   UNL     1       7.180   4.938  13.812  0.00  0.00    +0.000 A 
ATOM      7  F   UNL     1       8.143   5.289  12.945  0.00  0.00    +0.000 F 
ATOM      8  C   UNL     1       7.129   5.579  15.050  0.00  0.00    +0.000 A 
BRANCH   5   9
ATOM      9  N   UNL     1       6.455   3.170  12.303  0.00  0.00    +0.000 N 
ATOM     10  H   UNL     1       6.341   3.682  11.435  0.00  0.00    +0.000 HD
ATOM     11  H   UNL     1       7.308   2.616  12.331  0.00  0.00    +0.000 HD
ENDBRANCH   5   9
ENDBRANCH   1   2
BRANCH   1  13
ATOM     12  C   UNL     1       5.370   4.756  19.569  0.00  0.00    +0.000 C 
ATOM     13  N   UNL     1       5.031   5.361  18.278  0.00  0.00    +0.000 NA
BRANCH  13  14
ATOM     14  C   UNL     1       4.108   6.515  18.447  0.00  0.00    +0.000 C 
BRANCH  14  15
ATOM     15  C   UNL     1       2.673   6.246  17.949  0.00  0.00    +0.000 C 
BRANCH  15  16
ATOM     16  C   UNL     1       2.041   5.052  18.622  0.00  0.00    +0.000 A 
ATOM     17  C   UNL     1       1.720   3.902  17.889  0.00  0.00    +0.000 A 
ATOM     18  C   UNL     1       1.141   2.801  18.522  0.00  0.00    +0.000 A 
ATOM     19  C   UNL     1       0.877   2.838  19.891  0.00  0.00    +0.000 A 
ATOM     20  C   UNL     1       1.188   3.978  20.628  0.00  0.00    +0.000 A 
ATOM     21  C   UNL     1       1.767   5.079  19.998  0.00  0.00    +0.000 A 
ENDBRANCH  15  16
ENDBRANCH  14  15
ENDBRANCH  13  14
ENDBRANCH   1  13
BRANCH   1  22
ATOM     22  C   UNL     1       7.550   5.462  18.237  0.00  0.00    +0.000 C 
ATOM     23  O   UNL     1       8.147   4.392  18.191  0.00  0.00    +0.000 OA
BRANCH  22  24
ATOM     24  O   UNL     1       8.046   6.507  18.947  0.00  0.00    +0.000 OA
ATOM     25  H   UNL     1       7.451   6.801  19.666  0.00  0.00    +0.000 HD
ENDBRANCH  22  24
ENDBRANCH   1  22
TORSDOF 8
ENDMDL
