MODEL 1
REMARK VINA RESULT:      -7.8      0.000      0.000
REMARK  Name = 
REMARK  6 active torsions:
REMARK  status: ('A' for Active; 'I' for Inactive)
REMARK    1  A    between atoms: C_2  and  C_19
REMARK    2  A    between atoms: N_3  and  C_4
REMARK    3  A    between atoms: C_4  and  C_5
REMARK    4  A    between atoms: N_9  and  S_10
REMARK    5  A    between atoms: S_10  and  C_13
REMARK    6  A    between atoms: N_21  and  C_22
REMARK                            x       y       z     vdW  Elec       q    Type
REMARK                         _______ _______ _______ _____ _____    ______ ____
ROOT
ATOM      1  C   UNL     1       2.126   5.094  18.827  0.00  0.00    +0.000 C 
ATOM      2  C   UNL     1       1.591   5.045  20.259  0.00  0.00    +0.000 C 
ATOM      3  C   UNL     1       1.357   3.571  20.500  0.00  0.00    +0.000 C 
ATOM      4  C   UNL     1       2.381   2.852  19.632  0.00  0.00    +0.000 C 
ATOM      5  N   UNL     1       3.044   3.887  18.766  0.00  0.00    +0.000 NA
ENDROOT
BRANCH   5   6
ATOM      6  S   UNL     1       4.703   4.159  19.100  0.00  0.00    +0.000 S 
ATOM      7  O   UNL     1       4.812   5.442  19.758  0.00  0.00    +0.000 OA
ATOM      8  O   UNL     1       5.215   2.952  19.717  0.00  0.00    +0.000 OA
BRANCH   6   9
ATOM      9  C   UNL     1       5.472   4.315  17.500  0.00  0.00    +0.000 A 
ATOM     10  C   UNL     1       4.719   4.118  16.340  0.00  0.00    +0.000 A 
ATOM     11  C   UNL     1       5.324   4.294  15.092  0.00  0.00    +0.000 A 
ATOM     12  C   UNL     1       6.667   4.669  15.007  0.00  0.00    +0.000 A 
ATOM     13  C   UNL     1       7.419   4.857  16.166  0.00  0.00    +0.000 A 
ATOM     14  C   UNL     1       6.823   4.682  17.416  0.00  0.00    +0.000 A 
ENDBRANCH   6   9
ENDBRANCH   5   6
BRANCH   1  15
ATOM     15  C   UNL     1       2.697   6.487  18.526  0.00  0.00    +0.000 C 
BRANCH  15  18
ATOM     16  O   UNL     1       2.594   8.874  17.102  0.00  0.00    +0.000 OA
ATOM     17  C   UNL     1       1.868   8.725  18.080  0.00  0.00    +0.000 C 
ATOM     18  N   UNL     1       1.883   7.620  18.918  0.00  0.00    +0.000 N 
ATOM     19  H   UNL     1       1.054   7.483  19.494  0.00  0.00    +0.000 HD
BRANCH  17  20
ATOM     20  C   UNL     1       0.852   9.837  18.416  0.00  0.00    +0.000 C 
ATOM     21  O   UNL     1       1.123  10.726  19.212  0.00  0.00    +0.000 OA
ATOM     22  N   UNL     1      -0.331   9.689  17.708  0.00  0.00    +0.000 N 
ATOM     23  H   UNL     1      -0.382   8.865  17.112  0.00  0.00    +0.000 HD
BRANCH  22  24
ATOM     24  C   UNL     1      -1.444  10.574  17.790  0.00  0.00    +0.000 C 
ATOM     25  C   UNL     1      -2.364  10.780  16.618  0.00  0.00    +0.000 C 
ATOM     26  C   UNL     1      -2.848  10.021  17.816  0.00  0.00    +0.000 C 
ENDBRANCH  22  24
ENDBRANCH  17  20
ENDBRANCH  15  18
ENDBRANCH   1  15
TORSDOF 6
ENDMDL
MODEL 2
REMARK VINA RESULT:      -7.8      0.495      1.107
REMARK  Name = 
REMARK  6 active torsions:
REMARK  status: ('A' for Active; 'I' for Inactive)
REMARK    1  A    between atoms: C_2  and  C_19
REMARK    2  A    between atoms: N_3  and  C_4
REMARK    3  A    between atoms: C_4  and  C_5
REMARK    4  A    between atoms: N_9  and  S_10
REMARK    5  A    between atoms: S_10  and  C_13
REMARK    6  A    between atoms: N_21  and  C_22
REMARK                            x       y       z     vdW  Elec       q    Type
REMARK                         _______ _______ _______ _____ _____    ______ ____
ROOT
ATOM      1  C   UNL     1       2.206   5.255  18.940  0.00  0.00    +0.000 C 
ATOM      2  C   UNL     1       1.679   5.119  20.369  0.00  0.00    +0.000 C 
ATOM      3  C   UNL     1       1.377   3.643  20.497  0.00  0.00    +0.000 C 
ATOM      4  C   UNL     1       2.361   2.948  19.565  0.00  0.00    +0.000 C 
ATOM      5  N   UNL     1       3.066   4.016  18.775  0.00  0.00    +0.000 NA
ENDROOT
BRANCH   5   6
ATOM      6  S   UNL     1       4.738   4.183  19.113  0.00  0.00    +0.000 S 
ATOM      7  O   UNL     1       4.917   5.426  19.829  0.00  0.00    +0.000 OA
ATOM      8  O   UNL     1       5.186   2.923  19.671  0.00  0.00    +0.000 OA
BRANCH   6   9
ATOM      9  C   UNL     1       5.510   4.372  17.518  0.00  0.00    +0.000 A 
ATOM     10  C   UNL     1       6.874   4.666  17.433  0.00  0.00    +0.000 A 
ATOM     11  C   UNL     1       7.476   4.760  16.175  0.00  0.00    +0.000 A 
ATOM     12  C   UNL     1       6.723   4.557  15.015  0.00  0.00    +0.000 A 
ATOM     13  C   UNL     1       5.362   4.272  15.104  0.00  0.00    +0.000 A 
ATOM     14  C   UNL     1       4.751   4.177  16.356  0.00  0.00    +0.000 A 
ENDBRANCH   6   9
ENDBRANCH   5   6
BRANCH   1  15
ATOM     15  C   UNL     1       2.840   6.639  18.743  0.00  0.00    +0.000 C 
BRANCH  15  18
ATOM     16  O   UNL     1       2.203   8.904  17.258  0.00  0.00    +0.000 OA
ATOM     17  C   UNL     1       1.794   8.806  18.411  0.00  0.00    +0.000 C 
ATOM     18  N   UNL     1       2.109   7.770  19.278  0.00  0.00    +0.000 N 
ATOM     19  H   UNL     1       1.486   7.649  20.076  0.00  0.00    +0.000 HD
BRANCH  17  20
ATOM     20  C   UNL     1       0.855   9.903  18.953  0.00  0.00    +0.000 C 
ATOM     21  O   UNL     1       0.977  10.341  20.089  0.00  0.00    +0.000 OA
ATOM     22  N   UNL     1      -0.076  10.302  18.006  0.00  0.00    +0.000 N 
ATOM     23  H   UNL     1      -0.041   9.798  17.122  0.00  0.00    +0.000 HD
BRANCH  22  24
ATOM     24  C   UNL     1      -1.059  11.313  18.206  0.00  0.00    +0.000 C 
ATOM     25  C   UNL     1      -2.176  11.520  17.221  0.00  0.00    +0.000 C 
ATOM     26  C   UNL     1      -2.473  10.931  18.567  0.00  0.00    +0.000 C 
ENDBRANCH  22  24
ENDBRANCH  17  20
ENDBRANCH  15  18
ENDBRANCH   1  15
TORSDOF 6
ENDMDL
MODEL 3
REMARK VINA RESULT:      -7.8      2.752      7.151
REMARK  Name = 
REMARK  6 active torsions:
REMARK  status: ('A' for Active; 'I' for Inactive)
REMARK    1  A    between atoms: C_2  and  C_19
REMARK    2  A    between atoms: N_3  and  C_4
REMARK    3  A    between atoms: C_4  and  C_5
REMARK    4  A    between atoms: N_9  and  S_10
REMARK    5  A    between atoms: S_10  and  C_13
REMARK    6  A    between atoms: N_21  and  C_22
REMARK                            x       y       z     vdW  Elec       q    Type
REMARK                         _______ _______ _______ _____ _____    ______ ____
ROOT
ATOM      1  C   UNL     1       3.775   3.291  18.525  0.00  0.00    +0.000 C 
ATOM      2  C   UNL     1       2.830   2.946  17.373  0.00  0.00    +0.000 C 
ATOM      3  C   UNL     1       1.458   3.225  17.945  0.00  0.00    +0.000 C 
ATOM      4  C   UNL     1       1.665   4.333  18.968  0.00  0.00    +0.000 C 
ATOM      5  N   UNL     1       3.147   4.538  19.119  0.00  0.00    +0.000 NA
ENDROOT
BRANCH   5   6
ATOM      6  S   UNL     1       3.733   6.045  18.553  0.00  0.00    +0.000 S 
ATOM      7  O   UNL     1       4.998   6.297  19.208  0.00  0.00    +0.000 OA
ATOM      8  O   UNL     1       3.627   6.027  17.108  0.00  0.00    +0.000 OA
BRANCH   6   9
ATOM      9  C   UNL     1       2.569   7.248  19.164  0.00  0.00    +0.000 A 
ATOM     10  C   UNL     1       2.125   7.181  20.487  0.00  0.00    +0.000 A 
ATOM     11  C   UNL     1       1.251   8.162  20.966  0.00  0.00    +0.000 A 
ATOM     12  C   UNL     1       0.831   9.201  20.132  0.00  0.00    +0.000 A 
ATOM     13  C   UNL     1       1.270   9.260  18.810  0.00  0.00    +0.000 A 
ATOM     14  C   UNL     1       2.141   8.284  18.322  0.00  0.00    +0.000 A 
ENDBRANCH   6   9
ENDBRANCH   5   6
BRANCH   1  15
ATOM     15  C   UNL     1       5.223   3.350  18.017  0.00  0.00    +0.000 C 
BRANCH  15  18
ATOM     16  O   UNL     1       7.546   4.551  17.069  0.00  0.00    +0.000 OA
ATOM     17  C   UNL     1       6.645   4.280  16.282  0.00  0.00    +0.000 C 
ATOM     18  N   UNL     1       5.411   3.757  16.638  0.00  0.00    +0.000 N 
ATOM     19  H   UNL     1       4.882   3.308  15.892  0.00  0.00    +0.000 HD
BRANCH  17  20
ATOM     20  C   UNL     1       6.886   4.527  14.777  0.00  0.00    +0.000 C 
ATOM     21  O   UNL     1       7.726   5.328  14.392  0.00  0.00    +0.000 OA
ATOM     22  N   UNL     1       6.066   3.737  13.986  0.00  0.00    +0.000 N 
ATOM     23  H   UNL     1       5.405   3.151  14.491  0.00  0.00    +0.000 HD
BRANCH  22  24
ATOM     24  C   UNL     1       6.077   3.727  12.561  0.00  0.00    +0.000 C 
ATOM     25  C   UNL     1       7.078   2.907  11.795  0.00  0.00    +0.000 C 
ATOM     26  C   UNL     1       5.637   2.494  11.812  0.00  0.00    +0.000 C 
ENDBRANCH  22  24
ENDBRANCH  17  20
ENDBRANCH  15  18
ENDBRANCH   1  15
TORSDOF 6
ENDMDL
MODEL 4
REMARK VINA RESULT:      -7.7      1.717      2.342
REMARK  Name = 
REMARK  6 active torsions:
REMARK  status: ('A' for Active; 'I' for Inactive)
REMARK    1  A    between atoms: C_2  and  C_19
REMARK    2  A    between atoms: N_3  and  C_4
REMARK    3  A    between atoms: C_4  and  C_5
REMARK    4  A    between atoms: N_9  and  S_10
REMARK    5  A    between atoms: S_10  and  C_13
REMARK    6  A    between atoms: N_21  and  C_22
REMARK                            x       y       z     vdW  Elec       q    Type
REMARK                         _______ _______ _______ _____ _____    ______ ____
ROOT
ATOM      1  C   UNL     1       2.030   4.977  18.748  0.00  0.00    +0.000 C 
ATOM      2  C   UNL     1       1.460   5.033  20.166  0.00  0.00    +0.000 C 
ATOM      3  C   UNL     1       1.254   3.577  20.522  0.00  0.00    +0.000 C 
ATOM      4  C   UNL     1       2.318   2.817  19.741  0.00  0.00    +0.000 C 
ATOM      5  N   UNL     1       2.978   3.794  18.808  0.00  0.00    +0.000 NA
ENDROOT
BRANCH   5   6
ATOM      6  S   UNL     1       4.621   4.135  19.159  0.00  0.00    +0.000 S 
ATOM      7  O   UNL     1       4.661   5.372  19.907  0.00  0.00    +0.000 OA
ATOM      8  O   UNL     1       5.203   2.918  19.688  0.00  0.00    +0.000 OA
BRANCH   6   9
ATOM      9  C   UNL     1       5.372   4.448  17.573  0.00  0.00    +0.000 A 
ATOM     10  C   UNL     1       6.543   5.206  17.492  0.00  0.00    +0.000 A 
ATOM     11  C   UNL     1       7.149   5.399  16.247  0.00  0.00    +0.000 A 
ATOM     12  C   UNL     1       6.591   4.835  15.097  0.00  0.00    +0.000 A 
ATOM     13  C   UNL     1       5.418   4.087  15.180  0.00  0.00    +0.000 A 
ATOM     14  C   UNL     1       4.805   3.890  16.419  0.00  0.00    +0.000 A 
ENDBRANCH   6   9
ENDBRANCH   5   6
BRANCH   1  15
ATOM     15  C   UNL     1       2.576   6.356  18.346  0.00  0.00    +0.000 C 
BRANCH  15  18
ATOM     16  O   UNL     1       1.841   8.871  17.413  0.00  0.00    +0.000 OA
ATOM     17  C   UNL     1       1.818   8.646  18.619  0.00  0.00    +0.000 C 
ATOM     18  N   UNL     1       2.236   7.465  19.215  0.00  0.00    +0.000 N 
ATOM     19  H   UNL     1       1.894   7.294  20.159  0.00  0.00    +0.000 HD
BRANCH  17  20
ATOM     20  C   UNL     1       1.280   9.745  19.560  0.00  0.00    +0.000 C 
ATOM     21  O   UNL     1       0.974  10.851  19.135  0.00  0.00    +0.000 OA
ATOM     22  N   UNL     1       1.189   9.305  20.871  0.00  0.00    +0.000 N 
ATOM     23  H   UNL     1       1.521   8.357  21.037  0.00  0.00    +0.000 HD
BRANCH  22  24
ATOM     24  C   UNL     1       0.705  10.087  21.960  0.00  0.00    +0.000 C 
ATOM     25  C   UNL     1      -0.769  10.264  22.197  0.00  0.00    +0.000 C 
ATOM     26  C   UNL     1       0.036   9.415  23.133  0.00  0.00    +0.000 C 
ENDBRANCH  22  24
ENDBRANCH  17  20
ENDBRANCH  15  18
ENDBRANCH   1  15
TORSDOF 6
ENDMDL
MODEL 5
REMARK VINA RESULT:      -7.6      2.724      6.962
REMARK  Name = 
REMARK  6 active torsions:
REMARK  status: ('A' for Active; 'I' for Inactive)
REMARK    1  A    between atoms: C_2  and  C_19
REMARK    2  A    between atoms: N_3  and  C_4
REMARK    3  A    between atoms: C_4  and  C_5
REMARK    4  A    between atoms: N_9  and  S_10
REMARK    5  A    between atoms: S_10  and  C_13
REMARK    6  A    between atoms: N_21  and  C_22
REMARK                            x       y       z     vdW  Elec       q    Type
REMARK                         _______ _______ _______ _____ _____    ______ ____
ROOT
ATOM      1  C   UNL     1       3.616   3.251  18.911  0.00  0.00    +0.000 C 
ATOM      2  C   UNL     1       2.681   2.784  17.795  0.00  0.00    +0.000 C 
ATOM      3  C   UNL     1       1.303   3.108  18.329  0.00  0.00    +0.000 C 
ATOM      4  C   UNL     1       1.496   4.316  19.236  0.00  0.00    +0.000 C 
ATOM      5  N   UNL     1       2.975   4.546  19.373  0.00  0.00    +0.000 NA
ENDROOT
BRANCH   5   6
ATOM      6  S   UNL     1       3.554   5.994  18.661  0.00  0.00    +0.000 S 
ATOM      7  O   UNL     1       4.880   6.238  19.182  0.00  0.00    +0.000 OA
ATOM      8  O   UNL     1       3.314   5.890  17.235  0.00  0.00    +0.000 OA
BRANCH   6   9
ATOM      9  C   UNL     1       2.489   7.274  19.295  0.00  0.00    +0.000 A 
ATOM     10  C   UNL     1       2.075   8.316  18.460  0.00  0.00    +0.000 A 
ATOM     11  C   UNL     1       1.199   9.285  18.957  0.00  0.00    +0.000 A 
ATOM     12  C   UNL     1       0.737   9.209  20.274  0.00  0.00    +0.000 A 
ATOM     13  C   UNL     1       1.159   8.173  21.107  0.00  0.00    +0.000 A 
ATOM     14  C   UNL     1       2.035   7.202  20.619  0.00  0.00    +0.000 A 
ENDBRANCH   6   9
ENDBRANCH   5   6
BRANCH   1  15
ATOM     15  C   UNL     1       5.067   3.270  18.408  0.00  0.00    +0.000 C 
BRANCH  15  18
ATOM     16  O   UNL     1       7.450   4.430  17.563  0.00  0.00    +0.000 OA
ATOM     17  C   UNL     1       6.541   4.265  16.755  0.00  0.00    +0.000 C 
ATOM     18  N   UNL     1       5.281   3.775  17.066  0.00  0.00    +0.000 N 
ATOM     19  H   UNL     1       4.736   3.412  16.286  0.00  0.00    +0.000 HD
BRANCH  17  20
ATOM     20  C   UNL     1       6.801   4.618  15.275  0.00  0.00    +0.000 C 
ATOM     21  O   UNL     1       7.743   5.328  14.948  0.00  0.00    +0.000 OA
ATOM     22  N   UNL     1       5.873   4.030  14.431  0.00  0.00    +0.000 N 
ATOM     23  H   UNL     1       5.140   3.495  14.894  0.00  0.00    +0.000 HD
BRANCH  22  24
ATOM     24  C   UNL     1       5.870   4.154  13.012  0.00  0.00    +0.000 C 
ATOM     25  C   UNL     1       6.968   3.557  12.175  0.00  0.00    +0.000 C 
ATOM     26  C   UNL     1       5.599   2.947  12.148  0.00  0.00    +0.000 C 
ENDBRANCH  22  24
ENDBRANCH  17  20
ENDBRANCH  15  18
ENDBRANCH   1  15
TORSDOF 6
ENDMDL
MODEL 6
REMARK VINA RESULT:      -7.6      1.427      1.615
REMARK  Name = 
REMARK  6 active torsions:
REMARK  status: ('A' for Active; 'I' for Inactive)
REMARK    1  A    between atoms: C_2  and  C_19
REMARK    2  A    between atoms: N_3  and  C_4
REMARK    3  A    between atoms: C_4  and  C_5
REMARK    4  A    between atoms: N_9  and  S_10
REMARK    5  A    between atoms: S_10  and  C_13
REMARK    6  A    between atoms: N_21  and  C_22
REMARK                            x       y       z     vdW  Elec       q    Type
REMARK                         _______ _______ _______ _____ _____    ______ ____
ROOT
ATOM      1  C   UNL     1       2.142   5.195  18.882  0.00  0.00    +0.000 C 
ATOM      2  C   UNL     1       1.596   5.121  20.308  0.00  0.00    +0.000 C 
ATOM      3  C   UNL     1       1.289   3.651  20.493  0.00  0.00    +0.000 C 
ATOM      4  C   UNL     1       2.283   2.916  19.604  0.00  0.00    +0.000 C 
ATOM      5  N   UNL     1       3.001   3.949  18.781  0.00  0.00    +0.000 NA
ENDROOT
BRANCH   5   6
ATOM      6  S   UNL     1       4.669   4.127  19.133  0.00  0.00    +0.000 S 
ATOM      7  O   UNL     1       4.838   5.386  19.824  0.00  0.00    +0.000 OA
ATOM      8  O   UNL     1       5.113   2.880  19.724  0.00  0.00    +0.000 OA
BRANCH   6   9
ATOM      9  C   UNL     1       5.459   4.282  17.544  0.00  0.00    +0.000 A 
ATOM     10  C   UNL     1       4.715   4.108  16.373  0.00  0.00    +0.000 A 
ATOM     11  C   UNL     1       5.337   4.283  15.134  0.00  0.00    +0.000 A 
ATOM     12  C   UNL     1       6.688   4.634  15.066  0.00  0.00    +0.000 A 
ATOM     13  C   UNL     1       7.429   4.798  16.235  0.00  0.00    +0.000 A 
ATOM     14  C   UNL     1       6.817   4.624  17.477  0.00  0.00    +0.000 A 
ENDBRANCH   6   9
ENDBRANCH   5   6
BRANCH   1  15
ATOM     15  C   UNL     1       2.782   6.569  18.635  0.00  0.00    +0.000 C 
BRANCH  15  18
ATOM     16  O   UNL     1       2.110   8.938  17.342  0.00  0.00    +0.000 OA
ATOM     17  C   UNL     1       1.818   8.795  18.525  0.00  0.00    +0.000 C 
ATOM     18  N   UNL     1       2.167   7.700  19.302  0.00  0.00    +0.000 N 
ATOM     19  H   UNL     1       1.625   7.563  20.153  0.00  0.00    +0.000 HD
BRANCH  17  20
ATOM     20  C   UNL     1       0.995   9.902  19.218  0.00  0.00    +0.000 C 
ATOM     21  O   UNL     1       0.159   9.633  20.070  0.00  0.00    +0.000 OA
ATOM     22  N   UNL     1       1.342  11.165  18.764  0.00  0.00    +0.000 N 
ATOM     23  H   UNL     1       2.041  11.186  18.025  0.00  0.00    +0.000 HD
BRANCH  22  24
ATOM     24  C   UNL     1       0.771  12.383  19.234  0.00  0.00    +0.000 C 
ATOM     25  C   UNL     1       1.149  13.706  18.626  0.00  0.00    +0.000 C 
ATOM     26  C   UNL     1      -0.214  13.136  18.375  0.00  0.00    +0.000 C 
ENDBRANCH  22  24
ENDBRANCH  17  20
ENDBRANCH  15  18
ENDBRANCH   1  15
TORSDOF 6
ENDMDL
MODEL 7
REMARK VINA RESULT:      -7.6      1.662      2.112
REMARK  Name = 
REMARK  6 active torsions:
REMARK  status: ('A' for Active; 'I' for Inactive)
REMARK    1  A    between atoms: C_2  and  C_19
REMARK    2  A    between atoms: N_3  and  C_4
REMARK    3  A    between atoms: C_4  and  C_5
REMARK    4  A    between atoms: N_9  and  S_10
REMARK    5  A    between atoms: S_10  and  C_13
REMARK    6  A    between atoms: N_21  and  C_22
REMARK                            x       y       z     vdW  Elec       q    Type
REMARK                         _______ _______ _______ _____ _____    ______ ____
ROOT
ATOM      1  C   UNL     1       1.964   4.616  18.489  0.00  0.00    +0.000 C 
ATOM      2  C   UNL     1       1.280   4.642  19.856  0.00  0.00    +0.000 C 
ATOM      3  C   UNL     1       1.118   3.178  20.199  0.00  0.00    +0.000 C 
ATOM      4  C   UNL     1       2.276   2.471  19.508  0.00  0.00    +0.000 C 
ATOM      5  N   UNL     1       2.961   3.481  18.628  0.00  0.00    +0.000 NA
ENDROOT
BRANCH   5   6
ATOM      6  S   UNL     1       4.551   3.901  19.108  0.00  0.00    +0.000 S 
ATOM      7  O   UNL     1       4.482   5.178  19.782  0.00  0.00    +0.000 OA
ATOM      8  O   UNL     1       5.120   2.738  19.760  0.00  0.00    +0.000 OA
BRANCH   6   9
ATOM      9  C   UNL     1       5.438   4.152  17.583  0.00  0.00    +0.000 A 
ATOM     10  C   UNL     1       4.796   3.946  16.359  0.00  0.00    +0.000 A 
ATOM     11  C   UNL     1       5.489   4.197  15.171  0.00  0.00    +0.000 A 
ATOM     12  C   UNL     1       6.810   4.652  15.208  0.00  0.00    +0.000 A 
ATOM     13  C   UNL     1       7.451   4.848  16.431  0.00  0.00    +0.000 A 
ATOM     14  C   UNL     1       6.766   4.599  17.622  0.00  0.00    +0.000 A 
ENDBRANCH   6   9
ENDBRANCH   5   6
BRANCH   1  15
ATOM     15  C   UNL     1       2.472   6.020  18.128  0.00  0.00    +0.000 C 
BRANCH  15  18
ATOM     16  O   UNL     1       2.329   8.670  17.295  0.00  0.00    +0.000 OA
ATOM     17  C   UNL     1       1.943   8.371  18.422  0.00  0.00    +0.000 C 
ATOM     18  N   UNL     1       2.036   7.106  18.982  0.00  0.00    +0.000 N 
ATOM     19  H   UNL     1       1.427   6.923  19.778  0.00  0.00    +0.000 HD
BRANCH  17  20
ATOM     20  C   UNL     1       1.298   9.470  19.292  0.00  0.00    +0.000 C 
ATOM     21  O   UNL     1       1.343  10.648  18.964  0.00  0.00    +0.000 OA
ATOM     22  N   UNL     1       0.685   8.945  20.418  0.00  0.00    +0.000 N 
ATOM     23  H   UNL     1       0.779   7.939  20.537  0.00  0.00    +0.000 HD
BRANCH  22  24
ATOM     24  C   UNL     1      -0.014   9.711  21.396  0.00  0.00    +0.000 C 
ATOM     25  C   UNL     1      -0.647   9.055  22.593  0.00  0.00    +0.000 C 
ATOM     26  C   UNL     1       0.578   9.902  22.770  0.00  0.00    +0.000 C 
ENDBRANCH  22  24
ENDBRANCH  17  20
ENDBRANCH  15  18
ENDBRANCH   1  15
TORSDOF 6
ENDMDL
MODEL 8
REMARK VINA RESULT:      -7.5      3.288      7.410
REMARK  Name = 
REMARK  6 active torsions:
REMARK  status: ('A' for Active; 'I' for Inactive)
REMARK    1  A    between atoms: C_2  and  C_19
REMARK    2  A    between atoms: N_3  and  C_4
REMARK    3  A    between atoms: C_4  and  C_5
REMARK    4  A    between atoms: N_9  and  S_10
REMARK    5  A    between atoms: S_10  and  C_13
REMARK    6  A    between atoms: N_21  and  C_22
REMARK                            x       y       z     vdW  Elec       q    Type
REMARK                         _______ _______ _______ _____ _____    ______ ____
ROOT
ATOM      1  C   UNL     1       4.156   6.540  16.882  0.00  0.00    +0.000 C 
ATOM      2  C   UNL     1       3.951   7.695  17.863  0.00  0.00    +0.000 C 
ATOM      3  C   UNL     1       2.508   7.544  18.291  0.00  0.00    +0.000 C 
ATOM      4  C   UNL     1       2.213   6.053  18.194  0.00  0.00    +0.000 C 
ATOM      5  N   UNL     1       3.395   5.401  17.534  0.00  0.00    +0.000 NA
ENDROOT
BRANCH   5   6
ATOM      6  S   UNL     1       4.295   4.343  18.538  0.00  0.00    +0.000 S 
ATOM      7  O   UNL     1       4.819   3.286  17.703  0.00  0.00    +0.000 OA
ATOM      8  O   UNL     1       5.173   5.168  19.344  0.00  0.00    +0.000 OA
BRANCH   6   9
ATOM      9  C   UNL     1       3.091   3.612  19.629  0.00  0.00    +0.000 A 
ATOM     10  C   UNL     1       3.044   3.992  20.974  0.00  0.00    +0.000 A 
ATOM     11  C   UNL     1       2.061   3.448  21.805  0.00  0.00    +0.000 A 
ATOM     12  C   UNL     1       1.131   2.538  21.295  0.00  0.00    +0.000 A 
ATOM     13  C   UNL     1       1.186   2.154  19.956  0.00  0.00    +0.000 A 
ATOM     14  C   UNL     1       2.165   2.692  19.119  0.00  0.00    +0.000 A 
ENDBRANCH   6   9
ENDBRANCH   5   6
BRANCH   1  15
ATOM     15  C   UNL     1       5.652   6.367  16.580  0.00  0.00    +0.000 C 
BRANCH  15  18
ATOM     16  O   UNL     1       7.552   4.505  15.767  0.00  0.00    +0.000 OA
ATOM     17  C   UNL     1       6.923   5.132  14.920  0.00  0.00    +0.000 C 
ATOM     18  N   UNL     1       6.011   6.140  15.194  0.00  0.00    +0.000 N 
ATOM     19  H   UNL     1       5.355   6.366  14.449  0.00  0.00    +0.000 HD
BRANCH  17  20
ATOM     20  C   UNL     1       7.145   4.782  13.433  0.00  0.00    +0.000 C 
ATOM     21  O   UNL     1       7.933   5.414  12.743  0.00  0.00    +0.000 OA
ATOM     22  N   UNL     1       6.375   3.701  13.035  0.00  0.00    +0.000 N 
ATOM     23  H   UNL     1       5.753   3.323  13.747  0.00  0.00    +0.000 HD
BRANCH  22  24
ATOM     24  C   UNL     1       6.382   3.134  11.728  0.00  0.00    +0.000 C 
ATOM     25  C   UNL     1       7.243   1.944  11.400  0.00  0.00    +0.000 C 
ATOM     26  C   UNL     1       5.756   1.782  11.488  0.00  0.00    +0.000 C 
ENDBRANCH  22  24
ENDBRANCH  17  20
ENDBRANCH  15  18
ENDBRANCH   1  15
TORSDOF 6
ENDMDL
MODEL 9
REMARK VINA RESULT:      -7.5      1.956      2.170
REMARK  Name = 
REMARK  6 active torsions:
REMARK  status: ('A' for Active; 'I' for Inactive)
REMARK    1  A    between atoms: C_2  and  C_19
REMARK    2  A    between atoms: N_3  and  C_4
REMARK    3  A    between atoms: C_4  and  C_5
REMARK    4  A    between atoms: N_9  and  S_10
REMARK    5  A    between atoms: S_10  and  C_13
REMARK    6  A    between atoms: N_21  and  C_22
REMARK                            x       y       z     vdW  Elec       q    Type
REMARK                         _______ _______ _______ _____ _____    ______ ____
ROOT
ATOM      1  C   UNL     1       1.926   4.910  19.042  0.00  0.00    +0.000 C 
ATOM      2  C   UNL     1       1.373   4.571  20.427  0.00  0.00    +0.000 C 
ATOM      3  C   UNL     1       1.197   3.069  20.380  0.00  0.00    +0.000 C 
ATOM      4  C   UNL     1       2.263   2.568  19.415  0.00  0.00    +0.000 C 
ATOM      5  N   UNL     1       2.894   3.773  18.774  0.00  0.00    +0.000 NA
ENDROOT
BRANCH   5   6
ATOM      6  S   UNL     1       4.535   4.040  19.190  0.00  0.00    +0.000 S 
ATOM      7  O   UNL     1       4.610   5.303  19.888  0.00  0.00    +0.000 OA
ATOM      8  O   UNL     1       5.024   2.817  19.795  0.00  0.00    +0.000 OA
BRANCH   6   9
ATOM      9  C   UNL     1       5.375   4.243  17.631  0.00  0.00    +0.000 A 
ATOM     10  C   UNL     1       4.664   4.127  16.434  0.00  0.00    +0.000 A 
ATOM     11  C   UNL     1       5.326   4.340  15.221  0.00  0.00    +0.000 A 
ATOM     12  C   UNL     1       6.683   4.671  15.207  0.00  0.00    +0.000 A 
ATOM     13  C   UNL     1       7.392   4.778  16.403  0.00  0.00    +0.000 A 
ATOM     14  C   UNL     1       6.739   4.566  17.619  0.00  0.00    +0.000 A 
ENDBRANCH   6   9
ENDBRANCH   5   6
BRANCH   1  15
ATOM     15  C   UNL     1       2.442   6.356  19.021  0.00  0.00    +0.000 C 
BRANCH  15  18
ATOM     16  O   UNL     1       1.496   8.966  18.858  0.00  0.00    +0.000 OA
ATOM     17  C   UNL     1       1.602   8.432  19.958  0.00  0.00    +0.000 C 
ATOM     18  N   UNL     1       2.134   7.171  20.179  0.00  0.00    +0.000 N 
ATOM     19  H   UNL     1       1.896   6.733  21.068  0.00  0.00    +0.000 HD
BRANCH  17  20
ATOM     20  C   UNL     1       1.106   9.203  21.199  0.00  0.00    +0.000 C 
ATOM     21  O   UNL     1       1.351   8.810  22.332  0.00  0.00    +0.000 OA
ATOM     22  N   UNL     1       0.400  10.344  20.852  0.00  0.00    +0.000 N 
ATOM     23  H   UNL     1       0.272  10.490  19.853  0.00  0.00    +0.000 HD
BRANCH  22  24
ATOM     24  C   UNL     1      -0.160  11.268  21.780  0.00  0.00    +0.000 C 
ATOM     25  C   UNL     1      -0.223  12.740  21.473  0.00  0.00    +0.000 C 
ATOM     26  C   UNL     1      -1.484  11.929  21.483  0.00  0.00    +0.000 C 
ENDBRANCH  22  24
ENDBRANCH  17  20
ENDBRANCH  15  18
ENDBRANCH   1  15
TORSDOF 6
ENDMDL
