MODEL 1
REMARK VINA RESULT:      -7.0      0.000      0.000
REMARK  Name = 
REMARK  20 active torsions:
REMARK  status: ('A' for Active; 'I' for Inactive)
REMARK    1  A    between atoms: C_1  and  C_2
REMARK    2  A    between atoms: C_2  and  C_3
REMARK    3  A    between atoms: C_4  and  C_5
REMARK    4  A    between atoms: C_6  and  P_7
REMARK    5  A    between atoms: P_7  and  O_9
REMARK    6  A    between atoms: P_7  and  O_18
REMARK    7  A    between atoms: O_9  and  C_10
REMARK    8  A    between atoms: C_10  and  O_11
REMARK    9  A    between atoms: O_11  and  C_12
REMARK   10  A    between atoms: C_12  and  C_14
REMARK   11  A    between atoms: C_14  and  C_15
REMARK   12  A    between atoms: C_14  and  C_16
REMARK   13  A    between atoms: C_14  and  C_17
REMARK   14  A    between atoms: O_18  and  C_19
REMARK   15  A    between atoms: C_19  and  O_20
REMARK   16  A    between atoms: O_20  and  C_21
REMARK   17  A    between atoms: C_21  and  C_23
REMARK   18  A    between atoms: C_23  and  C_24
REMARK   19  A    between atoms: C_23  and  C_25
REMARK   20  A    between atoms: C_23  and  C_26
REMARK                            x       y       z     vdW  Elec       q    Type
REMARK                         _______ _______ _______ _____ _____    ______ ____
ROOT
ATOM      1  P   UNL     1       7.306   6.450  17.308  0.00  0.00    +0.000 P 
ATOM      2  O   UNL     1       6.225   7.528  17.077  0.00  0.00    +0.000 OA
ENDROOT
BRANCH   1   4
ATOM      3  C   UNL     1       6.893   4.861  15.082  0.00  0.00    +0.000 C 
ATOM      4  C   UNL     1       6.394   5.255  16.265  0.00  0.00    +0.000 C 
BRANCH   3   8
ATOM      5  C   UNL     1       5.640   2.909  12.024  0.00  0.00    +0.000 C 
ATOM      6  C   UNL     1       6.425   3.891  12.854  0.00  0.00    +0.000 C 
ATOM      7  C   UNL     1       7.429   4.743  12.127  0.00  0.00    +0.000 C 
ATOM      8  C   UNL     1       6.200   3.970  14.181  0.00  0.00    +0.000 C 
ENDBRANCH   3   8
ENDBRANCH   1   4
BRANCH   1   9
ATOM      9  O   UNL     1       6.914   5.617  18.680  0.00  0.00    +0.000 OA
BRANCH   9  10
ATOM     10  C   UNL     1       5.799   4.754  18.589  0.00  0.00    +0.000 C 
BRANCH  10  11
ATOM     11  O   UNL     1       4.755   5.108  19.510  0.00  0.00    +0.000 OA
BRANCH  11  12
ATOM     12  C   UNL     1       3.548   5.334  18.923  0.00  0.00    +0.000 C 
ATOM     13  O   UNL     1       3.380   6.114  17.988  0.00  0.00    +0.000 OA
BRANCH  12  14
ATOM     14  C   UNL     1       2.442   4.443  19.496  0.00  0.00    +0.000 C 
ATOM     15  C   UNL     1       1.493   3.952  18.394  0.00  0.00    +0.000 C 
ATOM     16  C   UNL     1       3.096   3.221  20.170  0.00  0.00    +0.000 C 
ATOM     17  C   UNL     1       1.650   5.220  20.556  0.00  0.00    +0.000 C 
ENDBRANCH  12  14
ENDBRANCH  11  12
ENDBRANCH  10  11
ENDBRANCH   9  10
ENDBRANCH   1   9
BRANCH   1  18
ATOM     18  O   UNL     1       8.168   7.581  18.293  0.00  0.00    +0.000 OA
BRANCH  18  19
ATOM     19  C   UNL     1       7.867   8.917  17.945  0.00  0.00    +0.000 C 
BRANCH  19  20
ATOM     20  O   UNL     1       9.053   9.719  17.864  0.00  0.00    +0.000 OA
BRANCH  20  21
ATOM     21  C   UNL     1       9.240  10.556  18.920  0.00  0.00    +0.000 C 
ATOM     22  O   UNL     1       9.101  10.234  20.093  0.00  0.00    +0.000 OA
BRANCH  21  23
ATOM     23  C   UNL     1       9.670  11.951  18.457  0.00  0.00    +0.000 C 
ATOM     24  C   UNL     1       8.563  12.572  17.597  0.00  0.00    +0.000 C 
ATOM     25  C   UNL     1       9.906  12.834  19.692  0.00  0.00    +0.000 C 
ATOM     26  C   UNL     1      10.976  11.858  17.655  0.00  0.00    +0.000 C 
ENDBRANCH  21  23
ENDBRANCH  20  21
ENDBRANCH  19  20
ENDBRANCH  18  19
ENDBRANCH   1  18
TORSDOF 12
ENDMDL
MODEL 2
REMARK VINA RESULT:      -6.9      1.015      1.596
REMARK  Name = 
REMARK  20 active torsions:
REMARK  status: ('A' for Active; 'I' for Inactive)
REMARK    1  A    between atoms: C_1  and  C_2
REMARK    2  A    between atoms: C_2  and  C_3
REMARK    3  A    between atoms: C_4  and  C_5
REMARK    4  A    between atoms: C_6  and  P_7
REMARK    5  A    between atoms: P_7  and  O_9
REMARK    6  A    between atoms: P_7  and  O_18
REMARK    7  A    between atoms: O_9  and  C_10
REMARK    8  A    between atoms: C_10  and  O_11
REMARK    9  A    between atoms: O_11  and  C_12
REMARK   10  A    between atoms: C_12  and  C_14
REMARK   11  A    between atoms: C_14  and  C_15
REMARK   12  A    between atoms: C_14  and  C_16
REMARK   13  A    between atoms: C_14  and  C_17
REMARK   14  A    between atoms: O_18  and  C_19
REMARK   15  A    between atoms: C_19  and  O_20
REMARK   16  A    between atoms: O_20  and  C_21
REMARK   17  A    between atoms: C_21  and  C_23
REMARK   18  A    between atoms: C_23  and  C_24
REMARK   19  A    between atoms: C_23  and  C_25
REMARK   20  A    between atoms: C_23  and  C_26
REMARK                            x       y       z     vdW  Elec       q    Type
REMARK                         _______ _______ _______ _____ _____    ______ ____
ROOT
ATOM      1  P   UNL     1       7.396   5.924  17.558  0.00  0.00    +0.000 P 
ATOM      2  O   UNL     1       7.098   7.063  16.560  0.00  0.00    +0.000 OA
ENDROOT
BRANCH   1   4
ATOM      3  C   UNL     1       6.679   4.862  15.108  0.00  0.00    +0.000 C 
ATOM      4  C   UNL     1       6.639   4.690  16.438  0.00  0.00    +0.000 C 
BRANCH   3   8
ATOM      5  C   UNL     1       5.641   2.881  11.988  0.00  0.00    +0.000 C 
ATOM      6  C   UNL     1       6.368   3.869  12.861  0.00  0.00    +0.000 C 
ATOM      7  C   UNL     1       7.424   4.712  12.199  0.00  0.00    +0.000 C 
ATOM      8  C   UNL     1       6.049   3.963  14.168  0.00  0.00    +0.000 C 
ENDBRANCH   3   8
ENDBRANCH   1   4
BRANCH   1   9
ATOM      9  O   UNL     1       6.124   5.815  18.607  0.00  0.00    +0.000 OA
BRANCH   9  10
ATOM     10  C   UNL     1       4.834   5.869  18.032  0.00  0.00    +0.000 C 
BRANCH  10  11
ATOM     11  O   UNL     1       4.053   4.701  18.325  0.00  0.00    +0.000 OA
BRANCH  11  12
ATOM     12  C   UNL     1       3.106   4.890  19.285  0.00  0.00    +0.000 C 
ATOM     13  O   UNL     1       3.086   5.860  20.039  0.00  0.00    +0.000 OA
BRANCH  12  14
ATOM     14  C   UNL     1       2.021   3.810  19.259  0.00  0.00    +0.000 C 
ATOM     15  C   UNL     1       2.602   2.427  19.586  0.00  0.00    +0.000 C 
ATOM     16  C   UNL     1       0.953   4.163  20.313  0.00  0.00    +0.000 C 
ATOM     17  C   UNL     1       1.354   3.780  17.877  0.00  0.00    +0.000 C 
ENDBRANCH  12  14
ENDBRANCH  11  12
ENDBRANCH  10  11
ENDBRANCH   9  10
ENDBRANCH   1   9
BRANCH   1  18
ATOM     18  O   UNL     1       8.113   7.090  18.616  0.00  0.00    +0.000 OA
BRANCH  18  19
ATOM     19  C   UNL     1       8.004   8.402  18.102  0.00  0.00    +0.000 C 
BRANCH  19  20
ATOM     20  O   UNL     1       8.899   9.302  18.767  0.00  0.00    +0.000 OA
BRANCH  20  21
ATOM     21  C   UNL     1       8.811  10.595  18.349  0.00  0.00    +0.000 C 
ATOM     22  O   UNL     1       8.115  10.977  17.418  0.00  0.00    +0.000 OA
BRANCH  21  23
ATOM     23  C   UNL     1       9.681  11.518  19.208  0.00  0.00    +0.000 C 
ATOM     24  C   UNL     1      11.141  11.421  18.752  0.00  0.00    +0.000 C 
ATOM     25  C   UNL     1       9.191  12.964  19.033  0.00  0.00    +0.000 C 
ATOM     26  C   UNL     1       9.559  11.127  20.688  0.00  0.00    +0.000 C 
ENDBRANCH  21  23
ENDBRANCH  20  21
ENDBRANCH  19  20
ENDBRANCH  18  19
ENDBRANCH   1  18
TORSDOF 12
ENDMDL
MODEL 3
REMARK VINA RESULT:      -6.9      1.204      1.848
REMARK  Name = 
REMARK  20 active torsions:
REMARK  status: ('A' for Active; 'I' for Inactive)
REMARK    1  A    between atoms: C_1  and  C_2
REMARK    2  A    between atoms: C_2  and  C_3
REMARK    3  A    between atoms: C_4  and  C_5
REMARK    4  A    between atoms: C_6  and  P_7
REMARK    5  A    between atoms: P_7  and  O_9
REMARK    6  A    between atoms: P_7  and  O_18
REMARK    7  A    between atoms: O_9  and  C_10
REMARK    8  A    between atoms: C_10  and  O_11
REMARK    9  A    between atoms: O_11  and  C_12
REMARK   10  A    between atoms: C_12  and  C_14
REMARK   11  A    between atoms: C_14  and  C_15
REMARK   12  A    between atoms: C_14  and  C_16
REMARK   13  A    between atoms: C_14  and  C_17
REMARK   14  A    between atoms: O_18  and  C_19
REMARK   15  A    between atoms: C_19  and  O_20
REMARK   16  A    between atoms: O_20  and  C_21
REMARK   17  A    between atoms: C_21  and  C_23
REMARK   18  A    between atoms: C_23  and  C_24
REMARK   19  A    between atoms: C_23  and  C_25
REMARK   20  A    between atoms: C_23  and  C_26
REMARK                            x       y       z     vdW  Elec       q    Type
REMARK                         _______ _______ _______ _____ _____    ______ ____
ROOT
ATOM      1  P   UNL     1       7.279   6.584  17.310  0.00  0.00    +0.000 P 
ATOM      2  O   UNL     1       6.574   7.876  16.847  0.00  0.00    +0.000 OA
ENDROOT
BRANCH   1   4
ATOM      3  C   UNL     1       6.927   4.658  15.357  0.00  0.00    +0.000 C 
ATOM      4  C   UNL     1       6.319   5.584  16.116  0.00  0.00    +0.000 C 
BRANCH   3   8
ATOM      5  C   UNL     1       5.701   3.079  12.081  0.00  0.00    +0.000 C 
ATOM      6  C   UNL     1       6.476   3.959  13.026  0.00  0.00    +0.000 C 
ATOM      7  C   UNL     1       7.474   4.901  12.411  0.00  0.00    +0.000 C 
ATOM      8  C   UNL     1       6.245   3.877  14.352  0.00  0.00    +0.000 C 
ENDBRANCH   3   8
ENDBRANCH   1   4
BRANCH   1   9
ATOM      9  O   UNL     1       6.425   5.962  18.582  0.00  0.00    +0.000 OA
BRANCH   9  10
ATOM     10  C   UNL     1       5.018   6.063  18.498  0.00  0.00    +0.000 C 
BRANCH  10  11
ATOM     11  O   UNL     1       4.351   5.278  19.498  0.00  0.00    +0.000 OA
BRANCH  11  12
ATOM     12  C   UNL     1       4.330   3.943  19.236  0.00  0.00    +0.000 C 
ATOM     13  O   UNL     1       5.191   3.159  19.628  0.00  0.00    +0.000 OA
BRANCH  12  14
ATOM     14  C   UNL     1       3.070   3.515  18.479  0.00  0.00    +0.000 C 
ATOM     15  C   UNL     1       1.936   4.535  18.657  0.00  0.00    +0.000 C 
ATOM     16  C   UNL     1       3.412   3.407  16.979  0.00  0.00    +0.000 C 
ATOM     17  C   UNL     1       2.612   2.137  18.975  0.00  0.00    +0.000 C 
ENDBRANCH  12  14
ENDBRANCH  11  12
ENDBRANCH  10  11
ENDBRANCH   9  10
ENDBRANCH   1   9
BRANCH   1  18
ATOM     18  O   UNL     1       8.187   7.529  18.440  0.00  0.00    +0.000 OA
BRANCH  18  19
ATOM     19  C   UNL     1       8.232   8.892  18.066  0.00  0.00    +0.000 C 
BRANCH  19  20
ATOM     20  O   UNL     1       9.184   9.621  18.852  0.00  0.00    +0.000 OA
BRANCH  20  21
ATOM     21  C   UNL     1       9.147  10.969  18.673  0.00  0.00    +0.000 C 
ATOM     22  O   UNL     1       8.689  11.526  17.684  0.00  0.00    +0.000 OA
BRANCH  21  23
ATOM     23  C   UNL     1       9.732  11.707  19.881  0.00  0.00    +0.000 C 
ATOM     24  C   UNL     1      11.253  11.511  19.917  0.00  0.00    +0.000 C 
ATOM     25  C   UNL     1       9.419  13.206  19.747  0.00  0.00    +0.000 C 
ATOM     26  C   UNL     1       9.098  11.180  21.176  0.00  0.00    +0.000 C 
ENDBRANCH  21  23
ENDBRANCH  20  21
ENDBRANCH  19  20
ENDBRANCH  18  19
ENDBRANCH   1  18
TORSDOF 12
ENDMDL
MODEL 4
REMARK VINA RESULT:      -6.8      0.924      1.421
REMARK  Name = 
REMARK  20 active torsions:
REMARK  status: ('A' for Active; 'I' for Inactive)
REMARK    1  A    between atoms: C_1  and  C_2
REMARK    2  A    between atoms: C_2  and  C_3
REMARK    3  A    between atoms: C_4  and  C_5
REMARK    4  A    between atoms: C_6  and  P_7
REMARK    5  A    between atoms: P_7  and  O_9
REMARK    6  A    between atoms: P_7  and  O_18
REMARK    7  A    between atoms: O_9  and  C_10
REMARK    8  A    between atoms: C_10  and  O_11
REMARK    9  A    between atoms: O_11  and  C_12
REMARK   10  A    between atoms: C_12  and  C_14
REMARK   11  A    between atoms: C_14  and  C_15
REMARK   12  A    between atoms: C_14  and  C_16
REMARK   13  A    between atoms: C_14  and  C_17
REMARK   14  A    between atoms: O_18  and  C_19
REMARK   15  A    between atoms: C_19  and  O_20
REMARK   16  A    between atoms: O_20  and  C_21
REMARK   17  A    between atoms: C_21  and  C_23
REMARK   18  A    between atoms: C_23  and  C_24
REMARK   19  A    between atoms: C_23  and  C_25
REMARK   20  A    between atoms: C_23  and  C_26
REMARK                            x       y       z     vdW  Elec       q    Type
REMARK                         _______ _______ _______ _____ _____    ______ ____
ROOT
ATOM      1  P   UNL     1       7.386   6.536  17.537  0.00  0.00    +0.000 P 
ATOM      2  O   UNL     1       6.576   7.781  17.120  0.00  0.00    +0.000 OA
ENDROOT
BRANCH   1   4
ATOM      3  C   UNL     1       7.020   4.807  15.411  0.00  0.00    +0.000 C 
ATOM      4  C   UNL     1       6.415   5.475  16.406  0.00  0.00    +0.000 C 
BRANCH   3   8
ATOM      5  C   UNL     1       5.708   3.145  12.209  0.00  0.00    +0.000 C 
ATOM      6  C   UNL     1       6.509   4.047  13.111  0.00  0.00    +0.000 C 
ATOM      7  C   UNL     1       7.497   4.966  12.447  0.00  0.00    +0.000 C 
ATOM      8  C   UNL     1       6.310   4.002  14.444  0.00  0.00    +0.000 C 
ENDBRANCH   3   8
ENDBRANCH   1   4
BRANCH   1   9
ATOM      9  O   UNL     1       6.654   5.868  18.860  0.00  0.00    +0.000 OA
BRANCH   9  10
ATOM     10  C   UNL     1       5.255   5.691  18.776  0.00  0.00    +0.000 C 
BRANCH  10  11
ATOM     11  O   UNL     1       4.839   4.388  19.216  0.00  0.00    +0.000 OA
BRANCH  11  12
ATOM     12  C   UNL     1       3.508   4.288  19.479  0.00  0.00    +0.000 C 
ATOM     13  O   UNL     1       2.934   4.941  20.348  0.00  0.00    +0.000 OA
BRANCH  12  14
ATOM     14  C   UNL     1       2.789   3.342  18.513  0.00  0.00    +0.000 C 
ATOM     15  C   UNL     1       3.762   2.749  17.484  0.00  0.00    +0.000 C 
ATOM     16  C   UNL     1       2.166   2.191  19.328  0.00  0.00    +0.000 C 
ATOM     17  C   UNL     1       1.665   4.095  17.792  0.00  0.00    +0.000 C 
ENDBRANCH  12  14
ENDBRANCH  11  12
ENDBRANCH  10  11
ENDBRANCH   9  10
ENDBRANCH   1   9
BRANCH   1  18
ATOM     18  O   UNL     1       8.304   7.539  18.607  0.00  0.00    +0.000 OA
BRANCH  18  19
ATOM     19  C   UNL     1       8.221   8.903  18.248  0.00  0.00    +0.000 C 
BRANCH  19  20
ATOM     20  O   UNL     1       9.461   9.585  18.480  0.00  0.00    +0.000 OA
BRANCH  20  21
ATOM     21  C   UNL     1       9.363  10.672  19.291  0.00  0.00    +0.000 C 
ATOM     22  O   UNL     1       8.998  10.636  20.459  0.00  0.00    +0.000 OA
BRANCH  21  23
ATOM     23  C   UNL     1       9.790  11.951  18.563  0.00  0.00    +0.000 C 
ATOM     24  C   UNL     1      11.000  11.654  17.669  0.00  0.00    +0.000 C 
ATOM     25  C   UNL     1       8.623  12.439  17.691  0.00  0.00    +0.000 C 
ATOM     26  C   UNL     1      10.140  13.044  19.583  0.00  0.00    +0.000 C 
ENDBRANCH  21  23
ENDBRANCH  20  21
ENDBRANCH  19  20
ENDBRANCH  18  19
ENDBRANCH   1  18
TORSDOF 12
ENDMDL
MODEL 5
REMARK VINA RESULT:      -6.8      0.931      1.584
REMARK  Name = 
REMARK  20 active torsions:
REMARK  status: ('A' for Active; 'I' for Inactive)
REMARK    1  A    between atoms: C_1  and  C_2
REMARK    2  A    between atoms: C_2  and  C_3
REMARK    3  A    between atoms: C_4  and  C_5
REMARK    4  A    between atoms: C_6  and  P_7
REMARK    5  A    between atoms: P_7  and  O_9
REMARK    6  A    between atoms: P_7  and  O_18
REMARK    7  A    between atoms: O_9  and  C_10
REMARK    8  A    between atoms: C_10  and  O_11
REMARK    9  A    between atoms: O_11  and  C_12
REMARK   10  A    between atoms: C_12  and  C_14
REMARK   11  A    between atoms: C_14  and  C_15
REMARK   12  A    between atoms: C_14  and  C_16
REMARK   13  A    between atoms: C_14  and  C_17
REMARK   14  A    between atoms: O_18  and  C_19
REMARK   15  A    between atoms: C_19  and  O_20
REMARK   16  A    between atoms: O_20  and  C_21
REMARK   17  A    between atoms: C_21  and  C_23
REMARK   18  A    between atoms: C_23  and  C_24
REMARK   19  A    between atoms: C_23  and  C_25
REMARK   20  A    between atoms: C_23  and  C_26
REMARK                            x       y       z     vdW  Elec       q    Type
REMARK                         _______ _______ _______ _____ _____    ______ ____
ROOT
ATOM      1  P   UNL     1       7.394   5.931  17.572  0.00  0.00    +0.000 P 
ATOM      2  O   UNL     1       6.902   7.120  16.720  0.00  0.00    +0.000 OA
ENDROOT
BRANCH   1   4
ATOM      3  C   UNL     1       6.209   5.135  15.204  0.00  0.00    +0.000 C 
ATOM      4  C   UNL     1       6.639   4.735  16.411  0.00  0.00    +0.000 C 
BRANCH   3   8
ATOM      5  C   UNL     1       5.247   3.003  12.161  0.00  0.00    +0.000 C 
ATOM      6  C   UNL     1       6.031   3.936  13.046  0.00  0.00    +0.000 C 
ATOM      7  C   UNL     1       7.328   4.462  12.496  0.00  0.00    +0.000 C 
ATOM      8  C   UNL     1       5.549   4.261  14.262  0.00  0.00    +0.000 C 
ENDBRANCH   3   8
ENDBRANCH   1   4
BRANCH   1   9
ATOM      9  O   UNL     1       6.245   5.610  18.716  0.00  0.00    +0.000 OA
BRANCH   9  10
ATOM     10  C   UNL     1       5.661   4.324  18.669  0.00  0.00    +0.000 C 
BRANCH  10  11
ATOM     11  O   UNL     1       4.496   4.220  19.503  0.00  0.00    +0.000 OA
BRANCH  11  12
ATOM     12  C   UNL     1       3.331   4.533  18.874  0.00  0.00    +0.000 C 
ATOM     13  O   UNL     1       3.263   5.270  17.892  0.00  0.00    +0.000 OA
BRANCH  12  14
ATOM     14  C   UNL     1       2.128   3.793  19.466  0.00  0.00    +0.000 C 
ATOM     15  C   UNL     1       1.388   4.662  20.493  0.00  0.00    +0.000 C 
ATOM     16  C   UNL     1       1.157   3.440  18.322  0.00  0.00    +0.000 C 
ATOM     17  C   UNL     1       2.597   2.491  20.129  0.00  0.00    +0.000 C 
ENDBRANCH  12  14
ENDBRANCH  11  12
ENDBRANCH  10  11
ENDBRANCH   9  10
ENDBRANCH   1   9
BRANCH   1  18
ATOM     18  O   UNL     1       8.108   7.062  18.670  0.00  0.00    +0.000 OA
BRANCH  18  19
ATOM     19  C   UNL     1       8.222   8.349  18.097  0.00  0.00    +0.000 C 
BRANCH  19  20
ATOM     20  O   UNL     1       8.907   9.255  18.971  0.00  0.00    +0.000 OA
BRANCH  20  21
ATOM     21  C   UNL     1       8.877  10.555  18.572  0.00  0.00    +0.000 C 
ATOM     22  O   UNL     1       8.314  10.957  17.562  0.00  0.00    +0.000 OA
BRANCH  21  23
ATOM     23  C   UNL     1       9.619  11.459  19.560  0.00  0.00    +0.000 C 
ATOM     24  C   UNL     1      11.129  11.361  19.314  0.00  0.00    +0.000 C 
ATOM     25  C   UNL     1       9.164  12.911  19.343  0.00  0.00    +0.000 C 
ATOM     26  C   UNL     1       9.288  11.045  21.001  0.00  0.00    +0.000 C 
ENDBRANCH  21  23
ENDBRANCH  20  21
ENDBRANCH  19  20
ENDBRANCH  18  19
ENDBRANCH   1  18
TORSDOF 12
ENDMDL
MODEL 6
REMARK VINA RESULT:      -6.8      1.092      1.219
REMARK  Name = 
REMARK  20 active torsions:
REMARK  status: ('A' for Active; 'I' for Inactive)
REMARK    1  A    between atoms: C_1  and  C_2
REMARK    2  A    between atoms: C_2  and  C_3
REMARK    3  A    between atoms: C_4  and  C_5
REMARK    4  A    between atoms: C_6  and  P_7
REMARK    5  A    between atoms: P_7  and  O_9
REMARK    6  A    between atoms: P_7  and  O_18
REMARK    7  A    between atoms: O_9  and  C_10
REMARK    8  A    between atoms: C_10  and  O_11
REMARK    9  A    between atoms: O_11  and  C_12
REMARK   10  A    between atoms: C_12  and  C_14
REMARK   11  A    between atoms: C_14  and  C_15
REMARK   12  A    between atoms: C_14  and  C_16
REMARK   13  A    between atoms: C_14  and  C_17
REMARK   14  A    between atoms: O_18  and  C_19
REMARK   15  A    between atoms: C_19  and  O_20
REMARK   16  A    between atoms: O_20  and  C_21
REMARK   17  A    between atoms: C_21  and  C_23
REMARK   18  A    between atoms: C_23  and  C_24
REMARK   19  A    between atoms: C_23  and  C_25
REMARK   20  A    between atoms: C_23  and  C_26
REMARK                            x       y       z     vdW  Elec       q    Type
REMARK                         _______ _______ _______ _____ _____    ______ ____
ROOT
ATOM      1  P   UNL     1       6.514   6.282  16.841  0.00  0.00    +0.000 P 
ATOM      2  O   UNL     1       4.992   6.528  16.903  0.00  0.00    +0.000 OA
ENDROOT
BRANCH   1   4
ATOM      3  C   UNL     1       5.894   4.895  14.531  0.00  0.00    +0.000 C 
ATOM      4  C   UNL     1       6.271   4.787  15.814  0.00  0.00    +0.000 C 
BRANCH   3   8
ATOM      5  C   UNL     1       5.862   2.293  11.709  0.00  0.00    +0.000 C 
ATOM      6  C   UNL     1       6.227   3.523  12.497  0.00  0.00    +0.000 C 
ATOM      7  C   UNL     1       7.260   4.434  11.893  0.00  0.00    +0.000 C 
ATOM      8  C   UNL     1       5.624   3.759  13.680  0.00  0.00    +0.000 C 
ENDBRANCH   3   8
ENDBRANCH   1   4
BRANCH   1   9
ATOM      9  O   UNL     1       6.939   5.366  18.150  0.00  0.00    +0.000 OA
BRANCH   9  10
ATOM     10  C   UNL     1       5.967   5.244  19.168  0.00  0.00    +0.000 C 
BRANCH  10  11
ATOM     11  O   UNL     1       5.172   4.056  19.028  0.00  0.00    +0.000 OA
BRANCH  11  12
ATOM     12  C   UNL     1       3.845   4.242  19.267  0.00  0.00    +0.000 C 
ATOM     13  O   UNL     1       3.397   5.176  19.929  0.00  0.00    +0.000 OA
BRANCH  12  14
ATOM     14  C   UNL     1       2.970   3.213  18.547  0.00  0.00    +0.000 C 
ATOM     15  C   UNL     1       2.743   3.602  17.079  0.00  0.00    +0.000 C 
ATOM     16  C   UNL     1       3.680   1.846  18.595  0.00  0.00    +0.000 C 
ATOM     17  C   UNL     1       1.621   3.089  19.266  0.00  0.00    +0.000 C 
ENDBRANCH  12  14
ENDBRANCH  11  12
ENDBRANCH  10  11
ENDBRANCH   9  10
ENDBRANCH   1   9
BRANCH   1  18
ATOM     18  O   UNL     1       6.743   7.696  17.811  0.00  0.00    +0.000 OA
BRANCH  18  19
ATOM     19  C   UNL     1       8.041   8.234  17.657  0.00  0.00    +0.000 C 
BRANCH  19  20
ATOM     20  O   UNL     1       8.028   9.666  17.723  0.00  0.00    +0.000 OA
BRANCH  20  21
ATOM     21  C   UNL     1       8.873  10.194  18.650  0.00  0.00    +0.000 C 
ATOM     22  O   UNL     1       9.310   9.585  19.618  0.00  0.00    +0.000 OA
BRANCH  21  23
ATOM     23  C   UNL     1       9.228  11.646  18.316  0.00  0.00    +0.000 C 
ATOM     24  C   UNL     1       8.160  12.237  17.388  0.00  0.00    +0.000 C 
ATOM     25  C   UNL     1       9.272  12.459  19.619  0.00  0.00    +0.000 C 
ATOM     26  C   UNL     1      10.608  11.708  17.645  0.00  0.00    +0.000 C 
ENDBRANCH  21  23
ENDBRANCH  20  21
ENDBRANCH  19  20
ENDBRANCH  18  19
ENDBRANCH   1  18
TORSDOF 12
ENDMDL
MODEL 7
REMARK VINA RESULT:      -6.8      0.736      1.306
REMARK  Name = 
REMARK  20 active torsions:
REMARK  status: ('A' for Active; 'I' for Inactive)
REMARK    1  A    between atoms: C_1  and  C_2
REMARK    2  A    between atoms: C_2  and  C_3
REMARK    3  A    between atoms: C_4  and  C_5
REMARK    4  A    between atoms: C_6  and  P_7
REMARK    5  A    between atoms: P_7  and  O_9
REMARK    6  A    between atoms: P_7  and  O_18
REMARK    7  A    between atoms: O_9  and  C_10
REMARK    8  A    between atoms: C_10  and  O_11
REMARK    9  A    between atoms: O_11  and  C_12
REMARK   10  A    between atoms: C_12  and  C_14
REMARK   11  A    between atoms: C_14  and  C_15
REMARK   12  A    between atoms: C_14  and  C_16
REMARK   13  A    between atoms: C_14  and  C_17
REMARK   14  A    between atoms: O_18  and  C_19
REMARK   15  A    between atoms: C_19  and  O_20
REMARK   16  A    between atoms: O_20  and  C_21
REMARK   17  A    between atoms: C_21  and  C_23
REMARK   18  A    between atoms: C_23  and  C_24
REMARK   19  A    between atoms: C_23  and  C_25
REMARK   20  A    between atoms: C_23  and  C_26
REMARK                            x       y       z     vdW  Elec       q    Type
REMARK                         _______ _______ _______ _____ _____    ______ ____
ROOT
ATOM      1  P   UNL     1       7.458   6.367  17.480  0.00  0.00    +0.000 P 
ATOM      2  O   UNL     1       6.521   7.405  16.828  0.00  0.00    +0.000 OA
ENDROOT
BRANCH   1   4
ATOM      3  C   UNL     1       6.587   5.239  15.110  0.00  0.00    +0.000 C 
ATOM      4  C   UNL     1       6.784   5.034  16.422  0.00  0.00    +0.000 C 
BRANCH   3   8
ATOM      5  C   UNL     1       5.706   2.970  12.143  0.00  0.00    +0.000 C 
ATOM      6  C   UNL     1       6.393   4.035  12.956  0.00  0.00    +0.000 C 
ATOM      7  C   UNL     1       7.492   4.805  12.276  0.00  0.00    +0.000 C 
ATOM      8  C   UNL     1       6.003   4.256  14.228  0.00  0.00    +0.000 C 
ENDBRANCH   3   8
ENDBRANCH   1   4
BRANCH   1   9
ATOM      9  O   UNL     1       6.694   5.753  18.812  0.00  0.00    +0.000 OA
BRANCH   9  10
ATOM     10  C   UNL     1       5.862   4.632  18.592  0.00  0.00    +0.000 C 
BRANCH  10  11
ATOM     11  O   UNL     1       4.690   4.648  19.422  0.00  0.00    +0.000 OA
BRANCH  11  12
ATOM     12  C   UNL     1       3.524   4.796  18.737  0.00  0.00    +0.000 C 
ATOM     13  O   UNL     1       3.443   5.343  17.639  0.00  0.00    +0.000 OA
BRANCH  12  14
ATOM     14  C   UNL     1       2.341   4.126  19.442  0.00  0.00    +0.000 C 
ATOM     15  C   UNL     1       1.689   5.071  20.461  0.00  0.00    +0.000 C 
ATOM     16  C   UNL     1       1.292   3.740  18.380  0.00  0.00    +0.000 C 
ATOM     17  C   UNL     1       2.815   2.849  20.147  0.00  0.00    +0.000 C 
ENDBRANCH  12  14
ENDBRANCH  11  12
ENDBRANCH  10  11
ENDBRANCH   9  10
ENDBRANCH   1   9
BRANCH   1  18
ATOM     18  O   UNL     1       8.095   7.626  18.481  0.00  0.00    +0.000 OA
BRANCH  18  19
ATOM     19  C   UNL     1       8.035   8.885  17.841  0.00  0.00    +0.000 C 
BRANCH  19  20
ATOM     20  O   UNL     1       8.834   9.860  18.524  0.00  0.00    +0.000 OA
BRANCH  20  21
ATOM     21  C   UNL     1       8.712  11.126  18.042  0.00  0.00    +0.000 C 
ATOM     22  O   UNL     1       7.805  11.506  17.312  0.00  0.00    +0.000 OA
BRANCH  21  23
ATOM     23  C   UNL     1       9.843  12.026  18.547  0.00  0.00    +0.000 C 
ATOM     24  C   UNL     1       9.280  13.059  19.530  0.00  0.00    +0.000 C 
ATOM     25  C   UNL     1      10.885  11.157  19.269  0.00  0.00    +0.000 C 
ATOM     26  C   UNL     1      10.520  12.733  17.364  0.00  0.00    +0.000 C 
ENDBRANCH  21  23
ENDBRANCH  20  21
ENDBRANCH  19  20
ENDBRANCH  18  19
ENDBRANCH   1  18
TORSDOF 12
ENDMDL
MODEL 8
REMARK VINA RESULT:      -6.7      4.052      4.803
REMARK  Name = 
REMARK  20 active torsions:
REMARK  status: ('A' for Active; 'I' for Inactive)
REMARK    1  A    between atoms: C_1  and  C_2
REMARK    2  A    between atoms: C_2  and  C_3
REMARK    3  A    between atoms: C_4  and  C_5
REMARK    4  A    between atoms: C_6  and  P_7
REMARK    5  A    between atoms: P_7  and  O_9
REMARK    6  A    between atoms: P_7  and  O_18
REMARK    7  A    between atoms: O_9  and  C_10
REMARK    8  A    between atoms: C_10  and  O_11
REMARK    9  A    between atoms: O_11  and  C_12
REMARK   10  A    between atoms: C_12  and  C_14
REMARK   11  A    between atoms: C_14  and  C_15
REMARK   12  A    between atoms: C_14  and  C_16
REMARK   13  A    between atoms: C_14  and  C_17
REMARK   14  A    between atoms: O_18  and  C_19
REMARK   15  A    between atoms: C_19  and  O_20
REMARK   16  A    between atoms: O_20  and  C_21
REMARK   17  A    between atoms: C_21  and  C_23
REMARK   18  A    between atoms: C_23  and  C_24
REMARK   19  A    between atoms: C_23  and  C_25
REMARK   20  A    between atoms: C_23  and  C_26
REMARK                            x       y       z     vdW  Elec       q    Type
REMARK                         _______ _______ _______ _____ _____    ______ ____
ROOT
ATOM      1  P   UNL     1       5.634   5.966  16.488  0.00  0.00    +0.000 P 
ATOM      2  O   UNL     1       5.057   6.922  15.422  0.00  0.00    +0.000 OA
ENDROOT
BRANCH   1   4
ATOM      3  C   UNL     1       5.826   4.297  14.292  0.00  0.00    +0.000 C 
ATOM      4  C   UNL     1       6.512   5.001  15.205  0.00  0.00    +0.000 C 
BRANCH   3   8
ATOM      5  C   UNL     1       6.628   2.200  11.179  0.00  0.00    +0.000 C 
ATOM      6  C   UNL     1       5.861   3.060  12.148  0.00  0.00    +0.000 C 
ATOM      7  C   UNL     1       4.448   3.414  11.770  0.00  0.00    +0.000 C 
ATOM      8  C   UNL     1       6.451   3.464  13.290  0.00  0.00    +0.000 C 
ENDBRANCH   3   8
ENDBRANCH   1   4
BRANCH   1   9
ATOM      9  O   UNL     1       4.546   4.744  16.722  0.00  0.00    +0.000 OA
BRANCH   9  10
ATOM     10  C   UNL     1       4.771   3.914  17.843  0.00  0.00    +0.000 C 
BRANCH  10  11
ATOM     11  O   UNL     1       3.722   2.952  18.034  0.00  0.00    +0.000 OA
BRANCH  11  12
ATOM     12  C   UNL     1       3.055   3.082  19.213  0.00  0.00    +0.000 C 
ATOM     13  O   UNL     1       3.602   3.037  20.313  0.00  0.00    +0.000 OA
BRANCH  12  14
ATOM     14  C   UNL     1       1.567   3.381  19.015  0.00  0.00    +0.000 C 
ATOM     15  C   UNL     1       0.765   2.094  18.778  0.00  0.00    +0.000 C 
ATOM     16  C   UNL     1       1.032   4.074  20.285  0.00  0.00    +0.000 C 
ATOM     17  C   UNL     1       1.385   4.333  17.826  0.00  0.00    +0.000 C 
ENDBRANCH  12  14
ENDBRANCH  11  12
ENDBRANCH  10  11
ENDBRANCH   9  10
ENDBRANCH   1   9
BRANCH   1  18
ATOM     18  O   UNL     1       4.803   6.878  17.701  0.00  0.00    +0.000 OA
BRANCH  18  19
ATOM     19  C   UNL     1       3.479   7.183  17.313  0.00  0.00    +0.000 C 
BRANCH  19  20
ATOM     20  O   UNL     1       3.079   8.478  17.779  0.00  0.00    +0.000 OA
BRANCH  20  21
ATOM     21  C   UNL     1       2.127   8.458  18.751  0.00  0.00    +0.000 C 
ATOM     22  O   UNL     1       1.971   7.545  19.551  0.00  0.00    +0.000 OA
BRANCH  21  23
ATOM     23  C   UNL     1       1.285   9.738  18.731  0.00  0.00    +0.000 C 
ATOM     24  C   UNL     1       0.041   9.523  17.860  0.00  0.00    +0.000 C 
ATOM     25  C   UNL     1       0.846  10.064  20.168  0.00  0.00    +0.000 C 
ATOM     26  C   UNL     1       2.118  10.907  18.188  0.00  0.00    +0.000 C 
ENDBRANCH  21  23
ENDBRANCH  20  21
ENDBRANCH  19  20
ENDBRANCH  18  19
ENDBRANCH   1  18
TORSDOF 12
ENDMDL
MODEL 9
REMARK VINA RESULT:      -6.7      4.225      5.032
REMARK  Name = 
REMARK  20 active torsions:
REMARK  status: ('A' for Active; 'I' for Inactive)
REMARK    1  A    between atoms: C_1  and  C_2
REMARK    2  A    between atoms: C_2  and  C_3
REMARK    3  A    between atoms: C_4  and  C_5
REMARK    4  A    between atoms: C_6  and  P_7
REMARK    5  A    between atoms: P_7  and  O_9
REMARK    6  A    between atoms: P_7  and  O_18
REMARK    7  A    between atoms: O_9  and  C_10
REMARK    8  A    between atoms: C_10  and  O_11
REMARK    9  A    between atoms: O_11  and  C_12
REMARK   10  A    between atoms: C_12  and  C_14
REMARK   11  A    between atoms: C_14  and  C_15
REMARK   12  A    between atoms: C_14  and  C_16
REMARK   13  A    between atoms: C_14  and  C_17
REMARK   14  A    between atoms: O_18  and  C_19
REMARK   15  A    between atoms: C_19  and  O_20
REMARK   16  A    between atoms: O_20  and  C_21
REMARK   17  A    between atoms: C_21  and  C_23
REMARK   18  A    between atoms: C_23  and  C_24
REMARK   19  A    between atoms: C_23  and  C_25
REMARK   20  A    between atoms: C_23  and  C_26
REMARK                            x       y       z     vdW  Elec       q    Type
REMARK                         _______ _______ _______ _____ _____    ______ ____
ROOT
ATOM      1  P   UNL     1       4.969   5.486  17.234  0.00  0.00    +0.000 P 
ATOM      2  O   UNL     1       4.755   6.591  16.178  0.00  0.00    +0.000 OA
ENDROOT
BRANCH   1   4
ATOM      3  C   UNL     1       5.839   4.700  14.730  0.00  0.00    +0.000 C 
ATOM      4  C   UNL     1       5.946   4.489  16.051  0.00  0.00    +0.000 C 
BRANCH   3   8
ATOM      5  C   UNL     1       6.818   2.657  11.631  0.00  0.00    +0.000 C 
ATOM      6  C   UNL     1       5.983   3.463  12.590  0.00  0.00    +0.000 C 
ATOM      7  C   UNL     1       4.552   3.714  12.198  0.00  0.00    +0.000 C 
ATOM      8  C   UNL     1       6.532   3.912  13.737  0.00  0.00    +0.000 C 
ENDBRANCH   3   8
ENDBRANCH   1   4
BRANCH   1   9
ATOM      9  O   UNL     1       3.699   4.433  17.137  0.00  0.00    +0.000 OA
BRANCH   9  10
ATOM     10  C   UNL     1       3.958   3.104  17.543  0.00  0.00    +0.000 C 
BRANCH  10  11
ATOM     11  O   UNL     1       2.936   2.586  18.410  0.00  0.00    +0.000 OA
BRANCH  11  12
ATOM     12  C   UNL     1       3.198   2.743  19.736  0.00  0.00    +0.000 C 
ATOM     13  O   UNL     1       4.312   2.593  20.233  0.00  0.00    +0.000 OA
BRANCH  12  14
ATOM     14  C   UNL     1       1.972   3.214  20.523  0.00  0.00    +0.000 C 
ATOM     15  C   UNL     1       1.774   2.384  21.799  0.00  0.00    +0.000 C 
ATOM     16  C   UNL     1       2.180   4.690  20.917  0.00  0.00    +0.000 C 
ATOM     17  C   UNL     1       0.721   3.117  19.640  0.00  0.00    +0.000 C 
ENDBRANCH  12  14
ENDBRANCH  11  12
ENDBRANCH  10  11
ENDBRANCH   9  10
ENDBRANCH   1   9
BRANCH   1  18
ATOM     18  O   UNL     1       4.045   6.429  18.352  0.00  0.00    +0.000 OA
BRANCH  18  19
ATOM     19  C   UNL     1       2.829   6.875  17.784  0.00  0.00    +0.000 C 
BRANCH  19  20
ATOM     20  O   UNL     1       2.658   8.288  17.951  0.00  0.00    +0.000 OA
BRANCH  20  21
ATOM     21  C   UNL     1       1.869   8.639  19.003  0.00  0.00    +0.000 C 
ATOM     22  O   UNL     1       1.715   7.962  20.011  0.00  0.00    +0.000 OA
BRANCH  21  23
ATOM     23  C   UNL     1       1.212  10.004  18.775  0.00  0.00    +0.000 C 
ATOM     24  C   UNL     1       2.162  10.906  17.979  0.00  0.00    +0.000 C 
ATOM     25  C   UNL     1      -0.084   9.803  17.974  0.00  0.00    +0.000 C 
ATOM     26  C   UNL     1       0.869  10.653  20.123  0.00  0.00    +0.000 C 
ENDBRANCH  21  23
ENDBRANCH  20  21
ENDBRANCH  19  20
ENDBRANCH  18  19
ENDBRANCH   1  18
TORSDOF 12
ENDMDL
