MODEL 1
REMARK VINA RESULT:      -6.8      0.000      0.000
REMARK  Name = 
REMARK  16 active torsions:
REMARK  status: ('A' for Active; 'I' for Inactive)
REMARK    1  A    between atoms: C_1  and  C_2
REMARK    2  A    between atoms: C_2  and  C_3
REMARK    3  A    between atoms: C_3  and  C_4
REMARK    4  A    between atoms: C_3  and  C_5
REMARK    5  A    between atoms: C_5  and  C_7
REMARK    6  A    between atoms: C_15  and  C_16
REMARK    7  A    between atoms: C_16  and  C_17
REMARK    8  A    between atoms: C_16  and  O_19
REMARK    9  A    between atoms: C_17  and  C_18
REMARK   10  A    between atoms: O_19  and  C_20
REMARK   11  A    between atoms: C_20  and  C_21
REMARK   12  A    between atoms: C_24  and  O_25
REMARK   13  A    between atoms: C_27  and  C_28
REMARK   14  A    between atoms: C_28  and  C_29
REMARK   15  A    between atoms: C_28  and  C_30
REMARK   16  A    between atoms: C_28  and  O_31
REMARK                            x       y       z     vdW  Elec       q    Type
REMARK                         _______ _______ _______ _____ _____    ______ ____
ROOT
ATOM      1  C   UNL     1      -2.673  12.384  21.007  0.00  0.00    +0.000 A 
ATOM      2  C   UNL     1      -1.546  11.626  20.742  0.00  0.00    +0.000 A 
ATOM      3  C   UNL     1      -1.303  11.116  19.484  0.00  0.00    +0.000 A 
ATOM      4  C   UNL     1      -2.253  11.271  18.482  0.00  0.00    +0.000 A 
ATOM      5  O   UNL     1      -1.953  10.688  17.245  0.00  0.00    +0.000 OA
ATOM      6  C   UNL     1      -2.845  10.770  16.193  0.00  0.00    +0.000 A 
ATOM      7  O   UNL     1      -2.582  10.357  15.078  0.00  0.00    +0.000 OA
ATOM      8  C   UNL     1      -4.173  11.316  16.504  0.00  0.00    +0.000 A 
ATOM      9  C   UNL     1      -4.519  11.867  17.679  0.00  0.00    +0.000 A 
ATOM     10  C   UNL     1      -3.444  11.982  18.705  0.00  0.00    +0.000 A 
ATOM     11  C   UNL     1      -3.561  12.653  19.944  0.00  0.00    +0.000 A 
ATOM     12  C   UNL     1       0.009  10.427  19.454  0.00  0.00    +0.000 C 
ATOM     13  C   UNL     1       0.448  10.575  20.922  0.00  0.00    +0.000 C 
ATOM     14  O   UNL     1      -0.572  11.317  21.648  0.00  0.00    +0.000 OA
ENDROOT
BRANCH  13  15
ATOM     15  C   UNL     1       0.746   9.249  21.677  0.00  0.00    +0.000 C 
ATOM     16  C   UNL     1      -0.477   8.649  22.379  0.00  0.00    +0.000 C 
ATOM     17  C   UNL     1       1.384   8.223  20.738  0.00  0.00    +0.000 C 
BRANCH  15  18
ATOM     18  O   UNL     1       1.720   9.515  22.702  0.00  0.00    +0.000 OA
ATOM     19  H   UNL     1       2.596   9.325  22.317  0.00  0.00    +0.000 HD
ENDBRANCH  15  18
ENDBRANCH  13  15
BRANCH   1  20
ATOM     20  C   UNL     1      -2.957  12.828  22.402  0.00  0.00    +0.000 C 
ATOM     21  O   UNL     1      -3.305  12.014  23.252  0.00  0.00    +0.000 OA
BRANCH  20  22
ATOM     22  C   UNL     1      -2.760  14.317  22.724  0.00  0.00    +0.000 C 
ATOM     23  C   UNL     1      -2.769  14.502  24.241  0.00  0.00    +0.000 C 
BRANCH  22  25
ATOM     24  C   UNL     1      -1.712  15.796  20.938  0.00  0.00    +0.000 C 
ATOM     25  C   UNL     1      -1.461  14.861  22.114  0.00  0.00    +0.000 C 
ENDBRANCH  22  25
ENDBRANCH  20  22
ENDBRANCH   1  20
BRANCH  11  26
ATOM     26  O   UNL     1      -4.550  13.582  20.118  0.00  0.00    +0.000 OA
ATOM     27  H   UNL     1      -5.406  13.138  19.967  0.00  0.00    +0.000 HD
ENDBRANCH  11  26
BRANCH   9  28
ATOM     28  C   UNL     1      -5.986  12.231  17.979  0.00  0.00    +0.000 C 
BRANCH  28  29
ATOM     29  C   UNL     1      -6.882  11.019  18.335  0.00  0.00    +0.000 C 
ATOM     30  C   UNL     1      -6.684  10.494  19.750  0.00  0.00    +0.000 C 
ENDBRANCH  28  29
BRANCH  28  31
ATOM     31  O   UNL     1      -6.577  12.843  16.790  0.00  0.00    +0.000 OA
BRANCH  31  32
ATOM     32  C   UNL     1      -6.920  14.160  16.875  0.00  0.00    +0.000 C 
ATOM     33  C   UNL     1      -7.159  14.546  18.304  0.00  0.00    +0.000 C 
ATOM     34  O   UNL     1      -6.963  14.937  15.934  0.00  0.00    +0.000 OA
ENDBRANCH  31  32
ENDBRANCH  28  31
ENDBRANCH   9  28
TORSDOF 10
ENDMDL
MODEL 2
REMARK VINA RESULT:      -6.7      0.597      1.206
REMARK  Name = 
REMARK  16 active torsions:
REMARK  status: ('A' for Active; 'I' for Inactive)
REMARK    1  A    between atoms: C_1  and  C_2
REMARK    2  A    between atoms: C_2  and  C_3
REMARK    3  A    between atoms: C_3  and  C_4
REMARK    4  A    between atoms: C_3  and  C_5
REMARK    5  A    between atoms: C_5  and  C_7
REMARK    6  A    between atoms: C_15  and  C_16
REMARK    7  A    between atoms: C_16  and  C_17
REMARK    8  A    between atoms: C_16  and  O_19
REMARK    9  A    between atoms: C_17  and  C_18
REMARK   10  A    between atoms: O_19  and  C_20
REMARK   11  A    between atoms: C_20  and  C_21
REMARK   12  A    between atoms: C_24  and  O_25
REMARK   13  A    between atoms: C_27  and  C_28
REMARK   14  A    between atoms: C_28  and  C_29
REMARK   15  A    between atoms: C_28  and  C_30
REMARK   16  A    between atoms: C_28  and  O_31
REMARK                            x       y       z     vdW  Elec       q    Type
REMARK                         _______ _______ _______ _____ _____    ______ ____
ROOT
ATOM      1  C   UNL     1      -2.457  12.305  21.038  0.00  0.00    +0.000 A 
ATOM      2  C   UNL     1      -1.349  11.532  20.736  0.00  0.00    +0.000 A 
ATOM      3  C   UNL     1      -1.156  11.019  19.471  0.00  0.00    +0.000 A 
ATOM      4  C   UNL     1      -2.137  11.186  18.502  0.00  0.00    +0.000 A 
ATOM      5  O   UNL     1      -1.887  10.599  17.256  0.00  0.00    +0.000 OA
ATOM      6  C   UNL     1      -2.813  10.692  16.234  0.00  0.00    +0.000 A 
ATOM      7  O   UNL     1      -2.594  10.275  15.112  0.00  0.00    +0.000 OA
ATOM      8  C   UNL     1      -4.122  11.256  16.590  0.00  0.00    +0.000 A 
ATOM      9  C   UNL     1      -4.421  11.812  17.776  0.00  0.00    +0.000 A 
ATOM     10  C   UNL     1      -3.310  11.913  18.764  0.00  0.00    +0.000 A 
ATOM     11  C   UNL     1      -3.376  12.586  20.006  0.00  0.00    +0.000 A 
ATOM     12  C   UNL     1       0.145  10.313  19.397  0.00  0.00    +0.000 C 
ATOM     13  C   UNL     1       0.636  10.456  20.849  0.00  0.00    +0.000 C 
ATOM     14  O   UNL     1      -0.349  11.211  21.609  0.00  0.00    +0.000 OA
ENDROOT
BRANCH  13  15
ATOM     15  C   UNL     1       0.942   9.126  21.595  0.00  0.00    +0.000 C 
ATOM     16  C   UNL     1      -0.265   8.540  22.335  0.00  0.00    +0.000 C 
ATOM     17  C   UNL     1       1.537   8.092  20.636  0.00  0.00    +0.000 C 
BRANCH  15  18
ATOM     18  O   UNL     1       1.950   9.380  22.588  0.00  0.00    +0.000 OA
ATOM     19  H   UNL     1       1.938  10.339  22.767  0.00  0.00    +0.000 HD
ENDBRANCH  15  18
ENDBRANCH  13  15
BRANCH   1  20
ATOM     20  C   UNL     1      -2.688  12.754  22.442  0.00  0.00    +0.000 C 
ATOM     21  O   UNL     1      -3.390  12.088  23.196  0.00  0.00    +0.000 OA
BRANCH  20  22
ATOM     22  C   UNL     1      -1.986  14.042  22.897  0.00  0.00    +0.000 C 
ATOM     23  C   UNL     1      -1.376  14.731  21.676  0.00  0.00    +0.000 C 
BRANCH  22  25
ATOM     24  C   UNL     1      -2.751  14.966  25.141  0.00  0.00    +0.000 C 
ATOM     25  C   UNL     1      -2.950  14.983  23.631  0.00  0.00    +0.000 C 
ENDBRANCH  22  25
ENDBRANCH  20  22
ENDBRANCH   1  20
BRANCH  11  26
ATOM     26  O   UNL     1      -4.347  13.528  20.213  0.00  0.00    +0.000 OA
ATOM     27  H   UNL     1      -5.096  13.318  19.623  0.00  0.00    +0.000 HD
ENDBRANCH  11  26
BRANCH   9  28
ATOM     28  C   UNL     1      -5.873  12.195  18.125  0.00  0.00    +0.000 C 
BRANCH  28  29
ATOM     29  C   UNL     1      -6.810  10.985  18.361  0.00  0.00    +0.000 C 
ATOM     30  C   UNL     1      -7.128  10.723  19.827  0.00  0.00    +0.000 C 
ENDBRANCH  28  29
BRANCH  28  31
ATOM     31  O   UNL     1      -6.446  12.948  17.011  0.00  0.00    +0.000 OA
BRANCH  31  32
ATOM     32  C   UNL     1      -7.169  14.061  17.321  0.00  0.00    +0.000 C 
ATOM     33  C   UNL     1      -7.165  15.023  16.172  0.00  0.00    +0.000 C 
ATOM     34  O   UNL     1      -7.792  14.228  18.359  0.00  0.00    +0.000 OA
ENDBRANCH  31  32
ENDBRANCH  28  31
ENDBRANCH   9  28
TORSDOF 10
ENDMDL
MODEL 3
REMARK VINA RESULT:      -6.7      1.171      1.609
REMARK  Name = 
REMARK  16 active torsions:
REMARK  status: ('A' for Active; 'I' for Inactive)
REMARK    1  A    between atoms: C_1  and  C_2
REMARK    2  A    between atoms: C_2  and  C_3
REMARK    3  A    between atoms: C_3  and  C_4
REMARK    4  A    between atoms: C_3  and  C_5
REMARK    5  A    between atoms: C_5  and  C_7
REMARK    6  A    between atoms: C_15  and  C_16
REMARK    7  A    between atoms: C_16  and  C_17
REMARK    8  A    between atoms: C_16  and  O_19
REMARK    9  A    between atoms: C_17  and  C_18
REMARK   10  A    between atoms: O_19  and  C_20
REMARK   11  A    between atoms: C_20  and  C_21
REMARK   12  A    between atoms: C_24  and  O_25
REMARK   13  A    between atoms: C_27  and  C_28
REMARK   14  A    between atoms: C_28  and  C_29
REMARK   15  A    between atoms: C_28  and  C_30
REMARK   16  A    between atoms: C_28  and  O_31
REMARK                            x       y       z     vdW  Elec       q    Type
REMARK                         _______ _______ _______ _____ _____    ______ ____
ROOT
ATOM      1  C   UNL     1      -2.186  12.314  20.509  0.00  0.00    +0.000 A 
ATOM      2  C   UNL     1      -1.159  11.445  20.181  0.00  0.00    +0.000 A 
ATOM      3  C   UNL     1      -1.124  10.805  18.960  0.00  0.00    +0.000 A 
ATOM      4  C   UNL     1      -2.187  10.946  18.076  0.00  0.00    +0.000 A 
ATOM      5  O   UNL     1      -2.097  10.230  16.876  0.00  0.00    +0.000 OA
ATOM      6  C   UNL     1      -3.115  10.289  15.943  0.00  0.00    +0.000 A 
ATOM      7  O   UNL     1      -3.034   9.756  14.852  0.00  0.00    +0.000 OA
ATOM      8  C   UNL     1      -4.348  10.968  16.364  0.00  0.00    +0.000 A 
ATOM      9  C   UNL     1      -4.494  11.650  17.513  0.00  0.00    +0.000 A 
ATOM     10  C   UNL     1      -3.285  11.770  18.376  0.00  0.00    +0.000 A 
ATOM     11  C   UNL     1      -3.187  12.557  19.546  0.00  0.00    +0.000 A 
ATOM     12  C   UNL     1       0.122  10.012  18.832  0.00  0.00    +0.000 C 
ATOM     13  C   UNL     1       0.764  10.256  20.210  0.00  0.00    +0.000 C 
ATOM     14  O   UNL     1      -0.096  11.142  20.982  0.00  0.00    +0.000 OA
ENDROOT
BRANCH  13  15
ATOM     15  C   UNL     1       1.068   8.985  21.051  0.00  0.00    +0.000 C 
ATOM     16  C   UNL     1      -0.176   8.341  21.672  0.00  0.00    +0.000 C 
ATOM     17  C   UNL     1       1.845   7.960  20.221  0.00  0.00    +0.000 C 
BRANCH  15  18
ATOM     18  O   UNL     1       1.929   9.354  22.142  0.00  0.00    +0.000 OA
ATOM     19  H   UNL     1       1.493  10.089  22.613  0.00  0.00    +0.000 HD
ENDBRANCH  15  18
ENDBRANCH  13  15
BRANCH   1  20
ATOM     20  C   UNL     1      -2.248  12.905  21.877  0.00  0.00    +0.000 C 
ATOM     21  O   UNL     1      -1.844  14.047  22.076  0.00  0.00    +0.000 OA
BRANCH  20  22
ATOM     22  C   UNL     1      -2.864  12.046  22.991  0.00  0.00    +0.000 C 
ATOM     23  C   UNL     1      -1.774  11.163  23.597  0.00  0.00    +0.000 C 
BRANCH  22  25
ATOM     24  C   UNL     1      -4.963  13.291  23.715  0.00  0.00    +0.000 C 
ATOM     25  C   UNL     1      -3.531  12.911  24.069  0.00  0.00    +0.000 C 
ENDBRANCH  22  25
ENDBRANCH  20  22
ENDBRANCH   1  20
BRANCH  11  26
ATOM     26  O   UNL     1      -4.078  13.576  19.750  0.00  0.00    +0.000 OA
ATOM     27  H   UNL     1      -4.810  13.227  20.292  0.00  0.00    +0.000 HD
ENDBRANCH  11  26
BRANCH   9  28
ATOM     28  C   UNL     1      -5.879  12.158  17.959  0.00  0.00    +0.000 C 
BRANCH  28  29
ATOM     29  C   UNL     1      -6.887  11.035  18.304  0.00  0.00    +0.000 C 
ATOM     30  C   UNL     1      -7.011  10.747  19.794  0.00  0.00    +0.000 C 
ENDBRANCH  28  29
BRANCH  28  31
ATOM     31  O   UNL     1      -6.477  12.927  16.869  0.00  0.00    +0.000 OA
BRANCH  31  32
ATOM     32  C   UNL     1      -7.183  14.042  17.209  0.00  0.00    +0.000 C 
ATOM     33  C   UNL     1      -7.001  15.112  16.176  0.00  0.00    +0.000 C 
ATOM     34  O   UNL     1      -7.917  14.139  18.181  0.00  0.00    +0.000 OA
ENDBRANCH  31  32
ENDBRANCH  28  31
ENDBRANCH   9  28
TORSDOF 10
ENDMDL
MODEL 4
REMARK VINA RESULT:      -6.5      1.398      2.390
REMARK  Name = 
REMARK  16 active torsions:
REMARK  status: ('A' for Active; 'I' for Inactive)
REMARK    1  A    between atoms: C_1  and  C_2
REMARK    2  A    between atoms: C_2  and  C_3
REMARK    3  A    between atoms: C_3  and  C_4
REMARK    4  A    between atoms: C_3  and  C_5
REMARK    5  A    between atoms: C_5  and  C_7
REMARK    6  A    between atoms: C_15  and  C_16
REMARK    7  A    between atoms: C_16  and  C_17
REMARK    8  A    between atoms: C_16  and  O_19
REMARK    9  A    between atoms: C_17  and  C_18
REMARK   10  A    between atoms: O_19  and  C_20
REMARK   11  A    between atoms: C_20  and  C_21
REMARK   12  A    between atoms: C_24  and  O_25
REMARK   13  A    between atoms: C_27  and  C_28
REMARK   14  A    between atoms: C_28  and  C_29
REMARK   15  A    between atoms: C_28  and  C_30
REMARK   16  A    between atoms: C_28  and  O_31
REMARK                            x       y       z     vdW  Elec       q    Type
REMARK                         _______ _______ _______ _____ _____    ______ ____
ROOT
ATOM      1  C   UNL     1      -2.766  12.515  20.594  0.00  0.00    +0.000 A 
ATOM      2  C   UNL     1      -1.643  11.716  20.462  0.00  0.00    +0.000 A 
ATOM      3  C   UNL     1      -1.393  11.017  19.300  0.00  0.00    +0.000 A 
ATOM      4  C   UNL     1      -2.330  11.024  18.275  0.00  0.00    +0.000 A 
ATOM      5  O   UNL     1      -2.023  10.256  17.146  0.00  0.00    +0.000 OA
ATOM      6  C   UNL     1      -2.903  10.183  16.083  0.00  0.00    +0.000 A 
ATOM      7  O   UNL     1      -2.634   9.601  15.048  0.00  0.00    +0.000 OA
ATOM      8  C   UNL     1      -4.229  10.781  16.291  0.00  0.00    +0.000 A 
ATOM      9  C   UNL     1      -4.582  11.509  17.364  0.00  0.00    +0.000 A 
ATOM     10  C   UNL     1      -3.516  11.771  18.372  0.00  0.00    +0.000 A 
ATOM     11  C   UNL     1      -3.639  12.625  19.492  0.00  0.00    +0.000 A 
ATOM     12  C   UNL     1      -0.087  10.322  19.392  0.00  0.00    +0.000 C 
ATOM     13  C   UNL     1       0.339  10.690  20.824  0.00  0.00    +0.000 C 
ATOM     14  O   UNL     1      -0.682  11.543  21.416  0.00  0.00    +0.000 OA
ENDROOT
BRANCH  13  15
ATOM     15  C   UNL     1       0.615   9.493  21.778  0.00  0.00    +0.000 C 
ATOM     16  C   UNL     1      -0.513   9.226  22.779  0.00  0.00    +0.000 C 
ATOM     17  C   UNL     1       0.935   8.227  20.979  0.00  0.00    +0.000 C 
BRANCH  15  18
ATOM     18  O   UNL     1       1.792   9.787  22.551  0.00  0.00    +0.000 OA
ATOM     19  H   UNL     1       2.294   8.955  22.634  0.00  0.00    +0.000 HD
ENDBRANCH  15  18
ENDBRANCH  13  15
BRANCH   1  20
ATOM     20  C   UNL     1      -3.060  13.171  21.901  0.00  0.00    +0.000 C 
ATOM     21  O   UNL     1      -2.474  14.200  22.222  0.00  0.00    +0.000 OA
BRANCH  20  22
ATOM     22  C   UNL     1      -4.136  12.529  22.788  0.00  0.00    +0.000 C 
ATOM     23  C   UNL     1      -3.568  12.334  24.194  0.00  0.00    +0.000 C 
BRANCH  22  25
ATOM     24  C   UNL     1      -6.382  12.927  23.917  0.00  0.00    +0.000 C 
ATOM     25  C   UNL     1      -5.416  13.374  22.827  0.00  0.00    +0.000 C 
ENDBRANCH  22  25
ENDBRANCH  20  22
ENDBRANCH   1  20
BRANCH  11  26
ATOM     26  O   UNL     1      -4.622  13.578  19.510  0.00  0.00    +0.000 OA
ATOM     27  H   UNL     1      -5.461  13.145  19.265  0.00  0.00    +0.000 HD
ENDBRANCH  11  26
BRANCH   9  28
ATOM     28  C   UNL     1      -6.049  11.926  17.587  0.00  0.00    +0.000 C 
BRANCH  28  29
ATOM     29  C   UNL     1      -6.380  13.363  17.117  0.00  0.00    +0.000 C 
ATOM     30  C   UNL     1      -7.697  13.906  17.656  0.00  0.00    +0.000 C 
ENDBRANCH  28  29
BRANCH  28  31
ATOM     31  O   UNL     1      -6.342  11.884  19.018  0.00  0.00    +0.000 OA
BRANCH  31  32
ATOM     32  C   UNL     1      -6.943  10.757  19.496  0.00  0.00    +0.000 C 
ATOM     33  C   UNL     1      -7.626  11.042  20.799  0.00  0.00    +0.000 C 
ATOM     34  O   UNL     1      -6.981   9.682  18.918  0.00  0.00    +0.000 OA
ENDBRANCH  31  32
ENDBRANCH  28  31
ENDBRANCH   9  28
TORSDOF 10
ENDMDL
MODEL 5
REMARK VINA RESULT:      -5.9      2.362      7.634
REMARK  Name = 
REMARK  16 active torsions:
REMARK  status: ('A' for Active; 'I' for Inactive)
REMARK    1  A    between atoms: C_1  and  C_2
REMARK    2  A    between atoms: C_2  and  C_3
REMARK    3  A    between atoms: C_3  and  C_4
REMARK    4  A    between atoms: C_3  and  C_5
REMARK    5  A    between atoms: C_5  and  C_7
REMARK    6  A    between atoms: C_15  and  C_16
REMARK    7  A    between atoms: C_16  and  C_17
REMARK    8  A    between atoms: C_16  and  O_19
REMARK    9  A    between atoms: C_17  and  C_18
REMARK   10  A    between atoms: O_19  and  C_20
REMARK   11  A    between atoms: C_20  and  C_21
REMARK   12  A    between atoms: C_24  and  O_25
REMARK   13  A    between atoms: C_27  and  C_28
REMARK   14  A    between atoms: C_28  and  C_29
REMARK   15  A    between atoms: C_28  and  C_30
REMARK   16  A    between atoms: C_28  and  O_31
REMARK                            x       y       z     vdW  Elec       q    Type
REMARK                         _______ _______ _______ _____ _____    ______ ____
ROOT
ATOM      1  C   UNL     1      -1.240  11.090  19.059  0.00  0.00    +0.000 A 
ATOM      2  C   UNL     1      -1.689  11.770  20.178  0.00  0.00    +0.000 A 
ATOM      3  C   UNL     1      -1.120  11.568  21.417  0.00  0.00    +0.000 A 
ATOM      4  C   UNL     1      -0.146  10.590  21.578  0.00  0.00    +0.000 A 
ATOM      5  O   UNL     1       0.352  10.416  22.874  0.00  0.00    +0.000 OA
ATOM      6  C   UNL     1       1.307   9.453  23.138  0.00  0.00    +0.000 A 
ATOM      7  O   UNL     1       1.831   9.331  24.230  0.00  0.00    +0.000 OA
ATOM      8  C   UNL     1       1.611   8.517  22.046  0.00  0.00    +0.000 A 
ATOM      9  C   UNL     1       1.143   8.626  20.791  0.00  0.00    +0.000 A 
ATOM     10  C   UNL     1       0.312   9.827  20.491  0.00  0.00    +0.000 A 
ATOM     11  C   UNL     1      -0.155  10.201  19.210  0.00  0.00    +0.000 A 
ATOM     12  C   UNL     1      -1.723  12.484  22.414  0.00  0.00    +0.000 C 
ATOM     13  C   UNL     1      -2.776  13.201  21.550  0.00  0.00    +0.000 C 
ATOM     14  O   UNL     1      -2.695  12.694  20.188  0.00  0.00    +0.000 OA
ENDROOT
BRANCH  13  15
ATOM     15  C   UNL     1      -4.246  13.093  22.045  0.00  0.00    +0.000 C 
ATOM     16  C   UNL     1      -4.818  14.410  22.580  0.00  0.00    +0.000 C 
ATOM     17  C   UNL     1      -5.147  12.523  20.947  0.00  0.00    +0.000 C 
BRANCH  15  18
ATOM     18  O   UNL     1      -4.294  12.152  23.132  0.00  0.00    +0.000 OA
ATOM     19  H   UNL     1      -5.090  11.603  22.999  0.00  0.00    +0.000 HD
ENDBRANCH  15  18
ENDBRANCH  13  15
BRANCH   1  20
ATOM     20  C   UNL     1      -1.949  11.254  17.757  0.00  0.00    +0.000 C 
ATOM     21  O   UNL     1      -1.662  12.183  17.009  0.00  0.00    +0.000 OA
BRANCH  20  22
ATOM     22  C   UNL     1      -3.006  10.201  17.390  0.00  0.00    +0.000 C 
ATOM     23  C   UNL     1      -4.392  10.841  17.474  0.00  0.00    +0.000 C 
BRANCH  22  25
ATOM     24  C   UNL     1      -3.603  10.280  14.918  0.00  0.00    +0.000 C 
ATOM     25  C   UNL     1      -2.758   9.612  15.995  0.00  0.00    +0.000 C 
ENDBRANCH  22  25
ENDBRANCH  20  22
ENDBRANCH   1  20
BRANCH  11  26
ATOM     26  O   UNL     1       0.456   9.696  18.094  0.00  0.00    +0.000 OA
ATOM     27  H   UNL     1       0.145   8.778  17.975  0.00  0.00    +0.000 HD
ENDBRANCH  11  26
BRANCH   9  28
ATOM     28  C   UNL     1       1.353   7.493  19.769  0.00  0.00    +0.000 C 
BRANCH  28  29
ATOM     29  C   UNL     1       1.005   6.082  20.303  0.00  0.00    +0.000 C 
ATOM     30  C   UNL     1       2.217   5.250  20.698  0.00  0.00    +0.000 C 
ENDBRANCH  28  29
BRANCH  28  31
ATOM     31  O   UNL     1       2.764   7.451  19.388  0.00  0.00    +0.000 OA
BRANCH  31  32
ATOM     32  C   UNL     1       3.050   7.515  18.057  0.00  0.00    +0.000 C 
ATOM     33  C   UNL     1       3.800   6.291  17.625  0.00  0.00    +0.000 C 
ATOM     34  O   UNL     1       2.690   8.406  17.302  0.00  0.00    +0.000 OA
ENDBRANCH  31  32
ENDBRANCH  28  31
ENDBRANCH   9  28
TORSDOF 10
ENDMDL
MODEL 6
REMARK VINA RESULT:      -5.9      3.436      6.482
REMARK  Name = 
REMARK  16 active torsions:
REMARK  status: ('A' for Active; 'I' for Inactive)
REMARK    1  A    between atoms: C_1  and  C_2
REMARK    2  A    between atoms: C_2  and  C_3
REMARK    3  A    between atoms: C_3  and  C_4
REMARK    4  A    between atoms: C_3  and  C_5
REMARK    5  A    between atoms: C_5  and  C_7
REMARK    6  A    between atoms: C_15  and  C_16
REMARK    7  A    between atoms: C_16  and  C_17
REMARK    8  A    between atoms: C_16  and  O_19
REMARK    9  A    between atoms: C_17  and  C_18
REMARK   10  A    between atoms: O_19  and  C_20
REMARK   11  A    between atoms: C_20  and  C_21
REMARK   12  A    between atoms: C_24  and  O_25
REMARK   13  A    between atoms: C_27  and  C_28
REMARK   14  A    between atoms: C_28  and  C_29
REMARK   15  A    between atoms: C_28  and  C_30
REMARK   16  A    between atoms: C_28  and  O_31
REMARK                            x       y       z     vdW  Elec       q    Type
REMARK                         _______ _______ _______ _____ _____    ______ ____
ROOT
ATOM      1  C   UNL     1       0.556  11.885  20.967  0.00  0.00    +0.000 A 
ATOM      2  C   UNL     1       1.434  12.915  20.674  0.00  0.00    +0.000 A 
ATOM      3  C   UNL     1       1.308  14.154  21.265  0.00  0.00    +0.000 A 
ATOM      4  C   UNL     1       0.222  14.418  22.091  0.00  0.00    +0.000 A 
ATOM      5  O   UNL     1       0.141  15.712  22.618  0.00  0.00    +0.000 OA
ATOM      6  C   UNL     1      -0.914  16.076  23.432  0.00  0.00    +0.000 A 
ATOM      7  O   UNL     1      -0.972  17.161  23.983  0.00  0.00    +0.000 OA
ATOM      8  C   UNL     1      -2.017  15.111  23.543  0.00  0.00    +0.000 A 
ATOM      9  C   UNL     1      -1.999  13.866  23.039  0.00  0.00    +0.000 A 
ATOM     10  C   UNL     1      -0.734  13.431  22.381  0.00  0.00    +0.000 A 
ATOM     11  C   UNL     1      -0.460  12.124  21.915  0.00  0.00    +0.000 A 
ATOM     12  C   UNL     1       2.425  15.036  20.851  0.00  0.00    +0.000 C 
ATOM     13  C   UNL     1       3.177  14.113  19.875  0.00  0.00    +0.000 C 
ATOM     14  O   UNL     1       2.494  12.829  19.817  0.00  0.00    +0.000 OA
ENDROOT
BRANCH  13  15
ATOM     15  C   UNL     1       3.358  14.657  18.430  0.00  0.00    +0.000 C 
ATOM     16  C   UNL     1       2.627  15.978  18.171  0.00  0.00    +0.000 C 
ATOM     17  C   UNL     1       4.842  14.788  18.082  0.00  0.00    +0.000 C 
BRANCH  15  18
ATOM     18  O   UNL     1       2.813  13.697  17.508  0.00  0.00    +0.000 OA
ATOM     19  H   UNL     1       2.815  14.115  16.627  0.00  0.00    +0.000 HD
ENDBRANCH  15  18
ENDBRANCH  13  15
BRANCH   1  20
ATOM     20  C   UNL     1       0.658  10.592  20.229  0.00  0.00    +0.000 C 
ATOM     21  O   UNL     1       1.043   9.580  20.807  0.00  0.00    +0.000 OA
BRANCH  20  22
ATOM     22  C   UNL     1       0.229  10.584  18.755  0.00  0.00    +0.000 C 
ATOM     23  C   UNL     1       1.028   9.513  18.013  0.00  0.00    +0.000 C 
BRANCH  22  25
ATOM     24  C   UNL     1      -2.064  11.637  18.424  0.00  0.00    +0.000 C 
ATOM     25  C   UNL     1      -1.279  10.344  18.605  0.00  0.00    +0.000 C 
ENDBRANCH  22  25
ENDBRANCH  20  22
ENDBRANCH   1  20
BRANCH  11  26
ATOM     26  O   UNL     1      -1.191  11.070  22.392  0.00  0.00    +0.000 OA
ATOM     27  H   UNL     1      -2.036  11.422  22.731  0.00  0.00    +0.000 HD
ENDBRANCH  11  26
BRANCH   9  28
ATOM     28  C   UNL     1      -3.273  12.999  23.032  0.00  0.00    +0.000 C 
BRANCH  28  29
ATOM     29  C   UNL     1      -3.878  12.769  21.626  0.00  0.00    +0.000 C 
ATOM     30  C   UNL     1      -4.091  14.045  20.824  0.00  0.00    +0.000 C 
ENDBRANCH  28  29
BRANCH  28  31
ATOM     31  O   UNL     1      -4.307  13.668  23.820  0.00  0.00    +0.000 OA
BRANCH  31  32
ATOM     32  C   UNL     1      -5.391  12.924  24.180  0.00  0.00    +0.000 C 
ATOM     33  C   UNL     1      -6.658  13.640  23.821  0.00  0.00    +0.000 C 
ATOM     34  O   UNL     1      -5.345  11.804  24.665  0.00  0.00    +0.000 OA
ENDBRANCH  31  32
ENDBRANCH  28  31
ENDBRANCH   9  28
TORSDOF 10
ENDMDL
MODEL 7
REMARK VINA RESULT:      -5.9      1.992      3.024
REMARK  Name = 
REMARK  16 active torsions:
REMARK  status: ('A' for Active; 'I' for Inactive)
REMARK    1  A    between atoms: C_1  and  C_2
REMARK    2  A    between atoms: C_2  and  C_3
REMARK    3  A    between atoms: C_3  and  C_4
REMARK    4  A    between atoms: C_3  and  C_5
REMARK    5  A    between atoms: C_5  and  C_7
REMARK    6  A    between atoms: C_15  and  C_16
REMARK    7  A    between atoms: C_16  and  C_17
REMARK    8  A    between atoms: C_16  and  O_19
REMARK    9  A    between atoms: C_17  and  C_18
REMARK   10  A    between atoms: O_19  and  C_20
REMARK   11  A    between atoms: C_20  and  C_21
REMARK   12  A    between atoms: C_24  and  O_25
REMARK   13  A    between atoms: C_27  and  C_28
REMARK   14  A    between atoms: C_28  and  C_29
REMARK   15  A    between atoms: C_28  and  C_30
REMARK   16  A    between atoms: C_28  and  O_31
REMARK                            x       y       z     vdW  Elec       q    Type
REMARK                         _______ _______ _______ _____ _____    ______ ____
ROOT
ATOM      1  C   UNL     1      -0.675  11.098  19.995  0.00  0.00    +0.000 A 
ATOM      2  C   UNL     1       0.099  10.284  19.186  0.00  0.00    +0.000 A 
ATOM      3  C   UNL     1      -0.320   9.919  17.924  0.00  0.00    +0.000 A 
ATOM      4  C   UNL     1      -1.588  10.283  17.486  0.00  0.00    +0.000 A 
ATOM      5  O   UNL     1      -1.957   9.838  16.211  0.00  0.00    +0.000 OA
ATOM      6  C   UNL     1      -3.206  10.131  15.697  0.00  0.00    +0.000 A 
ATOM      7  O   UNL     1      -3.530   9.841  14.560  0.00  0.00    +0.000 OA
ATOM      8  C   UNL     1      -4.165  10.747  16.624  0.00  0.00    +0.000 A 
ATOM      9  C   UNL     1      -3.869  11.172  17.864  0.00  0.00    +0.000 A 
ATOM     10  C   UNL     1      -2.443  11.061  18.284  0.00  0.00    +0.000 A 
ATOM     11  C   UNL     1      -1.899  11.577  19.482  0.00  0.00    +0.000 A 
ATOM     12  C   UNL     1       0.732   9.128  17.242  0.00  0.00    +0.000 C 
ATOM     13  C   UNL     1       1.799   9.049  18.349  0.00  0.00    +0.000 C 
ATOM     14  O   UNL     1       1.324   9.779  19.516  0.00  0.00    +0.000 OA
ENDROOT
BRANCH  13  15
ATOM     15  C   UNL     1       2.220   7.617  18.783  0.00  0.00    +0.000 C 
ATOM     16  C   UNL     1       3.672   7.267  18.437  0.00  0.00    +0.000 C 
ATOM     17  C   UNL     1       1.958   7.404  20.276  0.00  0.00    +0.000 C 
BRANCH  15  18
ATOM     18  O   UNL     1       1.391   6.667  18.091  0.00  0.00    +0.000 OA
ATOM     19  H   UNL     1       1.899   6.356  17.318  0.00  0.00    +0.000 HD
ENDBRANCH  15  18
ENDBRANCH  13  15
BRANCH   1  20
ATOM     20  C   UNL     1      -0.239  11.384  21.392  0.00  0.00    +0.000 C 
ATOM     21  O   UNL     1       0.750  12.080  21.601  0.00  0.00    +0.000 OA
BRANCH  20  22
ATOM     22  C   UNL     1      -1.094  10.810  22.531  0.00  0.00    +0.000 C 
ATOM     23  C   UNL     1      -0.278   9.758  23.282  0.00  0.00    +0.000 C 
BRANCH  22  25
ATOM     24  C   UNL     1      -3.094  12.076  23.466  0.00  0.00    +0.000 C 
ATOM     25  C   UNL     1      -1.580  11.909  23.485  0.00  0.00    +0.000 C 
ENDBRANCH  22  25
ENDBRANCH  20  22
ENDBRANCH   1  20
BRANCH  11  26
ATOM     26  O   UNL     1      -2.569  12.559  20.160  0.00  0.00    +0.000 OA
ATOM     27  H   UNL     1      -2.274  13.419  19.807  0.00  0.00    +0.000 HD
ENDBRANCH  11  26
BRANCH   9  28
ATOM     28  C   UNL     1      -4.981  11.621  18.831  0.00  0.00    +0.000 C 
BRANCH  28  29
ATOM     29  C   UNL     1      -6.398  11.138  18.439  0.00  0.00    +0.000 C 
ATOM     30  C   UNL     1      -6.903   9.959  19.260  0.00  0.00    +0.000 C 
ENDBRANCH  28  29
BRANCH  28  31
ATOM     31  O   UNL     1      -5.034  13.082  18.849  0.00  0.00    +0.000 OA
BRANCH  31  32
ATOM     32  C   UNL     1      -5.973  13.659  19.652  0.00  0.00    +0.000 C 
ATOM     33  C   UNL     1      -5.743  13.277  21.082  0.00  0.00    +0.000 C 
ATOM     34  O   UNL     1      -6.839  14.434  19.275  0.00  0.00    +0.000 OA
ENDBRANCH  31  32
ENDBRANCH  28  31
ENDBRANCH   9  28
TORSDOF 10
ENDMDL
MODEL 8
REMARK VINA RESULT:      -5.8      3.108      5.497
REMARK  Name = 
REMARK  16 active torsions:
REMARK  status: ('A' for Active; 'I' for Inactive)
REMARK    1  A    between atoms: C_1  and  C_2
REMARK    2  A    between atoms: C_2  and  C_3
REMARK    3  A    between atoms: C_3  and  C_4
REMARK    4  A    between atoms: C_3  and  C_5
REMARK    5  A    between atoms: C_5  and  C_7
REMARK    6  A    between atoms: C_15  and  C_16
REMARK    7  A    between atoms: C_16  and  C_17
REMARK    8  A    between atoms: C_16  and  O_19
REMARK    9  A    between atoms: C_17  and  C_18
REMARK   10  A    between atoms: O_19  and  C_20
REMARK   11  A    between atoms: C_20  and  C_21
REMARK   12  A    between atoms: C_24  and  O_25
REMARK   13  A    between atoms: C_27  and  C_28
REMARK   14  A    between atoms: C_28  and  C_29
REMARK   15  A    between atoms: C_28  and  C_30
REMARK   16  A    between atoms: C_28  and  O_31
REMARK                            x       y       z     vdW  Elec       q    Type
REMARK                         _______ _______ _______ _____ _____    ______ ____
ROOT
ATOM      1  C   UNL     1      -1.066  12.479  22.263  0.00  0.00    +0.000 A 
ATOM      2  C   UNL     1      -0.310  13.575  21.884  0.00  0.00    +0.000 A 
ATOM      3  C   UNL     1      -0.892  14.805  21.660  0.00  0.00    +0.000 A 
ATOM      4  C   UNL     1      -2.275  14.933  21.710  0.00  0.00    +0.000 A 
ATOM      5  O   UNL     1      -2.793  16.202  21.428  0.00  0.00    +0.000 OA
ATOM      6  C   UNL     1      -4.157  16.423  21.431  0.00  0.00    +0.000 A 
ATOM      7  O   UNL     1      -4.641  17.530  21.281  0.00  0.00    +0.000 OA
ATOM      8  C   UNL     1      -5.011  15.233  21.547  0.00  0.00    +0.000 A 
ATOM      9  C   UNL     1      -4.565  13.991  21.796  0.00  0.00    +0.000 A 
ATOM     10  C   UNL     1      -3.100  13.843  22.033  0.00  0.00    +0.000 A 
ATOM     11  C   UNL     1      -2.453  12.656  22.447  0.00  0.00    +0.000 A 
ATOM     12  C   UNL     1       0.147  15.818  21.361  0.00  0.00    +0.000 C 
ATOM     13  C   UNL     1       1.417  14.948  21.391  0.00  0.00    +0.000 C 
ATOM     14  O   UNL     1       1.044  13.578  21.711  0.00  0.00    +0.000 OA
ENDROOT
BRANCH  13  15
ATOM     15  C   UNL     1       2.272  14.952  20.092  0.00  0.00    +0.000 C 
ATOM     16  C   UNL     1       2.692  13.555  19.624  0.00  0.00    +0.000 C 
ATOM     17  C   UNL     1       1.547  15.698  18.970  0.00  0.00    +0.000 C 
BRANCH  15  18
ATOM     18  O   UNL     1       3.484  15.684  20.344  0.00  0.00    +0.000 OA
ATOM     19  H   UNL     1       4.161  15.331  19.737  0.00  0.00    +0.000 HD
ENDBRANCH  15  18
ENDBRANCH  13  15
BRANCH   1  20
ATOM     20  C   UNL     1      -0.418  11.141  22.393  0.00  0.00    +0.000 C 
ATOM     21  O   UNL     1      -0.359  10.587  23.486  0.00  0.00    +0.000 OA
BRANCH  20  22
ATOM     22  C   UNL     1       0.124  10.491  21.111  0.00  0.00    +0.000 C 
ATOM     23  C   UNL     1       0.402   9.013  21.386  0.00  0.00    +0.000 C 
BRANCH  22  25
ATOM     24  C   UNL     1      -0.242  11.430  18.775  0.00  0.00    +0.000 C 
ATOM     25  C   UNL     1      -0.850  10.656  19.937  0.00  0.00    +0.000 C 
ENDBRANCH  22  25
ENDBRANCH  20  22
ENDBRANCH   1  20
BRANCH  11  26
ATOM     26  O   UNL     1      -3.182  11.661  23.039  0.00  0.00    +0.000 OA
ATOM     27  H   UNL     1      -2.858  11.557  23.953  0.00  0.00    +0.000 HD
ENDBRANCH  11  26
BRANCH   9  28
ATOM     28  C   UNL     1      -5.511  12.779  21.702  0.00  0.00    +0.000 C 
BRANCH  28  29
ATOM     29  C   UNL     1      -5.950  12.424  20.261  0.00  0.00    +0.000 C 
ATOM     30  C   UNL     1      -6.994  11.318  20.183  0.00  0.00    +0.000 C 
ENDBRANCH  28  29
BRANCH  28  31
ATOM     31  O   UNL     1      -6.736  13.074  22.444  0.00  0.00    +0.000 OA
BRANCH  31  32
ATOM     32  C   UNL     1      -6.701  12.902  23.796  0.00  0.00    +0.000 C 
ATOM     33  C   UNL     1      -7.731  13.765  24.459  0.00  0.00    +0.000 C 
ATOM     34  O   UNL     1      -5.982  12.109  24.384  0.00  0.00    +0.000 OA
ENDBRANCH  31  32
ENDBRANCH  28  31
ENDBRANCH   9  28
TORSDOF 10
ENDMDL
MODEL 9
REMARK VINA RESULT:      -5.8      4.549      6.141
REMARK  Name = 
REMARK  16 active torsions:
REMARK  status: ('A' for Active; 'I' for Inactive)
REMARK    1  A    between atoms: C_1  and  C_2
REMARK    2  A    between atoms: C_2  and  C_3
REMARK    3  A    between atoms: C_3  and  C_4
REMARK    4  A    between atoms: C_3  and  C_5
REMARK    5  A    between atoms: C_5  and  C_7
REMARK    6  A    between atoms: C_15  and  C_16
REMARK    7  A    between atoms: C_16  and  C_17
REMARK    8  A    between atoms: C_16  and  O_19
REMARK    9  A    between atoms: C_17  and  C_18
REMARK   10  A    between atoms: O_19  and  C_20
REMARK   11  A    between atoms: C_20  and  C_21
REMARK   12  A    between atoms: C_24  and  O_25
REMARK   13  A    between atoms: C_27  and  C_28
REMARK   14  A    between atoms: C_28  and  C_29
REMARK   15  A    between atoms: C_28  and  C_30
REMARK   16  A    between atoms: C_28  and  O_31
REMARK                            x       y       z     vdW  Elec       q    Type
REMARK                         _______ _______ _______ _____ _____    ______ ____
ROOT
ATOM      1  C   UNL     1       0.853  15.370  18.934  0.00  0.00    +0.000 A 
ATOM      2  C   UNL     1       2.193  15.300  18.594  0.00  0.00    +0.000 A 
ATOM      3  C   UNL     1       2.778  14.107  18.224  0.00  0.00    +0.000 A 
ATOM      4  C   UNL     1       2.044  12.929  18.290  0.00  0.00    +0.000 A 
ATOM      5  O   UNL     1       2.720  11.755  17.939  0.00  0.00    +0.000 OA
ATOM      6  C   UNL     1       2.080  10.531  17.994  0.00  0.00    +0.000 A 
ATOM      7  O   UNL     1       2.604   9.501  17.611  0.00  0.00    +0.000 OA
ATOM      8  C   UNL     1       0.749  10.517  18.616  0.00  0.00    +0.000 A 
ATOM      9  C   UNL     1       0.066  11.612  18.990  0.00  0.00    +0.000 A 
ATOM     10  C   UNL     1       0.694  12.928  18.681  0.00  0.00    +0.000 A 
ATOM     11  C   UNL     1       0.084  14.190  18.860  0.00  0.00    +0.000 A 
ATOM     12  C   UNL     1       4.188  14.329  17.825  0.00  0.00    +0.000 C 
ATOM     13  C   UNL     1       4.330  15.839  18.088  0.00  0.00    +0.000 C 
ATOM     14  O   UNL     1       3.058  16.357  18.570  0.00  0.00    +0.000 OA
ENDROOT
BRANCH  13  15
ATOM     15  C   UNL     1       5.454  16.251  19.080  0.00  0.00    +0.000 C 
ATOM     16  C   UNL     1       5.062  16.108  20.554  0.00  0.00    +0.000 C 
ATOM     17  C   UNL     1       6.742  15.477  18.790  0.00  0.00    +0.000 C 
BRANCH  15  18
ATOM     18  O   UNL     1       5.764  17.640  18.868  0.00  0.00    +0.000 OA
ATOM     19  H   UNL     1       6.049  17.729  17.940  0.00  0.00    +0.000 HD
ENDBRANCH  15  18
ENDBRANCH  13  15
BRANCH   1  20
ATOM     20  C   UNL     1       0.281  16.655  19.432  0.00  0.00    +0.000 C 
ATOM     21  O   UNL     1       0.506  17.028  20.578  0.00  0.00    +0.000 OA
BRANCH  20  22
ATOM     22  C   UNL     1      -0.554  17.486  18.446  0.00  0.00    +0.000 C 
ATOM     23  C   UNL     1      -1.785  18.026  19.173  0.00  0.00    +0.000 C 
BRANCH  22  25
ATOM     24  C   UNL     1       0.874  18.260  16.487  0.00  0.00    +0.000 C 
ATOM     25  C   UNL     1       0.266  18.629  17.834  0.00  0.00    +0.000 C 
ENDBRANCH  22  25
ENDBRANCH  20  22
ENDBRANCH   1  20
BRANCH  11  26
ATOM     26  O   UNL     1      -1.278  14.273  18.964  0.00  0.00    +0.000 OA
ATOM     27  H   UNL     1      -1.501  15.180  19.247  0.00  0.00    +0.000 HD
ENDBRANCH  11  26
BRANCH   9  28
ATOM     28  C   UNL     1      -1.231  11.491  19.813  0.00  0.00    +0.000 C 
BRANCH  28  29
ATOM     29  C   UNL     1      -1.101  10.608  21.078  0.00  0.00    +0.000 C 
ATOM     30  C   UNL     1      -0.724  11.377  22.337  0.00  0.00    +0.000 C 
ENDBRANCH  28  29
BRANCH  28  31
ATOM     31  O   UNL     1      -2.264  10.872  18.984  0.00  0.00    +0.000 OA
BRANCH  31  32
ATOM     32  C   UNL     1      -3.390  11.603  18.746  0.00  0.00    +0.000 C 
ATOM     33  C   UNL     1      -4.059  11.137  17.489  0.00  0.00    +0.000 C 
ATOM     34  O   UNL     1      -3.834  12.469  19.484  0.00  0.00    +0.000 OA
ENDBRANCH  31  32
ENDBRANCH  28  31
ENDBRANCH   9  28
TORSDOF 10
ENDMDL
