MODEL 1
REMARK VINA RESULT:      -8.6      0.000      0.000
REMARK  Name = 
REMARK  4 active torsions:
REMARK  status: ('A' for Active; 'I' for Inactive)
REMARK    1  A    between atoms: C_2  and  C_3
REMARK    2  A    between atoms: C_5  and  C_6
REMARK    3  A    between atoms: C_6  and  C_7
REMARK    4  A    between atoms: C_27  and  C_29
REMARK                            x       y       z     vdW  Elec       q    Type
REMARK                         _______ _______ _______ _____ _____    ______ ____
ROOT
ATOM      1  C   UNL     1       0.793  10.056  19.159  0.00  0.00    +0.000 A 
ATOM      2  C   UNL     1       1.504   9.388  18.155  0.00  0.00    +0.000 A 
ATOM      3  C   UNL     1       2.153   8.179  18.437  0.00  0.00    +0.000 A 
ATOM      4  C   UNL     1       2.083   7.674  19.744  0.00  0.00    +0.000 A 
ATOM      5  C   UNL     1       1.356   8.334  20.725  0.00  0.00    +0.000 A 
ATOM      6  F   UNL     1       1.248   7.814  21.955  0.00  0.00    +0.000 F 
ATOM      7  C   UNL     1       0.691   9.493  20.423  0.00  0.00    +0.000 A 
ATOM      8  F   UNL     1      -0.087  10.010  21.379  0.00  0.00    +0.000 F 
ENDROOT
BRANCH   1  10
ATOM      9  O   UNL     1      -1.069  11.023  18.200  0.00  0.00    +0.000 OA
ATOM     10  C   UNL     1      -0.013  11.228  18.801  0.00  0.00    +0.000 C 
ATOM     11  N   UNL     1       0.404  12.491  19.181  0.00  0.00    +0.000 N 
ATOM     12  C   UNL     1       1.662  12.876  19.854  0.00  0.00    +0.000 C 
ATOM     13  C   UNL     1       2.248  14.163  19.281  0.00  0.00    +0.000 C 
ATOM     14  N   UNL     1       1.228  15.221  19.183  0.00  0.00    +0.000 N 
ATOM     15  C   UNL     1       1.550  16.500  19.690  0.00  0.00    +0.000 C 
ATOM     16  O   UNL     1       2.621  16.730  20.166  0.00  0.00    +0.000 OA
ATOM     17  C   UNL     1       0.010  14.799  18.479  0.00  0.00    +0.000 C 
ATOM     18  C   UNL     1      -0.581  13.547  19.111  0.00  0.00    +0.000 C 
BRANCH  15  19
ATOM     19  C   UNL     1       0.526  17.609  19.620  0.00  0.00    +0.000 C 
ATOM     20  C   UNL     1      -0.731  17.731  20.475  0.00  0.00    +0.000 C 
ATOM     21  C   UNL     1       0.454  18.612  20.747  0.00  0.00    +0.000 C 
ENDBRANCH  15  19
ENDBRANCH   1  10
BRANCH   3  22
ATOM     22  C   UNL     1       2.838   7.433  17.309  0.00  0.00    +0.000 C 
BRANCH  22  23
ATOM     23  C   UNL     1       3.567   6.172  17.758  0.00  0.00    +0.000 A 
ATOM     24  N   UNL     1       2.821   5.144  18.048  0.00  0.00    +0.000 NA
ATOM     25  N   UNL     1       3.413   4.046  18.591  0.00  0.00    +0.000 N 
ATOM     26  C   UNL     1       4.729   3.946  18.967  0.00  0.00    +0.000 A 
ATOM     27  O   UNL     1       5.164   2.990  19.599  0.00  0.00    +0.000 OA
ATOM     28  C   UNL     1       5.605   5.050  18.542  0.00  0.00    +0.000 A 
ATOM     29  C   UNL     1       6.987   4.963  18.749  0.00  0.00    +0.000 A 
ATOM     30  C   UNL     1       7.820   5.981  18.288  0.00  0.00    +0.000 A 
ATOM     31  C   UNL     1       7.274   7.079  17.627  0.00  0.00    +0.000 A 
ATOM     32  C   UNL     1       5.892   7.171  17.435  0.00  0.00    +0.000 A 
ATOM     33  C   UNL     1       5.047   6.158  17.905  0.00  0.00    +0.000 A 
ATOM     34  H   UNL     1       2.791   3.297  18.882  0.00  0.00    +0.000 HD
ENDBRANCH  22  23
ENDBRANCH   3  22
TORSDOF 4
ENDMDL
MODEL 2
REMARK VINA RESULT:      -8.5      3.457      4.779
REMARK  Name = 
REMARK  4 active torsions:
REMARK  status: ('A' for Active; 'I' for Inactive)
REMARK    1  A    between atoms: C_2  and  C_3
REMARK    2  A    between atoms: C_5  and  C_6
REMARK    3  A    between atoms: C_6  and  C_7
REMARK    4  A    between atoms: C_27  and  C_29
REMARK                            x       y       z     vdW  Elec       q    Type
REMARK                         _______ _______ _______ _____ _____    ______ ____
ROOT
ATOM      1  C   UNL     1       2.447   6.046  19.755  0.00  0.00    +0.000 A 
ATOM      2  C   UNL     1       3.706   5.509  19.459  0.00  0.00    +0.000 A 
ATOM      3  C   UNL     1       4.005   4.184  19.802  0.00  0.00    +0.000 A 
ATOM      4  C   UNL     1       3.022   3.428  20.459  0.00  0.00    +0.000 A 
ATOM      5  C   UNL     1       1.770   3.965  20.727  0.00  0.00    +0.000 A 
ATOM      6  F   UNL     1       0.820   3.217  21.303  0.00  0.00    +0.000 F 
ATOM      7  C   UNL     1       1.479   5.248  20.346  0.00  0.00    +0.000 A 
ATOM      8  F   UNL     1       0.219   5.659  20.525  0.00  0.00    +0.000 F 
ENDROOT
BRANCH   1  10
ATOM      9  O   UNL     1       2.446   7.638  18.086  0.00  0.00    +0.000 OA
ATOM     10  C   UNL     1       2.101   7.375  19.239  0.00  0.00    +0.000 C 
ATOM     11  N   UNL     1       1.376   8.251  20.026  0.00  0.00    +0.000 N 
ATOM     12  C   UNL     1       0.948   8.079  21.431  0.00  0.00    +0.000 C 
ATOM     13  C   UNL     1       1.099   9.366  22.237  0.00  0.00    +0.000 C 
ATOM     14  N   UNL     1       0.514  10.516  21.527  0.00  0.00    +0.000 N 
ATOM     15  C   UNL     1      -0.353  11.367  22.249  0.00  0.00    +0.000 C 
ATOM     16  O   UNL     1      -0.594  11.179  23.403  0.00  0.00    +0.000 OA
ATOM     17  C   UNL     1       0.994  10.662  20.148  0.00  0.00    +0.000 C 
ATOM     18  C   UNL     1       0.775   9.381  19.355  0.00  0.00    +0.000 C 
BRANCH  15  19
ATOM     19  C   UNL     1      -0.985  12.551  21.554  0.00  0.00    +0.000 C 
ATOM     20  C   UNL     1      -2.167  12.507  20.592  0.00  0.00    +0.000 C 
ATOM     21  C   UNL     1      -2.354  13.013  21.992  0.00  0.00    +0.000 C 
ENDBRANCH  15  19
ENDBRANCH   1  10
BRANCH   3  22
ATOM     22  C   UNL     1       5.342   3.602  19.389  0.00  0.00    +0.000 C 
BRANCH  22  23
ATOM     23  C   UNL     1       6.222   4.573  18.611  0.00  0.00    +0.000 A 
ATOM     24  N   UNL     1       6.931   5.407  19.316  0.00  0.00    +0.000 NA
ATOM     25  N   UNL     1       7.617   6.385  18.667  0.00  0.00    +0.000 N 
ATOM     26  C   UNL     1       7.557   6.652  17.322  0.00  0.00    +0.000 A 
ATOM     27  O   UNL     1       8.071   7.647  16.823  0.00  0.00    +0.000 OA
ATOM     28  C   UNL     1       6.857   5.652  16.499  0.00  0.00    +0.000 A 
ATOM     29  C   UNL     1       6.875   5.762  15.103  0.00  0.00    +0.000 A 
ATOM     30  C   UNL     1       6.266   4.779  14.325  0.00  0.00    +0.000 A 
ATOM     31  C   UNL     1       5.641   3.696  14.939  0.00  0.00    +0.000 A 
ATOM     32  C   UNL     1       5.610   3.597  16.334  0.00  0.00    +0.000 A 
ATOM     33  C   UNL     1       6.211   4.586  17.123  0.00  0.00    +0.000 A 
ATOM     34  H   UNL     1       8.090   7.068  19.253  0.00  0.00    +0.000 HD
ENDBRANCH  22  23
ENDBRANCH   3  22
TORSDOF 4
ENDMDL
MODEL 3
REMARK VINA RESULT:      -8.4      1.276      2.154
REMARK  Name = 
REMARK  4 active torsions:
REMARK  status: ('A' for Active; 'I' for Inactive)
REMARK    1  A    between atoms: C_2  and  C_3
REMARK    2  A    between atoms: C_5  and  C_6
REMARK    3  A    between atoms: C_6  and  C_7
REMARK    4  A    between atoms: C_27  and  C_29
REMARK                            x       y       z     vdW  Elec       q    Type
REMARK                         _______ _______ _______ _____ _____    ______ ____
ROOT
ATOM      1  C   UNL     1       0.682  10.256  19.359  0.00  0.00    +0.000 A 
ATOM      2  C   UNL     1       1.367   9.656  18.294  0.00  0.00    +0.000 A 
ATOM      3  C   UNL     1       2.039   8.442  18.484  0.00  0.00    +0.000 A 
ATOM      4  C   UNL     1       2.020   7.862  19.761  0.00  0.00    +0.000 A 
ATOM      5  C   UNL     1       1.319   8.455  20.803  0.00  0.00    +0.000 A 
ATOM      6  F   UNL     1       1.259   7.864  22.003  0.00  0.00    +0.000 F 
ATOM      7  C   UNL     1       0.631   9.619  20.591  0.00  0.00    +0.000 A 
ATOM      8  F   UNL     1      -0.120  10.070  21.601  0.00  0.00    +0.000 F 
ENDROOT
BRANCH   1  10
ATOM      9  O   UNL     1      -1.271  11.239  18.625  0.00  0.00    +0.000 OA
ATOM     10  C   UNL     1      -0.150  11.435  19.096  0.00  0.00    +0.000 C 
ATOM     11  N   UNL     1       0.321  12.694  19.422  0.00  0.00    +0.000 N 
ATOM     12  C   UNL     1       1.653  13.067  19.941  0.00  0.00    +0.000 C 
ATOM     13  C   UNL     1       2.179  14.349  19.301  0.00  0.00    +0.000 C 
ATOM     14  N   UNL     1       1.164  15.416  19.322  0.00  0.00    +0.000 N 
ATOM     15  C   UNL     1       1.556  16.693  19.785  0.00  0.00    +0.000 C 
ATOM     16  O   UNL     1       2.678  16.913  20.130  0.00  0.00    +0.000 OA
ATOM     17  C   UNL     1      -0.132  15.006  18.767  0.00  0.00    +0.000 C 
ATOM     18  C   UNL     1      -0.656  13.759  19.468  0.00  0.00    +0.000 C 
BRANCH  15  19
ATOM     19  C   UNL     1       0.542  17.811  19.835  0.00  0.00    +0.000 C 
ATOM     20  C   UNL     1      -0.768  17.807  20.615  0.00  0.00    +0.000 C 
ATOM     21  C   UNL     1       0.398  18.614  21.105  0.00  0.00    +0.000 C 
ENDBRANCH  15  19
ENDBRANCH   1  10
BRANCH   3  22
ATOM     22  C   UNL     1       2.694   7.772  17.293  0.00  0.00    +0.000 C 
BRANCH  22  23
ATOM     23  C   UNL     1       3.710   6.701  17.670  0.00  0.00    +0.000 A 
ATOM     24  N   UNL     1       4.944   7.095  17.810  0.00  0.00    +0.000 NA
ATOM     25  N   UNL     1       5.907   6.155  18.002  0.00  0.00    +0.000 N 
ATOM     26  C   UNL     1       5.722   4.795  17.961  0.00  0.00    +0.000 A 
ATOM     27  O   UNL     1       6.656   4.001  17.980  0.00  0.00    +0.000 OA
ATOM     28  C   UNL     1       4.324   4.338  17.921  0.00  0.00    +0.000 A 
ATOM     29  C   UNL     1       4.034   2.972  18.030  0.00  0.00    +0.000 A 
ATOM     30  C   UNL     1       2.707   2.547  18.057  0.00  0.00    +0.000 A 
ATOM     31  C   UNL     1       1.678   3.483  17.972  0.00  0.00    +0.000 A 
ATOM     32  C   UNL     1       1.970   4.845  17.848  0.00  0.00    +0.000 A 
ATOM     33  C   UNL     1       3.301   5.278  17.810  0.00  0.00    +0.000 A 
ATOM     34  H   UNL     1       6.867   6.490  18.022  0.00  0.00    +0.000 HD
ENDBRANCH  22  23
ENDBRANCH   3  22
TORSDOF 4
ENDMDL
MODEL 4
REMARK VINA RESULT:      -8.3      1.635      2.676
REMARK  Name = 
REMARK  4 active torsions:
REMARK  status: ('A' for Active; 'I' for Inactive)
REMARK    1  A    between atoms: C_2  and  C_3
REMARK    2  A    between atoms: C_5  and  C_6
REMARK    3  A    between atoms: C_6  and  C_7
REMARK    4  A    between atoms: C_27  and  C_29
REMARK                            x       y       z     vdW  Elec       q    Type
REMARK                         _______ _______ _______ _____ _____    ______ ____
ROOT
ATOM      1  C   UNL     1       0.865   9.612  19.143  0.00  0.00    +0.000 A 
ATOM      2  C   UNL     1       1.691   8.811  18.344  0.00  0.00    +0.000 A 
ATOM      3  C   UNL     1       2.334   7.694  18.892  0.00  0.00    +0.000 A 
ATOM      4  C   UNL     1       2.143   7.417  20.254  0.00  0.00    +0.000 A 
ATOM      5  C   UNL     1       1.304   8.205  21.031  0.00  0.00    +0.000 A 
ATOM      6  F   UNL     1       1.083   7.899  22.316  0.00  0.00    +0.000 F 
ATOM      7  C   UNL     1       0.648   9.268  20.470  0.00  0.00    +0.000 A 
ATOM      8  F   UNL     1      -0.235   9.909  21.242  0.00  0.00    +0.000 F 
ENDROOT
BRANCH   1  10
ATOM      9  O   UNL     1      -0.790  10.326  17.704  0.00  0.00    +0.000 OA
ATOM     10  C   UNL     1       0.074  10.673  18.511  0.00  0.00    +0.000 C 
ATOM     11  N   UNL     1       0.286  11.992  18.866  0.00  0.00    +0.000 N 
ATOM     12  C   UNL     1       1.314  12.542  19.774  0.00  0.00    +0.000 C 
ATOM     13  C   UNL     1       1.912  13.842  19.242  0.00  0.00    +0.000 C 
ATOM     14  N   UNL     1       0.861  14.785  18.823  0.00  0.00    +0.000 N 
ATOM     15  C   UNL     1       0.950  16.119  19.278  0.00  0.00    +0.000 C 
ATOM     16  O   UNL     1       1.856  16.485  19.965  0.00  0.00    +0.000 OA
ATOM     17  C   UNL     1      -0.117  14.200  17.898  0.00  0.00    +0.000 C 
ATOM     18  C   UNL     1      -0.737  12.939  18.483  0.00  0.00    +0.000 C 
BRANCH  15  19
ATOM     19  C   UNL     1      -0.116  17.115  18.882  0.00  0.00    +0.000 C 
ATOM     20  C   UNL     1       0.041  18.631  18.832  0.00  0.00    +0.000 C 
ATOM     21  C   UNL     1       0.009  17.834  17.560  0.00  0.00    +0.000 C 
ENDBRANCH  15  19
ENDBRANCH   1  10
BRANCH   3  22
ATOM     22  C   UNL     1       3.148   6.795  17.983  0.00  0.00    +0.000 C 
BRANCH  22  23
ATOM     23  C   UNL     1       3.608   5.503  18.646  0.00  0.00    +0.000 A 
ATOM     24  N   UNL     1       4.827   5.487  19.104  0.00  0.00    +0.000 NA
ATOM     25  N   UNL     1       5.330   4.313  19.571  0.00  0.00    +0.000 N 
ATOM     26  C   UNL     1       4.705   3.092  19.514  0.00  0.00    +0.000 A 
ATOM     27  O   UNL     1       5.274   2.046  19.802  0.00  0.00    +0.000 OA
ATOM     28  C   UNL     1       3.290   3.113  19.108  0.00  0.00    +0.000 A 
ATOM     29  C   UNL     1       2.531   1.937  19.166  0.00  0.00    +0.000 A 
ATOM     30  C   UNL     1       1.176   1.973  18.844  0.00  0.00    +0.000 A 
ATOM     31  C   UNL     1       0.585   3.176  18.463  0.00  0.00    +0.000 A 
ATOM     32  C   UNL     1       1.348   4.345  18.391  0.00  0.00    +0.000 A 
ATOM     33  C   UNL     1       2.713   4.315  18.703  0.00  0.00    +0.000 A 
ATOM     34  H   UNL     1       6.310   4.318  19.841  0.00  0.00    +0.000 HD
ENDBRANCH  22  23
ENDBRANCH   3  22
TORSDOF 4
ENDMDL
MODEL 5
REMARK VINA RESULT:      -8.0      3.635      5.241
REMARK  Name = 
REMARK  4 active torsions:
REMARK  status: ('A' for Active; 'I' for Inactive)
REMARK    1  A    between atoms: C_2  and  C_3
REMARK    2  A    between atoms: C_5  and  C_6
REMARK    3  A    between atoms: C_6  and  C_7
REMARK    4  A    between atoms: C_27  and  C_29
REMARK                            x       y       z     vdW  Elec       q    Type
REMARK                         _______ _______ _______ _____ _____    ______ ____
ROOT
ATOM      1  C   UNL     1      -0.184  10.786  19.850  0.00  0.00    +0.000 A 
ATOM      2  C   UNL     1       0.136   9.530  20.382  0.00  0.00    +0.000 A 
ATOM      3  C   UNL     1       1.236   8.816  19.889  0.00  0.00    +0.000 A 
ATOM      4  C   UNL     1       1.986   9.383  18.848  0.00  0.00    +0.000 A 
ATOM      5  C   UNL     1       1.673  10.638  18.345  0.00  0.00    +0.000 A 
ATOM      6  F   UNL     1       2.430  11.195  17.391  0.00  0.00    +0.000 F 
ATOM      7  C   UNL     1       0.621  11.343  18.867  0.00  0.00    +0.000 A 
ATOM      8  F   UNL     1       0.450  12.591  18.421  0.00  0.00    +0.000 F 
ENDROOT
BRANCH   1  10
ATOM      9  O   UNL     1      -1.041  11.934  21.658  0.00  0.00    +0.000 OA
ATOM     10  C   UNL     1      -1.233  11.584  20.492  0.00  0.00    +0.000 C 
ATOM     11  N   UNL     1      -2.356  11.950  19.772  0.00  0.00    +0.000 N 
ATOM     12  C   UNL     1      -2.729  11.558  18.397  0.00  0.00    +0.000 C 
ATOM     13  C   UNL     1      -4.219  11.255  18.272  0.00  0.00    +0.000 C 
ATOM     14  N   UNL     1      -5.037  12.321  18.875  0.00  0.00    +0.000 N 
ATOM     15  C   UNL     1      -6.116  12.835  18.121  0.00  0.00    +0.000 C 
ATOM     16  O   UNL     1      -6.375  12.411  17.035  0.00  0.00    +0.000 OA
ATOM     17  C   UNL     1      -4.648  12.652  20.252  0.00  0.00    +0.000 C 
ATOM     18  C   UNL     1      -3.169  13.006  20.331  0.00  0.00    +0.000 C 
BRANCH  15  19
ATOM     19  C   UNL     1      -6.971  13.939  18.699  0.00  0.00    +0.000 C 
ATOM     20  C   UNL     1      -6.622  15.422  18.740  0.00  0.00    +0.000 C 
ATOM     21  C   UNL     1      -7.640  14.914  17.761  0.00  0.00    +0.000 C 
ENDBRANCH  15  19
ENDBRANCH   1  10
BRANCH   3  22
ATOM     22  C   UNL     1       1.611   7.502  20.544  0.00  0.00    +0.000 C 
BRANCH  22  23
ATOM     23  C   UNL     1       2.352   6.543  19.621  0.00  0.00    +0.000 A 
ATOM     24  N   UNL     1       3.275   7.064  18.863  0.00  0.00    +0.000 NA
ATOM     25  N   UNL     1       3.861   6.277  17.921  0.00  0.00    +0.000 N 
ATOM     26  C   UNL     1       3.500   4.989  17.612  0.00  0.00    +0.000 A 
ATOM     27  O   UNL     1       3.957   4.390  16.645  0.00  0.00    +0.000 OA
ATOM     28  C   UNL     1       2.545   4.351  18.533  0.00  0.00    +0.000 A 
ATOM     29  C   UNL     1       2.235   2.993  18.385  0.00  0.00    +0.000 A 
ATOM     30  C   UNL     1       1.381   2.376  19.297  0.00  0.00    +0.000 A 
ATOM     31  C   UNL     1       0.838   3.113  20.347  0.00  0.00    +0.000 A 
ATOM     32  C   UNL     1       1.136   4.473  20.483  0.00  0.00    +0.000 A 
ATOM     33  C   UNL     1       1.985   5.102  19.565  0.00  0.00    +0.000 A 
ATOM     34  H   UNL     1       4.513   6.737  17.292  0.00  0.00    +0.000 HD
ENDBRANCH  22  23
ENDBRANCH   3  22
TORSDOF 4
ENDMDL
MODEL 6
REMARK VINA RESULT:      -8.0      3.624      4.803
REMARK  Name = 
REMARK  4 active torsions:
REMARK  status: ('A' for Active; 'I' for Inactive)
REMARK    1  A    between atoms: C_2  and  C_3
REMARK    2  A    between atoms: C_5  and  C_6
REMARK    3  A    between atoms: C_6  and  C_7
REMARK    4  A    between atoms: C_27  and  C_29
REMARK                            x       y       z     vdW  Elec       q    Type
REMARK                         _______ _______ _______ _____ _____    ______ ____
ROOT
ATOM      1  C   UNL     1       0.493  10.980  20.525  0.00  0.00    +0.000 A 
ATOM      2  C   UNL     1       1.013   9.798  21.069  0.00  0.00    +0.000 A 
ATOM      3  C   UNL     1       1.118   8.646  20.279  0.00  0.00    +0.000 A 
ATOM      4  C   UNL     1       0.675   8.707  18.949  0.00  0.00    +0.000 A 
ATOM      5  C   UNL     1       0.183   9.890  18.415  0.00  0.00    +0.000 A 
ATOM      6  F   UNL     1      -0.183   9.954  17.128  0.00  0.00    +0.000 F 
ATOM      7  C   UNL     1       0.127  11.020  19.188  0.00  0.00    +0.000 A 
ATOM      8  F   UNL     1      -0.242  12.151  18.578  0.00  0.00    +0.000 F 
ENDROOT
BRANCH   1  10
ATOM      9  O   UNL     1       1.640  12.774  21.411  0.00  0.00    +0.000 OA
ATOM     10  C   UNL     1       0.548  12.212  21.318  0.00  0.00    +0.000 C 
ATOM     11  N   UNL     1      -0.609  12.717  21.884  0.00  0.00    +0.000 N 
ATOM     12  C   UNL     1      -1.961  12.120  21.891  0.00  0.00    +0.000 C 
ATOM     13  C   UNL     1      -2.655  12.291  23.239  0.00  0.00    +0.000 C 
ATOM     14  N   UNL     1      -2.570  13.682  23.715  0.00  0.00    +0.000 N 
ATOM     15  C   UNL     1      -3.756  14.299  24.172  0.00  0.00    +0.000 C 
ATOM     16  O   UNL     1      -4.796  13.712  24.194  0.00  0.00    +0.000 OA
ATOM     17  C   UNL     1      -1.204  14.219  23.719  0.00  0.00    +0.000 C 
ATOM     18  C   UNL     1      -0.561  14.086  22.345  0.00  0.00    +0.000 C 
BRANCH  15  19
ATOM     19  C   UNL     1      -3.714  15.730  24.656  0.00  0.00    +0.000 C 
ATOM     20  C   UNL     1      -3.786  16.979  23.785  0.00  0.00    +0.000 C 
ATOM     21  C   UNL     1      -4.974  16.560  24.601  0.00  0.00    +0.000 C 
ENDBRANCH  15  19
ENDBRANCH   1  10
BRANCH   3  22
ATOM     22  C   UNL     1       1.767   7.409  20.867  0.00  0.00    +0.000 C 
BRANCH  22  23
ATOM     23  C   UNL     1       2.444   6.518  19.834  0.00  0.00    +0.000 A 
ATOM     24  N   UNL     1       3.398   7.063  19.134  0.00  0.00    +0.000 NA
ATOM     25  N   UNL     1       3.931   6.355  18.102  0.00  0.00    +0.000 N 
ATOM     26  C   UNL     1       3.488   5.137  17.649  0.00  0.00    +0.000 A 
ATOM     27  O   UNL     1       3.905   4.626  16.616  0.00  0.00    +0.000 OA
ATOM     28  C   UNL     1       2.493   4.460  18.496  0.00  0.00    +0.000 A 
ATOM     29  C   UNL     1       2.096   3.151  18.195  0.00  0.00    +0.000 A 
ATOM     30  C   UNL     1       1.203   2.489  19.035  0.00  0.00    +0.000 A 
ATOM     31  C   UNL     1       0.709   3.132  20.168  0.00  0.00    +0.000 A 
ATOM     32  C   UNL     1       1.095   4.445  20.459  0.00  0.00    +0.000 A 
ATOM     33  C   UNL     1       1.984   5.120  19.613  0.00  0.00    +0.000 A 
ATOM     34  H   UNL     1       4.613   6.842  17.526  0.00  0.00    +0.000 HD
ENDBRANCH  22  23
ENDBRANCH   3  22
TORSDOF 4
ENDMDL
MODEL 7
REMARK VINA RESULT:      -8.0      3.425      4.575
REMARK  Name = 
REMARK  4 active torsions:
REMARK  status: ('A' for Active; 'I' for Inactive)
REMARK    1  A    between atoms: C_2  and  C_3
REMARK    2  A    between atoms: C_5  and  C_6
REMARK    3  A    between atoms: C_6  and  C_7
REMARK    4  A    between atoms: C_27  and  C_29
REMARK                            x       y       z     vdW  Elec       q    Type
REMARK                         _______ _______ _______ _____ _____    ______ ____
ROOT
ATOM      1  C   UNL     1       0.724  10.799  20.145  0.00  0.00    +0.000 A 
ATOM      2  C   UNL     1       0.679   9.531  19.552  0.00  0.00    +0.000 A 
ATOM      3  C   UNL     1       1.394   9.277  18.375  0.00  0.00    +0.000 A 
ATOM      4  C   UNL     1       2.132  10.325  17.805  0.00  0.00    +0.000 A 
ATOM      5  C   UNL     1       2.188  11.572  18.414  0.00  0.00    +0.000 A 
ATOM      6  F   UNL     1       2.942  12.549  17.893  0.00  0.00    +0.000 F 
ATOM      7  C   UNL     1       1.518  11.792  19.588  0.00  0.00    +0.000 A 
ATOM      8  F   UNL     1       1.712  12.974  20.182  0.00  0.00    +0.000 F 
ENDROOT
BRANCH   1  10
ATOM      9  O   UNL     1       0.596  10.378  22.409  0.00  0.00    +0.000 OA
ATOM     10  C   UNL     1       0.106  10.993  21.461  0.00  0.00    +0.000 C 
ATOM     11  N   UNL     1      -0.951  11.874  21.600  0.00  0.00    +0.000 N 
ATOM     12  C   UNL     1      -1.659  12.628  20.545  0.00  0.00    +0.000 C 
ATOM     13  C   UNL     1      -3.167  12.657  20.776  0.00  0.00    +0.000 C 
ATOM     14  N   UNL     1      -3.492  13.040  22.160  0.00  0.00    +0.000 N 
ATOM     15  C   UNL     1      -4.467  14.043  22.359  0.00  0.00    +0.000 C 
ATOM     16  O   UNL     1      -5.030  14.556  21.438  0.00  0.00    +0.000 OA
ATOM     17  C   UNL     1      -2.788  12.241  23.171  0.00  0.00    +0.000 C 
ATOM     18  C   UNL     1      -1.283  12.281  22.947  0.00  0.00    +0.000 C 
BRANCH  15  19
ATOM     19  C   UNL     1      -4.820  14.474  23.763  0.00  0.00    +0.000 C 
ATOM     20  C   UNL     1      -4.152  15.591  24.558  0.00  0.00    +0.000 C 
ATOM     21  C   UNL     1      -5.518  15.796  23.971  0.00  0.00    +0.000 C 
ENDBRANCH  15  19
ENDBRANCH   1  10
BRANCH   3  22
ATOM     22  C   UNL     1       1.399   7.872  17.807  0.00  0.00    +0.000 C 
BRANCH  22  23
ATOM     23  C   UNL     1       2.653   7.075  18.146  0.00  0.00    +0.000 A 
ATOM     24  N   UNL     1       3.747   7.426  17.533  0.00  0.00    +0.000 NA
ATOM     25  N   UNL     1       4.855   6.654  17.691  0.00  0.00    +0.000 N 
ATOM     26  C   UNL     1       4.914   5.460  18.366  0.00  0.00    +0.000 A 
ATOM     27  O   UNL     1       5.900   4.733  18.336  0.00  0.00    +0.000 OA
ATOM     28  C   UNL     1       3.723   5.111  19.158  0.00  0.00    +0.000 A 
ATOM     29  C   UNL     1       3.748   3.990  19.997  0.00  0.00    +0.000 A 
ATOM     30  C   UNL     1       2.643   3.699  20.794  0.00  0.00    +0.000 A 
ATOM     31  C   UNL     1       1.520   4.522  20.750  0.00  0.00    +0.000 A 
ATOM     32  C   UNL     1       1.491   5.632  19.900  0.00  0.00    +0.000 A 
ATOM     33  C   UNL     1       2.593   5.925  19.088  0.00  0.00    +0.000 A 
ATOM     34  H   UNL     1       5.665   6.909  17.132  0.00  0.00    +0.000 HD
ENDBRANCH  22  23
ENDBRANCH   3  22
TORSDOF 4
ENDMDL
MODEL 8
REMARK VINA RESULT:      -7.9      2.672      3.287
REMARK  Name = 
REMARK  4 active torsions:
REMARK  status: ('A' for Active; 'I' for Inactive)
REMARK    1  A    between atoms: C_2  and  C_3
REMARK    2  A    between atoms: C_5  and  C_6
REMARK    3  A    between atoms: C_6  and  C_7
REMARK    4  A    between atoms: C_27  and  C_29
REMARK                            x       y       z     vdW  Elec       q    Type
REMARK                         _______ _______ _______ _____ _____    ______ ____
ROOT
ATOM      1  C   UNL     1       0.663  11.079  19.650  0.00  0.00    +0.000 A 
ATOM      2  C   UNL     1       1.638  10.084  19.499  0.00  0.00    +0.000 A 
ATOM      3  C   UNL     1       1.509   9.119  18.492  0.00  0.00    +0.000 A 
ATOM      4  C   UNL     1       0.379   9.168  17.662  0.00  0.00    +0.000 A 
ATOM      5  C   UNL     1      -0.569  10.172  17.807  0.00  0.00    +0.000 A 
ATOM      6  F   UNL     1      -1.615  10.243  16.973  0.00  0.00    +0.000 F 
ATOM      7  C   UNL     1      -0.407  11.133  18.768  0.00  0.00    +0.000 A 
ATOM      8  F   UNL     1      -1.291  12.137  18.774  0.00  0.00    +0.000 F 
ENDROOT
BRANCH   1  10
ATOM      9  O   UNL     1       0.367  12.084  21.704  0.00  0.00    +0.000 OA
ATOM     10  C   UNL     1       0.902  12.171  20.598  0.00  0.00    +0.000 C 
ATOM     11  N   UNL     1       1.737  13.216  20.246  0.00  0.00    +0.000 N 
ATOM     12  C   UNL     1       2.394  13.465  18.946  0.00  0.00    +0.000 C 
ATOM     13  C   UNL     1       2.363  14.941  18.561  0.00  0.00    +0.000 C 
ATOM     14  N   UNL     1       2.809  15.796  19.675  0.00  0.00    +0.000 N 
ATOM     15  C   UNL     1       3.774  16.791  19.400  0.00  0.00    +0.000 C 
ATOM     16  O   UNL     1       4.204  16.955  18.298  0.00  0.00    +0.000 OA
ATOM     17  C   UNL     1       2.105  15.532  20.936  0.00  0.00    +0.000 C 
ATOM     18  C   UNL     1       2.205  14.063  21.321  0.00  0.00    +0.000 C 
BRANCH  15  19
ATOM     19  C   UNL     1       4.267  17.680  20.518  0.00  0.00    +0.000 C 
ATOM     20  C   UNL     1       5.252  17.289  21.613  0.00  0.00    +0.000 C 
ATOM     21  C   UNL     1       5.693  18.175  20.485  0.00  0.00    +0.000 C 
ENDBRANCH  15  19
ENDBRANCH   1  10
BRANCH   3  22
ATOM     22  C   UNL     1       2.623   8.111  18.295  0.00  0.00    +0.000 C 
BRANCH  22  23
ATOM     23  C   UNL     1       2.439   6.825  19.091  0.00  0.00    +0.000 A 
ATOM     24  N   UNL     1       1.762   6.921  20.200  0.00  0.00    +0.000 NA
ATOM     25  N   UNL     1       1.697   5.836  21.017  0.00  0.00    +0.000 N 
ATOM     26  C   UNL     1       2.370   4.652  20.836  0.00  0.00    +0.000 A 
ATOM     27  O   UNL     1       2.397   3.773  21.689  0.00  0.00    +0.000 OA
ATOM     28  C   UNL     1       3.041   4.487  19.537  0.00  0.00    +0.000 A 
ATOM     29  C   UNL     1       3.624   3.257  19.205  0.00  0.00    +0.000 A 
ATOM     30  C   UNL     1       4.202   3.084  17.949  0.00  0.00    +0.000 A 
ATOM     31  C   UNL     1       4.200   4.133  17.033  0.00  0.00    +0.000 A 
ATOM     32  C   UNL     1       3.632   5.365  17.372  0.00  0.00    +0.000 A 
ATOM     33  C   UNL     1       3.058   5.551  18.636  0.00  0.00    +0.000 A 
ATOM     34  H   UNL     1       1.233   5.971  21.911  0.00  0.00    +0.000 HD
ENDBRANCH  22  23
ENDBRANCH   3  22
TORSDOF 4
ENDMDL
MODEL 9
REMARK VINA RESULT:      -7.9      1.578      2.332
REMARK  Name = 
REMARK  4 active torsions:
REMARK  status: ('A' for Active; 'I' for Inactive)
REMARK    1  A    between atoms: C_2  and  C_3
REMARK    2  A    between atoms: C_5  and  C_6
REMARK    3  A    between atoms: C_6  and  C_7
REMARK    4  A    between atoms: C_27  and  C_29
REMARK                            x       y       z     vdW  Elec       q    Type
REMARK                         _______ _______ _______ _____ _____    ______ ____
ROOT
ATOM      1  C   UNL     1       0.766   9.614  19.663  0.00  0.00    +0.000 A 
ATOM      2  C   UNL     1       1.504   9.260  18.526  0.00  0.00    +0.000 A 
ATOM      3  C   UNL     1       2.258   8.080  18.515  0.00  0.00    +0.000 A 
ATOM      4  C   UNL     1       2.266   7.283  19.670  0.00  0.00    +0.000 A 
ATOM      5  C   UNL     1       1.513   7.633  20.782  0.00  0.00    +0.000 A 
ATOM      6  F   UNL     1       1.481   6.837  21.859  0.00  0.00    +0.000 F 
ATOM      7  C   UNL     1       0.746   8.768  20.762  0.00  0.00    +0.000 A 
ATOM      8  F   UNL     1      -0.046   8.980  21.817  0.00  0.00    +0.000 F 
ENDROOT
BRANCH   1  10
ATOM      9  O   UNL     1      -1.352  10.528  19.658  0.00  0.00    +0.000 OA
ATOM     10  C   UNL     1      -0.144  10.762  19.592  0.00  0.00    +0.000 C 
ATOM     11  N   UNL     1       0.371  12.043  19.502  0.00  0.00    +0.000 N 
ATOM     12  C   UNL     1       1.784  12.454  19.365  0.00  0.00    +0.000 C 
ATOM     13  C   UNL     1       1.952  13.608  18.380  0.00  0.00    +0.000 C 
ATOM     14  N   UNL     1       0.996  14.693  18.657  0.00  0.00    +0.000 N 
ATOM     15  C   UNL     1       1.494  16.014  18.720  0.00  0.00    +0.000 C 
ATOM     16  O   UNL     1       2.649  16.254  18.536  0.00  0.00    +0.000 OA
ATOM     17  C   UNL     1      -0.397  14.239  18.753  0.00  0.00    +0.000 C 
ATOM     18  C   UNL     1      -0.540  13.129  19.785  0.00  0.00    +0.000 C 
BRANCH  15  19
ATOM     19  C   UNL     1       0.548  17.155  19.015  0.00  0.00    +0.000 C 
ATOM     20  C   UNL     1       0.795  18.630  18.719  0.00  0.00    +0.000 C 
ATOM     21  C   UNL     1      -0.154  17.839  17.867  0.00  0.00    +0.000 C 
ENDBRANCH  15  19
ENDBRANCH   1  10
BRANCH   3  22
ATOM     22  C   UNL     1       2.973   7.678  17.241  0.00  0.00    +0.000 C 
BRANCH  22  23
ATOM     23  C   UNL     1       4.074   6.645  17.452  0.00  0.00    +0.000 A 
ATOM     24  N   UNL     1       5.293   7.100  17.510  0.00  0.00    +0.000 NA
ATOM     25  N   UNL     1       6.318   6.207  17.550  0.00  0.00    +0.000 N 
ATOM     26  C   UNL     1       6.201   4.844  17.431  0.00  0.00    +0.000 A 
ATOM     27  O   UNL     1       7.173   4.107  17.311  0.00  0.00    +0.000 OA
ATOM     28  C   UNL     1       4.831   4.310  17.481  0.00  0.00    +0.000 A 
ATOM     29  C   UNL     1       4.623   2.925  17.518  0.00  0.00    +0.000 A 
ATOM     30  C   UNL     1       3.328   2.423  17.631  0.00  0.00    +0.000 A 
ATOM     31  C   UNL     1       2.248   3.300  17.703  0.00  0.00    +0.000 A 
ATOM     32  C   UNL     1       2.456   4.682  17.650  0.00  0.00    +0.000 A 
ATOM     33  C   UNL     1       3.754   5.194  17.526  0.00  0.00    +0.000 A 
ATOM     34  H   UNL     1       7.256   6.596  17.510  0.00  0.00    +0.000 HD
ENDBRANCH  22  23
ENDBRANCH   3  22
TORSDOF 4
ENDMDL
