MODEL 1
REMARK VINA RESULT:      -7.8      0.000      0.000
REMARK  Name = 
REMARK  4 active torsions:
REMARK  status: ('A' for Active; 'I' for Inactive)
REMARK    1  A    between atoms: C_1  and  C_2
REMARK    2  A    between atoms: C_6  and  C_7
REMARK    3  A    between atoms: C_7  and  C_8
REMARK    4  A    between atoms: C_10  and  O_11
REMARK                            x       y       z     vdW  Elec       q    Type
REMARK                         _______ _______ _______ _____ _____    ______ ____
ROOT
ATOM      1  C   UNL     1       4.854   5.705  17.732  0.00  0.00    +0.000 A 
ATOM      2  C   UNL     1       6.012   4.826  18.037  0.00  0.00    +0.000 A 
ATOM      3  C   UNL     1       7.006   4.773  17.141  0.00  0.00    +0.000 A 
ATOM      4  C   UNL     1       6.859   5.501  15.843  0.00  0.00    +0.000 A 
ATOM      5  O   UNL     1       7.742   5.520  14.993  0.00  0.00    +0.000 OA
ATOM      6  N   UNL     1       5.653   6.140  15.654  0.00  0.00    +0.000 N 
ATOM      7  N   UNL     1       4.679   6.302  16.595  0.00  0.00    +0.000 NA
ATOM      8  H   UNL     1       5.535   6.644  14.781  0.00  0.00    +0.000 HD
ENDROOT
BRANCH   3   9
ATOM      9  O   UNL     1       8.170   4.058  17.368  0.00  0.00    +0.000 OA
ATOM     10  H   UNL     1       7.951   3.127  17.538  0.00  0.00    +0.000 HD
ENDBRANCH   3   9
BRANCH   1  11
ATOM     11  C   UNL     1       3.856   5.957  18.853  0.00  0.00    +0.000 C 
BRANCH  11  17
ATOM     12  C   UNL     1       1.490   2.653  21.839  0.00  0.00    +0.000 C 
ATOM     13  C   UNL     1       1.677   3.271  20.485  0.00  0.00    +0.000 A 
ATOM     14  C   UNL     1       0.940   2.822  19.385  0.00  0.00    +0.000 A 
ATOM     15  C   UNL     1       1.137   3.388  18.126  0.00  0.00    +0.000 A 
ATOM     16  C   UNL     1       2.085   4.397  17.952  0.00  0.00    +0.000 A 
ATOM     17  C   UNL     1       2.845   4.853  19.037  0.00  0.00    +0.000 A 
ATOM     18  C   UNL     1       2.619   4.295  20.305  0.00  0.00    +0.000 A 
ENDBRANCH  11  17
ENDBRANCH   1  11
TORSDOF 3
ENDMDL
MODEL 2
REMARK VINA RESULT:      -7.8      1.462      2.296
REMARK  Name = 
REMARK  4 active torsions:
REMARK  status: ('A' for Active; 'I' for Inactive)
REMARK    1  A    between atoms: C_1  and  C_2
REMARK    2  A    between atoms: C_6  and  C_7
REMARK    3  A    between atoms: C_7  and  C_8
REMARK    4  A    between atoms: C_10  and  O_11
REMARK                            x       y       z     vdW  Elec       q    Type
REMARK                         _______ _______ _______ _____ _____    ______ ____
ROOT
ATOM      1  C   UNL     1       4.976   5.903  17.824  0.00  0.00    +0.000 A 
ATOM      2  C   UNL     1       5.711   5.972  16.535  0.00  0.00    +0.000 A 
ATOM      3  C   UNL     1       6.892   5.345  16.458  0.00  0.00    +0.000 A 
ATOM      4  C   UNL     1       7.462   4.709  17.686  0.00  0.00    +0.000 A 
ATOM      5  O   UNL     1       8.522   4.092  17.678  0.00  0.00    +0.000 OA
ATOM      6  N   UNL     1       6.724   4.874  18.837  0.00  0.00    +0.000 N 
ATOM      7  N   UNL     1       5.471   5.405  18.913  0.00  0.00    +0.000 NA
ATOM      8  H   UNL     1       7.092   4.445  19.681  0.00  0.00    +0.000 HD
ENDROOT
BRANCH   3   9
ATOM      9  O   UNL     1       7.616   5.271  15.280  0.00  0.00    +0.000 OA
ATOM     10  H   UNL     1       7.005   5.226  14.527  0.00  0.00    +0.000 HD
ENDBRANCH   3   9
BRANCH   1  11
ATOM     11  C   UNL     1       3.536   6.395  17.832  0.00  0.00    +0.000 C 
BRANCH  11  17
ATOM     12  C   UNL     1       0.753   2.278  18.691  0.00  0.00    +0.000 C 
ATOM     13  C   UNL     1       1.293   3.596  19.161  0.00  0.00    +0.000 A 
ATOM     14  C   UNL     1       0.942   4.109  20.413  0.00  0.00    +0.000 A 
ATOM     15  C   UNL     1       1.433   5.345  20.831  0.00  0.00    +0.000 A 
ATOM     16  C   UNL     1       2.265   6.088  19.994  0.00  0.00    +0.000 A 
ATOM     17  C   UNL     1       2.620   5.600  18.729  0.00  0.00    +0.000 A 
ATOM     18  C   UNL     1       2.142   4.342  18.330  0.00  0.00    +0.000 A 
ENDBRANCH  11  17
ENDBRANCH   1  11
TORSDOF 3
ENDMDL
MODEL 3
REMARK VINA RESULT:      -7.6      1.345      1.749
REMARK  Name = 
REMARK  4 active torsions:
REMARK  status: ('A' for Active; 'I' for Inactive)
REMARK    1  A    between atoms: C_1  and  C_2
REMARK    2  A    between atoms: C_6  and  C_7
REMARK    3  A    between atoms: C_7  and  C_8
REMARK    4  A    between atoms: C_10  and  O_11
REMARK                            x       y       z     vdW  Elec       q    Type
REMARK                         _______ _______ _______ _____ _____    ______ ____
ROOT
ATOM      1  C   UNL     1       4.962   5.741  18.387  0.00  0.00    +0.000 A 
ATOM      2  C   UNL     1       5.495   6.047  17.036  0.00  0.00    +0.000 A 
ATOM      3  C   UNL     1       6.670   5.503  16.692  0.00  0.00    +0.000 A 
ATOM      4  C   UNL     1       7.434   4.714  17.707  0.00  0.00    +0.000 A 
ATOM      5  O   UNL     1       8.498   4.163  17.450  0.00  0.00    +0.000 OA
ATOM      6  N   UNL     1       6.870   4.659  18.963  0.00  0.00    +0.000 N 
ATOM      7  N   UNL     1       5.627   5.107  19.301  0.00  0.00    +0.000 NA
ATOM      8  H   UNL     1       7.371   4.125  19.666  0.00  0.00    +0.000 HD
ENDROOT
BRANCH   3   9
ATOM      9  O   UNL     1       7.212   5.650  15.426  0.00  0.00    +0.000 OA
ATOM     10  H   UNL     1       6.561   6.068  14.841  0.00  0.00    +0.000 HD
ENDBRANCH   3   9
BRANCH   1  11
ATOM     11  C   UNL     1       3.525   6.149  18.678  0.00  0.00    +0.000 C 
BRANCH  11  17
ATOM     12  C   UNL     1       1.387   2.816  21.801  0.00  0.00    +0.000 C 
ATOM     13  C   UNL     1       1.532   3.390  20.423  0.00  0.00    +0.000 A 
ATOM     14  C   UNL     1       0.826   2.850  19.344  0.00  0.00    +0.000 A 
ATOM     15  C   UNL     1       0.984   3.377  18.063  0.00  0.00    +0.000 A 
ATOM     16  C   UNL     1       1.862   4.439  17.846  0.00  0.00    +0.000 A 
ATOM     17  C   UNL     1       2.590   4.988  18.910  0.00  0.00    +0.000 A 
ATOM     18  C   UNL     1       2.403   4.467  20.199  0.00  0.00    +0.000 A 
ENDBRANCH  11  17
ENDBRANCH   1  11
TORSDOF 3
ENDMDL
MODEL 4
REMARK VINA RESULT:      -7.3      1.869      2.367
REMARK  Name = 
REMARK  4 active torsions:
REMARK  status: ('A' for Active; 'I' for Inactive)
REMARK    1  A    between atoms: C_1  and  C_2
REMARK    2  A    between atoms: C_6  and  C_7
REMARK    3  A    between atoms: C_7  and  C_8
REMARK    4  A    between atoms: C_10  and  O_11
REMARK                            x       y       z     vdW  Elec       q    Type
REMARK                         _______ _______ _______ _____ _____    ______ ____
ROOT
ATOM      1  C   UNL     1       5.878   5.201  16.911  0.00  0.00    +0.000 A 
ATOM      2  C   UNL     1       6.659   4.780  18.101  0.00  0.00    +0.000 A 
ATOM      3  C   UNL     1       7.487   5.679  18.652  0.00  0.00    +0.000 A 
ATOM      4  C   UNL     1       7.667   7.007  17.988  0.00  0.00    +0.000 A 
ATOM      5  O   UNL     1       8.383   7.886  18.456  0.00  0.00    +0.000 OA
ATOM      6  N   UNL     1       6.986   7.176  16.803  0.00  0.00    +0.000 N 
ATOM      7  N   UNL     1       6.055   6.324  16.288  0.00  0.00    +0.000 NA
ATOM      8  H   UNL     1       7.092   8.073  16.339  0.00  0.00    +0.000 HD
ENDROOT
BRANCH   3   9
ATOM      9  O   UNL     1       8.192   5.421  19.814  0.00  0.00    +0.000 OA
ATOM     10  H   UNL     1       9.126   5.650  19.685  0.00  0.00    +0.000 HD
ENDBRANCH   3   9
BRANCH   1  11
ATOM     11  C   UNL     1       4.764   4.274  16.445  0.00  0.00    +0.000 C 
BRANCH  11  17
ATOM     12  C   UNL     1       2.032   6.232  20.205  0.00  0.00    +0.000 C 
ATOM     13  C   UNL     1       2.258   5.139  19.203  0.00  0.00    +0.000 A 
ATOM     14  C   UNL     1       1.417   4.023  19.157  0.00  0.00    +0.000 A 
ATOM     15  C   UNL     1       1.650   3.002  18.236  0.00  0.00    +0.000 A 
ATOM     16  C   UNL     1       2.736   3.079  17.364  0.00  0.00    +0.000 A 
ATOM     17  C   UNL     1       3.601   4.181  17.402  0.00  0.00    +0.000 A 
ATOM     18  C   UNL     1       3.341   5.216  18.314  0.00  0.00    +0.000 A 
ENDBRANCH  11  17
ENDBRANCH   1  11
TORSDOF 3
ENDMDL
MODEL 5
REMARK VINA RESULT:      -7.3      1.897      2.480
REMARK  Name = 
REMARK  4 active torsions:
REMARK  status: ('A' for Active; 'I' for Inactive)
REMARK    1  A    between atoms: C_1  and  C_2
REMARK    2  A    between atoms: C_6  and  C_7
REMARK    3  A    between atoms: C_7  and  C_8
REMARK    4  A    between atoms: C_10  and  O_11
REMARK                            x       y       z     vdW  Elec       q    Type
REMARK                         _______ _______ _______ _____ _____    ______ ____
ROOT
ATOM      1  C   UNL     1       5.898   5.552  17.082  0.00  0.00    +0.000 A 
ATOM      2  C   UNL     1       6.692   5.034  18.225  0.00  0.00    +0.000 A 
ATOM      3  C   UNL     1       7.594   5.855  18.779  0.00  0.00    +0.000 A 
ATOM      4  C   UNL     1       7.837   7.195  18.161  0.00  0.00    +0.000 A 
ATOM      5  O   UNL     1       8.625   8.007  18.636  0.00  0.00    +0.000 OA
ATOM      6  N   UNL     1       7.128   7.456  17.010  0.00  0.00    +0.000 N 
ATOM      7  N   UNL     1       6.126   6.686  16.497  0.00  0.00    +0.000 NA
ATOM      8  H   UNL     1       7.276   8.363  16.578  0.00  0.00    +0.000 HD
ENDROOT
BRANCH   3   9
ATOM      9  O   UNL     1       8.322   5.505  19.903  0.00  0.00    +0.000 OA
ATOM     10  H   UNL     1       8.185   6.168  20.598  0.00  0.00    +0.000 HD
ENDBRANCH   3   9
BRANCH   1  11
ATOM     11  C   UNL     1       4.711   4.717  16.623  0.00  0.00    +0.000 C 
BRANCH  11  17
ATOM     12  C   UNL     1       0.841   2.243  18.703  0.00  0.00    +0.000 C 
ATOM     13  C   UNL     1       1.719   3.457  18.644  0.00  0.00    +0.000 A 
ATOM     14  C   UNL     1       1.487   4.550  19.485  0.00  0.00    +0.000 A 
ATOM     15  C   UNL     1       2.297   5.684  19.407  0.00  0.00    +0.000 A 
ATOM     16  C   UNL     1       3.334   5.741  18.477  0.00  0.00    +0.000 A 
ATOM     17  C   UNL     1       3.576   4.663  17.615  0.00  0.00    +0.000 A 
ATOM     18  C   UNL     1       2.773   3.517  17.721  0.00  0.00    +0.000 A 
ENDBRANCH  11  17
ENDBRANCH   1  11
TORSDOF 3
ENDMDL
MODEL 6
REMARK VINA RESULT:      -7.2      1.467      2.161
REMARK  Name = 
REMARK  4 active torsions:
REMARK  status: ('A' for Active; 'I' for Inactive)
REMARK    1  A    between atoms: C_1  and  C_2
REMARK    2  A    between atoms: C_6  and  C_7
REMARK    3  A    between atoms: C_7  and  C_8
REMARK    4  A    between atoms: C_10  and  O_11
REMARK                            x       y       z     vdW  Elec       q    Type
REMARK                         _______ _______ _______ _____ _____    ______ ____
ROOT
ATOM      1  C   UNL     1       4.721   5.984  17.231  0.00  0.00    +0.000 A 
ATOM      2  C   UNL     1       4.845   4.857  16.271  0.00  0.00    +0.000 A 
ATOM      3  C   UNL     1       6.027   4.231  16.197  0.00  0.00    +0.000 A 
ATOM      4  C   UNL     1       7.183   4.756  16.988  0.00  0.00    +0.000 A 
ATOM      5  O   UNL     1       8.282   4.213  16.990  0.00  0.00    +0.000 OA
ATOM      6  N   UNL     1       6.937   5.906  17.706  0.00  0.00    +0.000 N 
ATOM      7  N   UNL     1       5.718   6.490  17.886  0.00  0.00    +0.000 NA
ATOM      8  H   UNL     1       7.708   6.276  18.254  0.00  0.00    +0.000 HD
ENDROOT
BRANCH   3   9
ATOM      9  O   UNL     1       6.224   3.114  15.403  0.00  0.00    +0.000 OA
ATOM     10  H   UNL     1       7.173   3.002  15.231  0.00  0.00    +0.000 HD
ENDBRANCH   3   9
BRANCH   1  11
ATOM     11  C   UNL     1       3.322   6.523  17.495  0.00  0.00    +0.000 C 
BRANCH  11  17
ATOM     12  C   UNL     1       0.683   2.421  18.774  0.00  0.00    +0.000 C 
ATOM     13  C   UNL     1       1.288   3.740  19.152  0.00  0.00    +0.000 A 
ATOM     14  C   UNL     1       1.123   4.262  20.439  0.00  0.00    +0.000 A 
ATOM     15  C   UNL     1       1.672   5.500  20.773  0.00  0.00    +0.000 A 
ATOM     16  C   UNL     1       2.376   6.234  19.819  0.00  0.00    +0.000 A 
ATOM     17  C   UNL     1       2.543   5.738  18.520  0.00  0.00    +0.000 A 
ATOM     18  C   UNL     1       2.010   4.479  18.203  0.00  0.00    +0.000 A 
ENDBRANCH  11  17
ENDBRANCH   1  11
TORSDOF 3
ENDMDL
MODEL 7
REMARK VINA RESULT:      -7.1      0.821      1.668
REMARK  Name = 
REMARK  4 active torsions:
REMARK  status: ('A' for Active; 'I' for Inactive)
REMARK    1  A    between atoms: C_1  and  C_2
REMARK    2  A    between atoms: C_6  and  C_7
REMARK    3  A    between atoms: C_7  and  C_8
REMARK    4  A    between atoms: C_10  and  O_11
REMARK                            x       y       z     vdW  Elec       q    Type
REMARK                         _______ _______ _______ _____ _____    ______ ____
ROOT
ATOM      1  C   UNL     1       4.340   6.174  17.387  0.00  0.00    +0.000 A 
ATOM      2  C   UNL     1       5.295   5.227  18.016  0.00  0.00    +0.000 A 
ATOM      3  C   UNL     1       6.443   4.980  17.370  0.00  0.00    +0.000 A 
ATOM      4  C   UNL     1       6.659   5.572  16.014  0.00  0.00    +0.000 A 
ATOM      5  O   UNL     1       7.698   5.412  15.383  0.00  0.00    +0.000 OA
ATOM      6  N   UNL     1       5.604   6.299  15.508  0.00  0.00    +0.000 N 
ATOM      7  N   UNL     1       4.480   6.656  16.192  0.00  0.00    +0.000 NA
ATOM      8  H   UNL     1       5.733   6.713  14.590  0.00  0.00    +0.000 HD
ENDROOT
BRANCH   3   9
ATOM      9  O   UNL     1       7.440   4.186  17.911  0.00  0.00    +0.000 OA
ATOM     10  H   UNL     1       7.040   3.417  18.348  0.00  0.00    +0.000 HD
ENDBRANCH   3   9
BRANCH   1  11
ATOM     11  C   UNL     1       3.165   6.643  18.232  0.00  0.00    +0.000 C 
BRANCH  11  17
ATOM     12  C   UNL     1       0.659   2.280  18.569  0.00  0.00    +0.000 C 
ATOM     13  C   UNL     1       1.349   3.430  19.239  0.00  0.00    +0.000 A 
ATOM     14  C   UNL     1       1.403   3.521  20.633  0.00  0.00    +0.000 A 
ATOM     15  C   UNL     1       2.029   4.607  21.246  0.00  0.00    +0.000 A 
ATOM     16  C   UNL     1       2.591   5.620  20.470  0.00  0.00    +0.000 A 
ATOM     17  C   UNL     1       2.538   5.557  19.071  0.00  0.00    +0.000 A 
ATOM     18  C   UNL     1       1.930   4.447  18.466  0.00  0.00    +0.000 A 
ENDBRANCH  11  17
ENDBRANCH   1  11
TORSDOF 3
ENDMDL
MODEL 8
REMARK VINA RESULT:      -7.1      1.057      1.099
REMARK  Name = 
REMARK  4 active torsions:
REMARK  status: ('A' for Active; 'I' for Inactive)
REMARK    1  A    between atoms: C_1  and  C_2
REMARK    2  A    between atoms: C_6  and  C_7
REMARK    3  A    between atoms: C_7  and  C_8
REMARK    4  A    between atoms: C_10  and  O_11
REMARK                            x       y       z     vdW  Elec       q    Type
REMARK                         _______ _______ _______ _____ _____    ______ ____
ROOT
ATOM      1  C   UNL     1       4.300   5.973  17.222  0.00  0.00    +0.000 A 
ATOM      2  C   UNL     1       4.546   4.558  16.843  0.00  0.00    +0.000 A 
ATOM      3  C   UNL     1       5.667   4.282  16.163  0.00  0.00    +0.000 A 
ATOM      4  C   UNL     1       6.551   5.405  15.725  0.00  0.00    +0.000 A 
ATOM      5  O   UNL     1       7.606   5.221  15.128  0.00  0.00    +0.000 OA
ATOM      6  N   UNL     1       6.094   6.671  16.023  0.00  0.00    +0.000 N 
ATOM      7  N   UNL     1       5.021   6.968  16.810  0.00  0.00    +0.000 NA
ATOM      8  H   UNL     1       6.683   7.447  15.738  0.00  0.00    +0.000 HD
ENDROOT
BRANCH   3   9
ATOM      9  O   UNL     1       6.036   2.987  15.839  0.00  0.00    +0.000 OA
ATOM     10  H   UNL     1       6.620   2.634  16.530  0.00  0.00    +0.000 HD
ENDBRANCH   3   9
BRANCH   1  11
ATOM     11  C   UNL     1       3.168   6.245  18.202  0.00  0.00    +0.000 C 
BRANCH  11  17
ATOM     12  C   UNL     1       2.171   2.944  21.881  0.00  0.00    +0.000 C 
ATOM     13  C   UNL     1       1.955   3.418  20.475  0.00  0.00    +0.000 A 
ATOM     14  C   UNL     1       1.124   2.712  19.600  0.00  0.00    +0.000 A 
ATOM     15  C   UNL     1       0.948   3.150  18.288  0.00  0.00    +0.000 A 
ATOM     16  C   UNL     1       1.614   4.287  17.833  0.00  0.00    +0.000 A 
ATOM     17  C   UNL     1       2.463   5.003  18.688  0.00  0.00    +0.000 A 
ATOM     18  C   UNL     1       2.611   4.570  20.014  0.00  0.00    +0.000 A 
ENDBRANCH  11  17
ENDBRANCH   1  11
TORSDOF 3
ENDMDL
MODEL 9
REMARK VINA RESULT:      -7.1      1.199      1.336
REMARK  Name = 
REMARK  4 active torsions:
REMARK  status: ('A' for Active; 'I' for Inactive)
REMARK    1  A    between atoms: C_1  and  C_2
REMARK    2  A    between atoms: C_6  and  C_7
REMARK    3  A    between atoms: C_7  and  C_8
REMARK    4  A    between atoms: C_10  and  O_11
REMARK                            x       y       z     vdW  Elec       q    Type
REMARK                         _______ _______ _______ _____ _____    ______ ____
ROOT
ATOM      1  C   UNL     1       4.430   5.554  17.294  0.00  0.00    +0.000 A 
ATOM      2  C   UNL     1       5.562   6.498  17.473  0.00  0.00    +0.000 A 
ATOM      3  C   UNL     1       6.674   6.279  16.759  0.00  0.00    +0.000 A 
ATOM      4  C   UNL     1       6.768   5.050  15.912  0.00  0.00    +0.000 A 
ATOM      5  O   UNL     1       7.743   4.805  15.210  0.00  0.00    +0.000 OA
ATOM      6  N   UNL     1       5.688   4.197  15.983  0.00  0.00    +0.000 N 
ATOM      7  N   UNL     1       4.505   4.456  16.609  0.00  0.00    +0.000 NA
ATOM      8  H   UNL     1       5.730   3.359  15.411  0.00  0.00    +0.000 HD
ENDROOT
BRANCH   3   9
ATOM      9  O   UNL     1       7.752   7.147  16.783  0.00  0.00    +0.000 OA
ATOM     10  H   UNL     1       8.548   6.669  17.067  0.00  0.00    +0.000 HD
ENDBRANCH   3   9
BRANCH   1  11
ATOM     11  C   UNL     1       3.093   5.945  17.906  0.00  0.00    +0.000 C 
BRANCH  11  17
ATOM     12  C   UNL     1       2.177   3.149  22.002  0.00  0.00    +0.000 C 
ATOM     13  C   UNL     1       1.898   3.466  20.563  0.00  0.00    +0.000 A 
ATOM     14  C   UNL     1       0.987   2.705  19.825  0.00  0.00    +0.000 A 
ATOM     15  C   UNL     1       0.751   2.995  18.482  0.00  0.00    +0.000 A 
ATOM     16  C   UNL     1       1.437   4.037  17.859  0.00  0.00    +0.000 A 
ATOM     17  C   UNL     1       2.365   4.805  18.574  0.00  0.00    +0.000 A 
ATOM     18  C   UNL     1       2.574   4.522  19.933  0.00  0.00    +0.000 A 
ENDBRANCH  11  17
ENDBRANCH   1  11
TORSDOF 3
ENDMDL
