MODEL 1
REMARK VINA RESULT:      -7.8      0.000      0.000
REMARK  Name = 
REMARK  4 active torsions:
REMARK  status: ('A' for Active; 'I' for Inactive)
REMARK    1  A    between atoms: C_1  and  O_2
REMARK    2  A    between atoms: O_2  and  C_3
REMARK    3  A    between atoms: C_6  and  C_7
REMARK    4  A    between atoms: C_7  and  C_8
REMARK                            x       y       z     vdW  Elec       q    Type
REMARK                         _______ _______ _______ _____ _____    ______ ____
ROOT
ATOM      1  C   UNL     1       2.922   6.941  18.768  0.00  0.00    +0.000 C 
ATOM      2  O   UNL     1       3.453   7.858  18.136  0.00  0.00    +0.000 OA
ATOM      3  N   UNL     1       3.605   5.723  19.061  0.00  0.00    +0.000 N 
ATOM      4  C   UNL     1       2.899   4.605  19.597  0.00  0.00    +0.000 A 
ATOM      5  C   UNL     1       2.390   4.703  20.905  0.00  0.00    +0.000 A 
ATOM      6  C   UNL     1       1.600   3.686  21.439  0.00  0.00    +0.000 A 
ATOM      7  C   UNL     1       1.350   2.542  20.690  0.00  0.00    +0.000 A 
ATOM      8  C   UNL     1       1.887   2.415  19.405  0.00  0.00    +0.000 A 
ATOM      9  C   UNL     1       2.658   3.446  18.845  0.00  0.00    +0.000 A 
ATOM     10  S   UNL     1       3.175   3.305  17.143  0.00  0.00    +0.000 S 
ATOM     11  C   UNL     1       4.458   4.535  17.088  0.00  0.00    +0.000 A 
ATOM     12  C   UNL     1       5.252   4.662  15.941  0.00  0.00    +0.000 A 
ATOM     13  C   UNL     1       6.297   5.591  15.897  0.00  0.00    +0.000 A 
ATOM     14  C   UNL     1       6.596   6.349  17.015  0.00  0.00    +0.000 A 
ATOM     15 CL   UNL     1       7.931   7.442  16.994  0.00  0.00    +0.000 Cl
ATOM     16  C   UNL     1       5.791   6.275  18.148  0.00  0.00    +0.000 A 
ATOM     17  C   UNL     1       4.665   5.434  18.143  0.00  0.00    +0.000 A 
ENDROOT
BRANCH   1  18
ATOM     18  C   UNL     1       1.473   7.060  19.232  0.00  0.00    +0.000 C 
BRANCH  18  22
ATOM     19  C   UNL     1       0.505  10.556  21.572  0.00  0.00    +0.000 A 
ATOM     20  C   UNL     1       0.475  10.613  20.177  0.00  0.00    +0.000 A 
ATOM     21  C   UNL     1       0.806   9.494  19.411  0.00  0.00    +0.000 A 
ATOM     22  C   UNL     1       1.167   8.297  20.041  0.00  0.00    +0.000 A 
ATOM     23  C   UNL     1       1.247   8.258  21.438  0.00  0.00    +0.000 A 
ATOM     24  C   UNL     1       0.914   9.381  22.201  0.00  0.00    +0.000 A 
BRANCH  19  26
ATOM     25  C   UNL     1      -1.174  11.746  22.727  0.00  0.00    +0.000 C 
ATOM     26  O   UNL     1       0.158  11.710  22.220  0.00  0.00    +0.000 OA
ENDBRANCH  19  26
ENDBRANCH  18  22
ENDBRANCH   1  18
TORSDOF 3
ENDMDL
MODEL 2
REMARK VINA RESULT:      -7.6      2.701      7.129
REMARK  Name = 
REMARK  4 active torsions:
REMARK  status: ('A' for Active; 'I' for Inactive)
REMARK    1  A    between atoms: C_1  and  O_2
REMARK    2  A    between atoms: O_2  and  C_3
REMARK    3  A    between atoms: C_6  and  C_7
REMARK    4  A    between atoms: C_7  and  C_8
REMARK                            x       y       z     vdW  Elec       q    Type
REMARK                         _______ _______ _______ _____ _____    ______ ____
ROOT
ATOM      1  C   UNL     1       4.178   6.149  17.857  0.00  0.00    +0.000 C 
ATOM      2  O   UNL     1       4.552   7.323  17.789  0.00  0.00    +0.000 OA
ATOM      3  N   UNL     1       2.814   5.795  18.082  0.00  0.00    +0.000 N 
ATOM      4  C   UNL     1       2.451   4.447  18.372  0.00  0.00    +0.000 A 
ATOM      5  C   UNL     1       2.593   3.485  17.355  0.00  0.00    +0.000 A 
ATOM      6  C   UNL     1       2.358   2.135  17.614  0.00  0.00    +0.000 A 
ATOM      7  C   UNL     1       1.934   1.739  18.876  0.00  0.00    +0.000 A 
ATOM      8  C   UNL     1       1.747   2.692  19.883  0.00  0.00    +0.000 A 
ATOM      9  C   UNL     1       2.011   4.051  19.643  0.00  0.00    +0.000 A 
ATOM     10  S   UNL     1       1.919   5.198  21.006  0.00  0.00    +0.000 S 
ATOM     11  C   UNL     1       1.842   6.743  20.129  0.00  0.00    +0.000 A 
ATOM     12  C   UNL     1       1.612   7.932  20.833  0.00  0.00    +0.000 A 
ATOM     13  C   UNL     1       1.501   9.151  20.154  0.00  0.00    +0.000 A 
ATOM     14  C   UNL     1       1.552   9.180  18.772  0.00  0.00    +0.000 A 
ATOM     15 CL   UNL     1       1.339  10.669  17.925  0.00  0.00    +0.000 Cl
ATOM     16  C   UNL     1       1.828   8.020  18.056  0.00  0.00    +0.000 A 
ATOM     17  C   UNL     1       2.067   6.820  18.748  0.00  0.00    +0.000 A 
ENDROOT
BRANCH   1  18
ATOM     18  C   UNL     1       5.187   5.009  17.743  0.00  0.00    +0.000 C 
BRANCH  18  22
ATOM     19  C   UNL     1       6.798   4.525  13.767  0.00  0.00    +0.000 A 
ATOM     20  C   UNL     1       5.546   3.999  14.087  0.00  0.00    +0.000 A 
ATOM     21  C   UNL     1       5.024   4.132  15.375  0.00  0.00    +0.000 A 
ATOM     22  C   UNL     1       5.757   4.805  16.360  0.00  0.00    +0.000 A 
ATOM     23  C   UNL     1       7.035   5.286  16.051  0.00  0.00    +0.000 A 
ATOM     24  C   UNL     1       7.553   5.151  14.760  0.00  0.00    +0.000 A 
BRANCH  19  26
ATOM     25  C   UNL     1       6.627   3.222  11.807  0.00  0.00    +0.000 C 
ATOM     26  O   UNL     1       7.207   4.340  12.475  0.00  0.00    +0.000 OA
ENDBRANCH  19  26
ENDBRANCH  18  22
ENDBRANCH   1  18
TORSDOF 3
ENDMDL
MODEL 3
REMARK VINA RESULT:      -7.6      0.521      1.080
REMARK  Name = 
REMARK  4 active torsions:
REMARK  status: ('A' for Active; 'I' for Inactive)
REMARK    1  A    between atoms: C_1  and  O_2
REMARK    2  A    between atoms: O_2  and  C_3
REMARK    3  A    between atoms: C_6  and  C_7
REMARK    4  A    between atoms: C_7  and  C_8
REMARK                            x       y       z     vdW  Elec       q    Type
REMARK                         _______ _______ _______ _____ _____    ______ ____
ROOT
ATOM      1  C   UNL     1       2.991   6.998  18.637  0.00  0.00    +0.000 C 
ATOM      2  O   UNL     1       3.548   7.902  18.010  0.00  0.00    +0.000 OA
ATOM      3  N   UNL     1       3.662   5.789  18.988  0.00  0.00    +0.000 N 
ATOM      4  C   UNL     1       2.935   4.680  19.516  0.00  0.00    +0.000 A 
ATOM      5  C   UNL     1       2.366   4.806  20.797  0.00  0.00    +0.000 A 
ATOM      6  C   UNL     1       1.555   3.798  21.317  0.00  0.00    +0.000 A 
ATOM      7  C   UNL     1       1.342   2.638  20.583  0.00  0.00    +0.000 A 
ATOM      8  C   UNL     1       1.938   2.483  19.327  0.00  0.00    +0.000 A 
ATOM      9  C   UNL     1       2.732   3.504  18.780  0.00  0.00    +0.000 A 
ATOM     10  S   UNL     1       3.327   3.327  17.107  0.00  0.00    +0.000 S 
ATOM     11  C   UNL     1       4.609   4.560  17.084  0.00  0.00    +0.000 A 
ATOM     12  C   UNL     1       5.454   4.664  15.972  0.00  0.00    +0.000 A 
ATOM     13  C   UNL     1       6.498   5.595  15.955  0.00  0.00    +0.000 A 
ATOM     14  C   UNL     1       6.744   6.379  17.069  0.00  0.00    +0.000 A 
ATOM     15 CL   UNL     1       8.076   7.476  17.084  0.00  0.00    +0.000 Cl
ATOM     16  C   UNL     1       5.887   6.328  18.164  0.00  0.00    +0.000 A 
ATOM     17  C   UNL     1       4.764   5.483  18.126  0.00  0.00    +0.000 A 
ENDROOT
BRANCH   1  18
ATOM     18  C   UNL     1       1.522   7.122  19.031  0.00  0.00    +0.000 C 
BRANCH  18  22
ATOM     19  C   UNL     1       0.634  10.728  21.232  0.00  0.00    +0.000 A 
ATOM     20  C   UNL     1       0.932   9.545  21.910  0.00  0.00    +0.000 A 
ATOM     21  C   UNL     1       1.200   8.369  21.208  0.00  0.00    +0.000 A 
ATOM     22  C   UNL     1       1.179   8.369  19.809  0.00  0.00    +0.000 A 
ATOM     23  C   UNL     1       0.829   9.544  19.132  0.00  0.00    +0.000 A 
ATOM     24  C   UNL     1       0.561  10.719  19.839  0.00  0.00    +0.000 A 
BRANCH  19  26
ATOM     25  C   UNL     1       0.308  13.063  21.328  0.00  0.00    +0.000 C 
ATOM     26  O   UNL     1       0.393  11.820  22.020  0.00  0.00    +0.000 OA
ENDBRANCH  19  26
ENDBRANCH  18  22
ENDBRANCH   1  18
TORSDOF 3
ENDMDL
MODEL 4
REMARK VINA RESULT:      -7.4      1.033      1.120
REMARK  Name = 
REMARK  4 active torsions:
REMARK  status: ('A' for Active; 'I' for Inactive)
REMARK    1  A    between atoms: C_1  and  O_2
REMARK    2  A    between atoms: O_2  and  C_3
REMARK    3  A    between atoms: C_6  and  C_7
REMARK    4  A    between atoms: C_7  and  C_8
REMARK                            x       y       z     vdW  Elec       q    Type
REMARK                         _______ _______ _______ _____ _____    ______ ____
ROOT
ATOM      1  C   UNL     1       3.250   6.998  18.325  0.00  0.00    +0.000 C 
ATOM      2  O   UNL     1       4.058   7.843  17.932  0.00  0.00    +0.000 OA
ATOM      3  N   UNL     1       3.661   5.746  18.873  0.00  0.00    +0.000 N 
ATOM      4  C   UNL     1       2.710   4.710  19.113  0.00  0.00    +0.000 A 
ATOM      5  C   UNL     1       1.753   4.905  20.126  0.00  0.00    +0.000 A 
ATOM      6  C   UNL     1       0.734   3.976  20.331  0.00  0.00    +0.000 A 
ATOM      7  C   UNL     1       0.688   2.822  19.558  0.00  0.00    +0.000 A 
ATOM      8  C   UNL     1       1.660   2.596  18.578  0.00  0.00    +0.000 A 
ATOM      9  C   UNL     1       2.673   3.540  18.341  0.00  0.00    +0.000 A 
ATOM     10  S   UNL     1       3.782   3.283  16.968  0.00  0.00    +0.000 S 
ATOM     11  C   UNL     1       5.092   4.408  17.391  0.00  0.00    +0.000 A 
ATOM     12  C   UNL     1       6.270   4.423  16.632  0.00  0.00    +0.000 A 
ATOM     13  C   UNL     1       7.330   5.267  16.979  0.00  0.00    +0.000 A 
ATOM     14  C   UNL     1       7.247   6.050  18.117  0.00  0.00    +0.000 A 
ATOM     15 CL   UNL     1       8.580   7.038  18.592  0.00  0.00    +0.000 Cl
ATOM     16  C   UNL     1       6.069   6.089  18.856  0.00  0.00    +0.000 A 
ATOM     17  C   UNL     1       4.961   5.336  18.433  0.00  0.00    +0.000 A 
ENDROOT
BRANCH   1  18
ATOM     18  C   UNL     1       1.749   7.247  18.198  0.00  0.00    +0.000 C 
BRANCH  18  22
ATOM     19  C   UNL     1       0.255  10.795  20.152  0.00  0.00    +0.000 A 
ATOM     20  C   UNL     1       0.293  10.723  18.758  0.00  0.00    +0.000 A 
ATOM     21  C   UNL     1       0.794   9.588  18.117  0.00  0.00    +0.000 A 
ATOM     22  C   UNL     1       1.257   8.505  18.872  0.00  0.00    +0.000 A 
ATOM     23  C   UNL     1       1.266   8.601  20.269  0.00  0.00    +0.000 A 
ATOM     24  C   UNL     1       0.764   9.738  20.907  0.00  0.00    +0.000 A 
BRANCH  19  26
ATOM     25  C   UNL     1      -0.751  11.852  22.006  0.00  0.00    +0.000 C 
ATOM     26  O   UNL     1      -0.259  11.951  20.672  0.00  0.00    +0.000 OA
ENDBRANCH  19  26
ENDBRANCH  18  22
ENDBRANCH   1  18
TORSDOF 3
ENDMDL
MODEL 5
REMARK VINA RESULT:      -7.0      5.648      7.814
REMARK  Name = 
REMARK  4 active torsions:
REMARK  status: ('A' for Active; 'I' for Inactive)
REMARK    1  A    between atoms: C_1  and  O_2
REMARK    2  A    between atoms: O_2  and  C_3
REMARK    3  A    between atoms: C_6  and  C_7
REMARK    4  A    between atoms: C_7  and  C_8
REMARK                            x       y       z     vdW  Elec       q    Type
REMARK                         _______ _______ _______ _____ _____    ______ ____
ROOT
ATOM      1  C   UNL     1      -1.096  13.239  20.214  0.00  0.00    +0.000 C 
ATOM      2  O   UNL     1      -1.154  14.389  19.774  0.00  0.00    +0.000 OA
ATOM      3  N   UNL     1       0.129  12.645  20.640  0.00  0.00    +0.000 N 
ATOM      4  C   UNL     1       0.199  11.251  20.936  0.00  0.00    +0.000 A 
ATOM      5  C   UNL     1      -0.492  10.774  22.065  0.00  0.00    +0.000 A 
ATOM      6  C   UNL     1      -0.550   9.409  22.340  0.00  0.00    +0.000 A 
ATOM      7  C   UNL     1       0.119   8.511  21.517  0.00  0.00    +0.000 A 
ATOM      8  C   UNL     1       0.846   8.978  20.416  0.00  0.00    +0.000 A 
ATOM      9  C   UNL     1       0.885  10.348  20.112  0.00  0.00    +0.000 A 
ATOM     10  S   UNL     1       1.683  10.871  18.604  0.00  0.00    +0.000 S 
ATOM     11  C   UNL     1       1.890  12.607  18.928  0.00  0.00    +0.000 A 
ATOM     12  C   UNL     1       2.625  13.399  18.036  0.00  0.00    +0.000 A 
ATOM     13  C   UNL     1       2.838  14.757  18.299  0.00  0.00    +0.000 A 
ATOM     14  C   UNL     1       2.379  15.313  19.479  0.00  0.00    +0.000 A 
ATOM     15 CL   UNL     1       2.704  16.968  19.845  0.00  0.00    +0.000 Cl
ATOM     16  C   UNL     1       1.605  14.559  20.355  0.00  0.00    +0.000 A 
ATOM     17  C   UNL     1       1.283  13.230  20.027  0.00  0.00    +0.000 A 
ENDROOT
BRANCH   1  18
ATOM     18  C   UNL     1      -2.353  12.374  20.282  0.00  0.00    +0.000 C 
BRANCH  18  22
ATOM     19  C   UNL     1      -3.790  10.834  16.514  0.00  0.00    +0.000 A 
ATOM     20  C   UNL     1      -2.422  10.863  16.785  0.00  0.00    +0.000 A 
ATOM     21  C   UNL     1      -1.945  11.379  17.992  0.00  0.00    +0.000 A 
ATOM     22  C   UNL     1      -2.843  11.866  18.948  0.00  0.00    +0.000 A 
ATOM     23  C   UNL     1      -4.212  11.883  18.652  0.00  0.00    +0.000 A 
ATOM     24  C   UNL     1      -4.685  11.366  17.443  0.00  0.00    +0.000 A 
BRANCH  19  26
ATOM     25  C   UNL     1      -3.070  10.113  14.385  0.00  0.00    +0.000 C 
ATOM     26  O   UNL     1      -4.144  10.304  15.303  0.00  0.00    +0.000 OA
ENDBRANCH  19  26
ENDBRANCH  18  22
ENDBRANCH   1  18
TORSDOF 3
ENDMDL
MODEL 6
REMARK VINA RESULT:      -6.9      5.512      8.678
REMARK  Name = 
REMARK  4 active torsions:
REMARK  status: ('A' for Active; 'I' for Inactive)
REMARK    1  A    between atoms: C_1  and  O_2
REMARK    2  A    between atoms: O_2  and  C_3
REMARK    3  A    between atoms: C_6  and  C_7
REMARK    4  A    between atoms: C_7  and  C_8
REMARK                            x       y       z     vdW  Elec       q    Type
REMARK                         _______ _______ _______ _____ _____    ______ ____
ROOT
ATOM      1  C   UNL     1      -1.411  10.969  18.727  0.00  0.00    +0.000 C 
ATOM      2  O   UNL     1      -1.520   9.742  18.676  0.00  0.00    +0.000 OA
ATOM      3  N   UNL     1      -0.393  11.613  19.491  0.00  0.00    +0.000 N 
ATOM      4  C   UNL     1      -0.426  13.023  19.705  0.00  0.00    +0.000 A 
ATOM      5  C   UNL     1      -0.214  13.870  18.602  0.00  0.00    +0.000 A 
ATOM      6  C   UNL     1      -0.343  15.252  18.730  0.00  0.00    +0.000 A 
ATOM      7  C   UNL     1      -0.639  15.804  19.971  0.00  0.00    +0.000 A 
ATOM      8  C   UNL     1      -0.808  14.975  21.085  0.00  0.00    +0.000 A 
ATOM      9  C   UNL     1      -0.711  13.579  20.961  0.00  0.00    +0.000 A 
ATOM     10  S   UNL     1      -1.103  12.562  22.373  0.00  0.00    +0.000 S 
ATOM     11  C   UNL     1      -0.379  11.016  21.874  0.00  0.00    +0.000 A 
ATOM     12  C   UNL     1      -0.330   9.947  22.777  0.00  0.00    +0.000 A 
ATOM     13  C   UNL     1       0.278   8.739  22.418  0.00  0.00    +0.000 A 
ATOM     14  C   UNL     1       0.897   8.615  21.187  0.00  0.00    +0.000 A 
ATOM     15 CL   UNL     1       1.715   7.154  20.767  0.00  0.00    +0.000 Cl
ATOM     16  C   UNL     1       0.818   9.646  20.256  0.00  0.00    +0.000 A 
ATOM     17  C   UNL     1       0.096  10.810  20.571  0.00  0.00    +0.000 A 
ENDROOT
BRANCH   1  18
ATOM     18  C   UNL     1      -2.407  11.865  17.994  0.00  0.00    +0.000 C 
BRANCH  18  22
ATOM     19  C   UNL     1      -6.412  11.636  19.588  0.00  0.00    +0.000 A 
ATOM     20  C   UNL     1      -6.103  11.022  18.373  0.00  0.00    +0.000 A 
ATOM     21  C   UNL     1      -4.816  11.107  17.839  0.00  0.00    +0.000 A 
ATOM     22  C   UNL     1      -3.819  11.809  18.526  0.00  0.00    +0.000 A 
ATOM     23  C   UNL     1      -4.145  12.468  19.718  0.00  0.00    +0.000 A 
ATOM     24  C   UNL     1      -5.434  12.379  20.249  0.00  0.00    +0.000 A 
BRANCH  19  26
ATOM     25  C   UNL     1      -7.917  10.408  20.929  0.00  0.00    +0.000 C 
ATOM     26  O   UNL     1      -7.702  11.484  20.018  0.00  0.00    +0.000 OA
ENDBRANCH  19  26
ENDBRANCH  18  22
ENDBRANCH   1  18
TORSDOF 3
ENDMDL
MODEL 7
REMARK VINA RESULT:      -6.9      4.440      8.575
REMARK  Name = 
REMARK  4 active torsions:
REMARK  status: ('A' for Active; 'I' for Inactive)
REMARK    1  A    between atoms: C_1  and  O_2
REMARK    2  A    between atoms: O_2  and  C_3
REMARK    3  A    between atoms: C_6  and  C_7
REMARK    4  A    between atoms: C_7  and  C_8
REMARK                            x       y       z     vdW  Elec       q    Type
REMARK                         _______ _______ _______ _____ _____    ______ ____
ROOT
ATOM      1  C   UNL     1       0.476  11.273  20.337  0.00  0.00    +0.000 C 
ATOM      2  O   UNL     1       1.393  11.733  21.021  0.00  0.00    +0.000 OA
ATOM      3  N   UNL     1      -0.282  12.079  19.436  0.00  0.00    +0.000 N 
ATOM      4  C   UNL     1      -1.469  11.572  18.828  0.00  0.00    +0.000 A 
ATOM      5  C   UNL     1      -1.343  10.534  17.886  0.00  0.00    +0.000 A 
ATOM      6  C   UNL     1      -2.474   9.926  17.342  0.00  0.00    +0.000 A 
ATOM      7  C   UNL     1      -3.739  10.379  17.698  0.00  0.00    +0.000 A 
ATOM      8  C   UNL     1      -3.875  11.439  18.601  0.00  0.00    +0.000 A 
ATOM      9  C   UNL     1      -2.744  12.039  19.178  0.00  0.00    +0.000 A 
ATOM     10  S   UNL     1      -2.978  13.269  20.448  0.00  0.00    +0.000 S 
ATOM     11  C   UNL     1      -1.367  14.022  20.476  0.00  0.00    +0.000 A 
ATOM     12  C   UNL     1      -1.146  15.164  21.256  0.00  0.00    +0.000 A 
ATOM     13  C   UNL     1       0.102  15.798  21.253  0.00  0.00    +0.000 A 
ATOM     14  C   UNL     1       1.110  15.336  20.426  0.00  0.00    +0.000 A 
ATOM     15 CL   UNL     1       2.627  16.157  20.360  0.00  0.00    +0.000 Cl
ATOM     16  C   UNL     1       0.929  14.175  19.681  0.00  0.00    +0.000 A 
ATOM     17  C   UNL     1      -0.282  13.468  19.784  0.00  0.00    +0.000 A 
ENDROOT
BRANCH   1  18
ATOM     18  C   UNL     1       0.080   9.804  20.463  0.00  0.00    +0.000 C 
BRANCH  18  22
ATOM     19  C   UNL     1       2.837   6.981  18.712  0.00  0.00    +0.000 A 
ATOM     20  C   UNL     1       2.332   6.767  19.996  0.00  0.00    +0.000 A 
ATOM     21  C   UNL     1       1.457   7.684  20.580  0.00  0.00    +0.000 A 
ATOM     22  C   UNL     1       1.070   8.829  19.873  0.00  0.00    +0.000 A 
ATOM     23  C   UNL     1       1.618   9.067  18.606  0.00  0.00    +0.000 A 
ATOM     24  C   UNL     1       2.494   8.146  18.026  0.00  0.00    +0.000 A 
BRANCH  19  26
ATOM     25  C   UNL     1       4.510   5.396  19.221  0.00  0.00    +0.000 C 
ATOM     26  O   UNL     1       3.683   6.015  18.239  0.00  0.00    +0.000 OA
ENDBRANCH  19  26
ENDBRANCH  18  22
ENDBRANCH   1  18
TORSDOF 3
ENDMDL
MODEL 8
REMARK VINA RESULT:      -6.8      6.329      8.365
REMARK  Name = 
REMARK  4 active torsions:
REMARK  status: ('A' for Active; 'I' for Inactive)
REMARK    1  A    between atoms: C_1  and  O_2
REMARK    2  A    between atoms: O_2  and  C_3
REMARK    3  A    between atoms: C_6  and  C_7
REMARK    4  A    between atoms: C_7  and  C_8
REMARK                            x       y       z     vdW  Elec       q    Type
REMARK                         _______ _______ _______ _____ _____    ______ ____
ROOT
ATOM      1  C   UNL     1      -1.446  13.770  20.607  0.00  0.00    +0.000 C 
ATOM      2  O   UNL     1      -1.528  14.878  20.071  0.00  0.00    +0.000 OA
ATOM      3  N   UNL     1      -0.223  13.273  21.149  0.00  0.00    +0.000 N 
ATOM      4  C   UNL     1      -0.109  11.912  21.560  0.00  0.00    +0.000 A 
ATOM      5  C   UNL     1      -0.845  11.492  22.683  0.00  0.00    +0.000 A 
ATOM      6  C   UNL     1      -0.858  10.151  23.065  0.00  0.00    +0.000 A 
ATOM      7  C   UNL     1      -0.101   9.226  22.357  0.00  0.00    +0.000 A 
ATOM      8  C   UNL     1       0.669   9.640  21.265  0.00  0.00    +0.000 A 
ATOM      9  C   UNL     1       0.666  10.982  20.853  0.00  0.00    +0.000 A 
ATOM     10  S   UNL     1       1.529  11.423  19.355  0.00  0.00    +0.000 S 
ATOM     11  C   UNL     1       1.638  13.187  19.547  0.00  0.00    +0.000 A 
ATOM     12  C   UNL     1       2.389  13.942  18.637  0.00  0.00    +0.000 A 
ATOM     13  C   UNL     1       2.526  15.325  18.800  0.00  0.00    +0.000 A 
ATOM     14  C   UNL     1       1.971  15.950  19.902  0.00  0.00    +0.000 A 
ATOM     15 CL   UNL     1       2.200  17.642  20.150  0.00  0.00    +0.000 Cl
ATOM     16  C   UNL     1       1.180  15.229  20.792  0.00  0.00    +0.000 A 
ATOM     17  C   UNL     1       0.939  13.865  20.555  0.00  0.00    +0.000 A 
ENDROOT
BRANCH   1  18
ATOM     18  C   UNL     1      -2.664  12.853  20.673  0.00  0.00    +0.000 C 
BRANCH  18  22
ATOM     19  C   UNL     1      -3.749  11.133  16.865  0.00  0.00    +0.000 A 
ATOM     20  C   UNL     1      -4.738  11.494  17.781  0.00  0.00    +0.000 A 
ATOM     21  C   UNL     1      -4.398  12.032  19.024  0.00  0.00    +0.000 A 
ATOM     22  C   UNL     1      -3.052  12.220  19.359  0.00  0.00    +0.000 A 
ATOM     23  C   UNL     1      -2.060  11.808  18.459  0.00  0.00    +0.000 A 
ATOM     24  C   UNL     1      -2.406  11.271  17.217  0.00  0.00    +0.000 A 
BRANCH  19  26
ATOM     25  C   UNL     1      -3.181  10.290  14.735  0.00  0.00    +0.000 C 
ATOM     26  O   UNL     1      -4.197  10.620  15.679  0.00  0.00    +0.000 OA
ENDBRANCH  19  26
ENDBRANCH  18  22
ENDBRANCH   1  18
TORSDOF 3
ENDMDL
MODEL 9
REMARK VINA RESULT:      -6.8      4.497      8.470
REMARK  Name = 
REMARK  4 active torsions:
REMARK  status: ('A' for Active; 'I' for Inactive)
REMARK    1  A    between atoms: C_1  and  O_2
REMARK    2  A    between atoms: O_2  and  C_3
REMARK    3  A    between atoms: C_6  and  C_7
REMARK    4  A    between atoms: C_7  and  C_8
REMARK                            x       y       z     vdW  Elec       q    Type
REMARK                         _______ _______ _______ _____ _____    ______ ____
ROOT
ATOM      1  C   UNL     1       0.639  11.315  19.712  0.00  0.00    +0.000 C 
ATOM      2  O   UNL     1       1.656  11.797  20.217  0.00  0.00    +0.000 OA
ATOM      3  N   UNL     1      -0.253  12.085  18.908  0.00  0.00    +0.000 N 
ATOM      4  C   UNL     1      -1.522  11.562  18.524  0.00  0.00    +0.000 A 
ATOM      5  C   UNL     1      -1.553  10.480  17.624  0.00  0.00    +0.000 A 
ATOM      6  C   UNL     1      -2.757   9.858  17.298  0.00  0.00    +0.000 A 
ATOM      7  C   UNL     1      -3.947  10.339  17.831  0.00  0.00    +0.000 A 
ATOM      8  C   UNL     1      -3.934  11.442  18.693  0.00  0.00    +0.000 A 
ATOM      9  C   UNL     1      -2.723  12.056  19.052  0.00  0.00    +0.000 A 
ATOM     10  S   UNL     1      -2.748  13.347  20.283  0.00  0.00    +0.000 S 
ATOM     11  C   UNL     1      -1.152  14.085  20.016  0.00  0.00    +0.000 A 
ATOM     12  C   UNL     1      -0.806  15.260  20.695  0.00  0.00    +0.000 A 
ATOM     13  C   UNL     1       0.426  15.881  20.461  0.00  0.00    +0.000 A 
ATOM     14  C   UNL     1       1.287  15.371  19.506  0.00  0.00    +0.000 A 
ATOM     15 CL   UNL     1       2.775  16.174  19.158  0.00  0.00    +0.000 Cl
ATOM     16  C   UNL     1       0.986  14.179  18.856  0.00  0.00    +0.000 A 
ATOM     17  C   UNL     1      -0.193  13.489  19.185  0.00  0.00    +0.000 A 
ENDROOT
BRANCH   1  18
ATOM     18  C   UNL     1       0.266   9.857  19.970  0.00  0.00    +0.000 C 
BRANCH  18  22
ATOM     19  C   UNL     1       3.132   7.011  18.447  0.00  0.00    +0.000 A 
ATOM     20  C   UNL     1       2.691   8.063  17.643  0.00  0.00    +0.000 A 
ATOM     21  C   UNL     1       1.749   8.977  18.118  0.00  0.00    +0.000 A 
ATOM     22  C   UNL     1       1.242   8.847  19.416  0.00  0.00    +0.000 A 
ATOM     23  C   UNL     1       1.647   7.761  20.202  0.00  0.00    +0.000 A 
ATOM     24  C   UNL     1       2.591   6.849  19.722  0.00  0.00    +0.000 A 
BRANCH  19  26
ATOM     25  C   UNL     1       4.866   5.449  18.801  0.00  0.00    +0.000 C 
ATOM     26  O   UNL     1       4.059   6.179  17.880  0.00  0.00    +0.000 OA
ENDBRANCH  19  26
ENDBRANCH  18  22
ENDBRANCH   1  18
TORSDOF 3
ENDMDL
