MODEL 1
REMARK VINA RESULT:      -7.8      0.000      0.000
REMARK  Name = 
REMARK  11 active torsions:
REMARK  status: ('A' for Active; 'I' for Inactive)
REMARK    1  A    between atoms: C_1  and  O_2
REMARK    2  A    between atoms: O_2  and  C_3
REMARK    3  A    between atoms: C_8  and  C_9
REMARK    4  A    between atoms: C_10  and  C_11
REMARK    5  A    between atoms: C_11  and  O_13
REMARK    6  A    between atoms: O_13  and  C_14
REMARK    7  A    between atoms: C_14  and  C_15
REMARK    8  A    between atoms: N_17  and  C_18
REMARK    9  A    between atoms: C_19  and  C_20
REMARK   10  A    between atoms: N_22  and  C_23
REMARK   11  A    between atoms: C_29  and  C_30
REMARK                            x       y       z     vdW  Elec       q    Type
REMARK                         _______ _______ _______ _____ _____    ______ ____
ROOT
ATOM      1  C   UNL     1       1.766   5.172  20.650  0.00  0.00    +0.000 C 
ATOM      2  O   UNL     1       0.699   4.980  20.075  0.00  0.00    +0.000 OA
ATOM      3  N   UNL     1       2.554   6.313  20.520  0.00  0.00    +0.000 N 
ATOM      4  H   UNL     1       3.549   6.199  20.657  0.00  0.00    +0.000 HD
ENDROOT
BRANCH   3   5
ATOM      5  C   UNL     1       2.167   7.376  19.717  0.00  0.00    +0.000 A 
ATOM      6  C   UNL     1       2.543   7.732  18.402  0.00  0.00    +0.000 A 
ATOM      7  C   UNL     1       3.382   6.994  17.423  0.00  0.00    +0.000 C 
ATOM      8  N   UNL     1       1.995   8.897  18.040  0.00  0.00    +0.000 NA
ATOM      9  N   UNL     1       1.251   9.297  19.102  0.00  0.00    +0.000 N 
ATOM     10  C   UNL     1       1.319   8.380  20.149  0.00  0.00    +0.000 A 
ATOM     11  C   UNL     1       0.818   8.598  21.534  0.00  0.00    +0.000 C 
BRANCH   9  12
ATOM     12  C   UNL     1       0.643  10.586  19.079  0.00  0.00    +0.000 A 
ATOM     13  C   UNL     1       1.404  11.760  19.086  0.00  0.00    +0.000 A 
ATOM     14  C   UNL     1       0.792  12.991  18.841  0.00  0.00    +0.000 A 
ATOM     15  C   UNL     1      -0.583  13.060  18.627  0.00  0.00    +0.000 A 
ATOM     16  C   UNL     1      -1.359  11.905  18.715  0.00  0.00    +0.000 A 
ATOM     17  C   UNL     1      -0.753  10.671  18.960  0.00  0.00    +0.000 A 
ENDBRANCH   9  12
ENDBRANCH   3   5
BRANCH   1  18
ATOM     18  C   UNL     1       2.425   4.097  21.524  0.00  0.00    +0.000 C 
BRANCH  18  19
ATOM     19  O   UNL     1       2.180   2.756  21.119  0.00  0.00    +0.000 OA
BRANCH  19  20
ATOM     20  C   UNL     1       2.724   2.443  19.909  0.00  0.00    +0.000 C 
ATOM     21  O   UNL     1       2.306   1.602  19.127  0.00  0.00    +0.000 OA
BRANCH  20  23
ATOM     22  C   UNL     1       4.302   3.682  18.512  0.00  0.00    +0.000 C 
ATOM     23  C   UNL     1       3.956   3.239  19.730  0.00  0.00    +0.000 C 
BRANCH  22  29
ATOM     24  C   UNL     1       6.084   4.497  16.856  0.00  0.00    +0.000 A 
ATOM     25  C   UNL     1       7.173   5.351  16.610  0.00  0.00    +0.000 A 
ATOM     26  C   UNL     1       7.762   6.074  17.645  0.00  0.00    +0.000 A 
ATOM     27  C   UNL     1       7.263   5.959  18.935  0.00  0.00    +0.000 A 
ATOM     28  C   UNL     1       6.156   5.145  19.186  0.00  0.00    +0.000 A 
ATOM     29  C   UNL     1       5.539   4.410  18.154  0.00  0.00    +0.000 A 
BRANCH  24  31
ATOM     30  C   UNL     1       5.845   4.204  14.527  0.00  0.00    +0.000 C 
ATOM     31  O   UNL     1       5.481   3.790  15.842  0.00  0.00    +0.000 OA
ENDBRANCH  24  31
ENDBRANCH  22  29
ENDBRANCH  20  23
ENDBRANCH  19  20
ENDBRANCH  18  19
ENDBRANCH   1  18
TORSDOF 8
ENDMDL
MODEL 2
REMARK VINA RESULT:      -7.8      0.991      1.993
REMARK  Name = 
REMARK  11 active torsions:
REMARK  status: ('A' for Active; 'I' for Inactive)
REMARK    1  A    between atoms: C_1  and  O_2
REMARK    2  A    between atoms: O_2  and  C_3
REMARK    3  A    between atoms: C_8  and  C_9
REMARK    4  A    between atoms: C_10  and  C_11
REMARK    5  A    between atoms: C_11  and  O_13
REMARK    6  A    between atoms: O_13  and  C_14
REMARK    7  A    between atoms: C_14  and  C_15
REMARK    8  A    between atoms: N_17  and  C_18
REMARK    9  A    between atoms: C_19  and  C_20
REMARK   10  A    between atoms: N_22  and  C_23
REMARK   11  A    between atoms: C_29  and  C_30
REMARK                            x       y       z     vdW  Elec       q    Type
REMARK                         _______ _______ _______ _____ _____    ______ ____
ROOT
ATOM      1  C   UNL     1       1.671   5.046  20.473  0.00  0.00    +0.000 C 
ATOM      2  O   UNL     1       1.023   4.799  19.460  0.00  0.00    +0.000 OA
ATOM      3  N   UNL     1       2.129   6.306  20.845  0.00  0.00    +0.000 N 
ATOM      4  H   UNL     1       2.972   6.340  21.404  0.00  0.00    +0.000 HD
ENDROOT
BRANCH   3   5
ATOM      5  C   UNL     1       1.858   7.433  20.083  0.00  0.00    +0.000 A 
ATOM      6  C   UNL     1       2.368   7.854  18.834  0.00  0.00    +0.000 A 
ATOM      7  C   UNL     1       3.267   7.144  17.888  0.00  0.00    +0.000 C 
ATOM      8  N   UNL     1       1.900   9.062  18.502  0.00  0.00    +0.000 NA
ATOM      9  N   UNL     1       1.074   9.426  19.516  0.00  0.00    +0.000 N 
ATOM     10  C   UNL     1       1.011   8.444  20.501  0.00  0.00    +0.000 A 
ATOM     11  C   UNL     1       0.391   8.595  21.847  0.00  0.00    +0.000 C 
BRANCH   9  12
ATOM     12  C   UNL     1       0.519  10.739  19.524  0.00  0.00    +0.000 A 
ATOM     13  C   UNL     1      -0.668  11.041  18.848  0.00  0.00    +0.000 A 
ATOM     14  C   UNL     1      -1.298  12.270  19.056  0.00  0.00    +0.000 A 
ATOM     15  C   UNL     1      -0.727  13.214  19.907  0.00  0.00    +0.000 A 
ATOM     16  C   UNL     1       0.505  12.955  20.506  0.00  0.00    +0.000 A 
ATOM     17  C   UNL     1       1.139  11.728  20.302  0.00  0.00    +0.000 A 
ENDBRANCH   9  12
ENDBRANCH   3   5
BRANCH   1  18
ATOM     18  C   UNL     1       2.154   3.939  21.420  0.00  0.00    +0.000 C 
BRANCH  18  19
ATOM     19  O   UNL     1       3.353   3.286  21.023  0.00  0.00    +0.000 OA
BRANCH  19  20
ATOM     20  C   UNL     1       3.246   2.618  19.841  0.00  0.00    +0.000 C 
ATOM     21  O   UNL     1       2.390   1.792  19.556  0.00  0.00    +0.000 OA
BRANCH  20  23
ATOM     22  C   UNL     1       4.201   3.835  17.949  0.00  0.00    +0.000 C 
ATOM     23  C   UNL     1       4.386   3.000  18.982  0.00  0.00    +0.000 C 
BRANCH  22  29
ATOM     24  C   UNL     1       6.569   4.516  17.232  0.00  0.00    +0.000 A 
ATOM     25  C   UNL     1       7.471   4.738  16.178  0.00  0.00    +0.000 A 
ATOM     26  C   UNL     1       7.036   4.749  14.854  0.00  0.00    +0.000 A 
ATOM     27  C   UNL     1       5.695   4.529  14.569  0.00  0.00    +0.000 A 
ATOM     28  C   UNL     1       4.795   4.267  15.605  0.00  0.00    +0.000 A 
ATOM     29  C   UNL     1       5.213   4.244  16.950  0.00  0.00    +0.000 A 
BRANCH  24  31
ATOM     30  C   UNL     1       7.443   5.737  19.052  0.00  0.00    +0.000 C 
ATOM     31  O   UNL     1       6.986   4.486  18.542  0.00  0.00    +0.000 OA
ENDBRANCH  24  31
ENDBRANCH  22  29
ENDBRANCH  20  23
ENDBRANCH  19  20
ENDBRANCH  18  19
ENDBRANCH   1  18
TORSDOF 8
ENDMDL
MODEL 3
REMARK VINA RESULT:      -7.6      5.812      8.974
REMARK  Name = 
REMARK  11 active torsions:
REMARK  status: ('A' for Active; 'I' for Inactive)
REMARK    1  A    between atoms: C_1  and  O_2
REMARK    2  A    between atoms: O_2  and  C_3
REMARK    3  A    between atoms: C_8  and  C_9
REMARK    4  A    between atoms: C_10  and  C_11
REMARK    5  A    between atoms: C_11  and  O_13
REMARK    6  A    between atoms: O_13  and  C_14
REMARK    7  A    between atoms: C_14  and  C_15
REMARK    8  A    between atoms: N_17  and  C_18
REMARK    9  A    between atoms: C_19  and  C_20
REMARK   10  A    between atoms: N_22  and  C_23
REMARK   11  A    between atoms: C_29  and  C_30
REMARK                            x       y       z     vdW  Elec       q    Type
REMARK                         _______ _______ _______ _____ _____    ______ ____
ROOT
ATOM      1  C   UNL     1       7.550   7.560  17.750  0.00  0.00    +0.000 C 
ATOM      2  O   UNL     1       8.065   6.737  18.503  0.00  0.00    +0.000 OA
ATOM      3  N   UNL     1       6.495   7.302  16.880  0.00  0.00    +0.000 N 
ATOM      4  H   UNL     1       6.445   7.865  16.042  0.00  0.00    +0.000 HD
ENDROOT
BRANCH   3   5
ATOM      5  C   UNL     1       5.900   6.051  16.810  0.00  0.00    +0.000 A 
ATOM      6  C   UNL     1       6.069   4.992  15.889  0.00  0.00    +0.000 A 
ATOM      7  C   UNL     1       7.041   4.850  14.775  0.00  0.00    +0.000 C 
ATOM      8  N   UNL     1       5.219   3.990  16.142  0.00  0.00    +0.000 NA
ATOM      9  N   UNL     1       4.509   4.378  17.231  0.00  0.00    +0.000 N 
ATOM     10  C   UNL     1       4.908   5.635  17.681  0.00  0.00    +0.000 A 
ATOM     11  C   UNL     1       4.204   6.462  18.700  0.00  0.00    +0.000 C 
BRANCH   9  12
ATOM     12  C   UNL     1       3.416   3.575  17.671  0.00  0.00    +0.000 A 
ATOM     13  C   UNL     1       3.614   2.323  18.262  0.00  0.00    +0.000 A 
ATOM     14  C   UNL     1       2.548   1.664  18.879  0.00  0.00    +0.000 A 
ATOM     15  C   UNL     1       1.276   2.234  18.874  0.00  0.00    +0.000 A 
ATOM     16  C   UNL     1       1.055   3.436  18.202  0.00  0.00    +0.000 A 
ATOM     17  C   UNL     1       2.118   4.099  17.584  0.00  0.00    +0.000 A 
ENDBRANCH   9  12
ENDBRANCH   3   5
BRANCH   1  18
ATOM     18  C   UNL     1       8.101   8.984  17.603  0.00  0.00    +0.000 C 
BRANCH  18  19
ATOM     19  O   UNL     1       8.787   9.487  18.743  0.00  0.00    +0.000 OA
BRANCH  19  20
ATOM     20  C   UNL     1       9.418  10.673  18.521  0.00  0.00    +0.000 C 
ATOM     21  O   UNL     1      10.236  10.900  17.641  0.00  0.00    +0.000 OA
BRANCH  20  23
ATOM     22  C   UNL     1       9.476  11.493  20.823  0.00  0.00    +0.000 C 
ATOM     23  C   UNL     1       9.008  11.626  19.573  0.00  0.00    +0.000 C 
BRANCH  22  29
ATOM     24  C   UNL     1       9.456  13.653  22.207  0.00  0.00    +0.000 A 
ATOM     25  C   UNL     1       8.903  14.367  23.284  0.00  0.00    +0.000 A 
ATOM     26  C   UNL     1       8.045  13.745  24.189  0.00  0.00    +0.000 A 
ATOM     27  C   UNL     1       7.723  12.405  24.021  0.00  0.00    +0.000 A 
ATOM     28  C   UNL     1       8.234  11.695  22.932  0.00  0.00    +0.000 A 
ATOM     29  C   UNL     1       9.097  12.304  22.000  0.00  0.00    +0.000 A 
BRANCH  24  31
ATOM     30  C   UNL     1       9.823  15.508  20.796  0.00  0.00    +0.000 C 
ATOM     31  O   UNL     1      10.291  14.257  21.297  0.00  0.00    +0.000 OA
ENDBRANCH  24  31
ENDBRANCH  22  29
ENDBRANCH  20  23
ENDBRANCH  19  20
ENDBRANCH  18  19
ENDBRANCH   1  18
TORSDOF 8
ENDMDL
MODEL 4
REMARK VINA RESULT:      -7.6      0.969      1.785
REMARK  Name = 
REMARK  11 active torsions:
REMARK  status: ('A' for Active; 'I' for Inactive)
REMARK    1  A    between atoms: C_1  and  O_2
REMARK    2  A    between atoms: O_2  and  C_3
REMARK    3  A    between atoms: C_8  and  C_9
REMARK    4  A    between atoms: C_10  and  C_11
REMARK    5  A    between atoms: C_11  and  O_13
REMARK    6  A    between atoms: O_13  and  C_14
REMARK    7  A    between atoms: C_14  and  C_15
REMARK    8  A    between atoms: N_17  and  C_18
REMARK    9  A    between atoms: C_19  and  C_20
REMARK   10  A    between atoms: N_22  and  C_23
REMARK   11  A    between atoms: C_29  and  C_30
REMARK                            x       y       z     vdW  Elec       q    Type
REMARK                         _______ _______ _______ _____ _____    ______ ____
ROOT
ATOM      1  C   UNL     1       1.865   5.290  20.149  0.00  0.00    +0.000 C 
ATOM      2  O   UNL     1       1.064   5.022  19.257  0.00  0.00    +0.000 OA
ATOM      3  N   UNL     1       2.453   6.535  20.352  0.00  0.00    +0.000 N 
ATOM      4  H   UNL     1       3.367   6.543  20.785  0.00  0.00    +0.000 HD
ENDROOT
BRANCH   3   5
ATOM      5  C   UNL     1       2.149   7.622  19.547  0.00  0.00    +0.000 A 
ATOM      6  C   UNL     1       2.667   8.025  18.295  0.00  0.00    +0.000 A 
ATOM      7  C   UNL     1       3.618   7.325  17.393  0.00  0.00    +0.000 C 
ATOM      8  N   UNL     1       2.154   9.199  17.913  0.00  0.00    +0.000 NA
ATOM      9  N   UNL     1       1.291   9.559  18.897  0.00  0.00    +0.000 N 
ATOM     10  C   UNL     1       1.249   8.608  19.914  0.00  0.00    +0.000 A 
ATOM     11  C   UNL     1       0.594   8.775  21.241  0.00  0.00    +0.000 C 
BRANCH   9  12
ATOM     12  C   UNL     1       0.679  10.846  18.849  0.00  0.00    +0.000 A 
ATOM     13  C   UNL     1       1.420  12.022  19.005  0.00  0.00    +0.000 A 
ATOM     14  C   UNL     1       0.834  13.259  18.734  0.00  0.00    +0.000 A 
ATOM     15  C   UNL     1      -0.502  13.331  18.344  0.00  0.00    +0.000 A 
ATOM     16  C   UNL     1      -1.271  12.169  18.281  0.00  0.00    +0.000 A 
ATOM     17  C   UNL     1      -0.690  10.929  18.551  0.00  0.00    +0.000 A 
ENDBRANCH   9  12
ENDBRANCH   3   5
BRANCH   1  18
ATOM     18  C   UNL     1       2.405   4.219  21.105  0.00  0.00    +0.000 C 
BRANCH  18  19
ATOM     19  O   UNL     1       3.329   3.304  20.528  0.00  0.00    +0.000 OA
BRANCH  19  20
ATOM     20  C   UNL     1       2.821   2.609  19.472  0.00  0.00    +0.000 C 
ATOM     21  O   UNL     1       2.009   1.696  19.534  0.00  0.00    +0.000 OA
BRANCH  20  23
ATOM     22  C   UNL     1       4.735   3.549  18.278  0.00  0.00    +0.000 C 
ATOM     23  C   UNL     1       3.476   3.089  18.237  0.00  0.00    +0.000 C 
BRANCH  22  29
ATOM     24  C   UNL     1       6.431   5.192  17.273  0.00  0.00    +0.000 A 
ATOM     25  C   UNL     1       7.211   5.562  16.164  0.00  0.00    +0.000 A 
ATOM     26  C   UNL     1       7.035   4.942  14.928  0.00  0.00    +0.000 A 
ATOM     27  C   UNL     1       6.084   3.940  14.790  0.00  0.00    +0.000 A 
ATOM     28  C   UNL     1       5.331   3.535  15.895  0.00  0.00    +0.000 A 
ATOM     29  C   UNL     1       5.497   4.141  17.156  0.00  0.00    +0.000 A 
BRANCH  24  31
ATOM     30  C   UNL     1       7.888   5.574  19.090  0.00  0.00    +0.000 C 
ATOM     31  O   UNL     1       6.605   5.782  18.504  0.00  0.00    +0.000 OA
ENDBRANCH  24  31
ENDBRANCH  22  29
ENDBRANCH  20  23
ENDBRANCH  19  20
ENDBRANCH  18  19
ENDBRANCH   1  18
TORSDOF 8
ENDMDL
MODEL 5
REMARK VINA RESULT:      -7.6      6.004      9.069
REMARK  Name = 
REMARK  11 active torsions:
REMARK  status: ('A' for Active; 'I' for Inactive)
REMARK    1  A    between atoms: C_1  and  O_2
REMARK    2  A    between atoms: O_2  and  C_3
REMARK    3  A    between atoms: C_8  and  C_9
REMARK    4  A    between atoms: C_10  and  C_11
REMARK    5  A    between atoms: C_11  and  O_13
REMARK    6  A    between atoms: O_13  and  C_14
REMARK    7  A    between atoms: C_14  and  C_15
REMARK    8  A    between atoms: N_17  and  C_18
REMARK    9  A    between atoms: C_19  and  C_20
REMARK   10  A    between atoms: N_22  and  C_23
REMARK   11  A    between atoms: C_29  and  C_30
REMARK                            x       y       z     vdW  Elec       q    Type
REMARK                         _______ _______ _______ _____ _____    ______ ____
ROOT
ATOM      1  C   UNL     1       7.479   7.677  17.801  0.00  0.00    +0.000 C 
ATOM      2  O   UNL     1       8.024   6.870  18.548  0.00  0.00    +0.000 OA
ATOM      3  N   UNL     1       6.421   7.389  16.943  0.00  0.00    +0.000 N 
ATOM      4  H   UNL     1       6.346   7.950  16.105  0.00  0.00    +0.000 HD
ENDROOT
BRANCH   3   5
ATOM      5  C   UNL     1       5.861   6.121  16.880  0.00  0.00    +0.000 A 
ATOM      6  C   UNL     1       6.095   5.045  15.995  0.00  0.00    +0.000 A 
ATOM      7  C   UNL     1       7.117   4.901  14.927  0.00  0.00    +0.000 C 
ATOM      8  N   UNL     1       5.261   4.028  16.237  0.00  0.00    +0.000 NA
ATOM      9  N   UNL     1       4.495   4.425  17.285  0.00  0.00    +0.000 N 
ATOM     10  C   UNL     1       4.844   5.702  17.719  0.00  0.00    +0.000 A 
ATOM     11  C   UNL     1       4.077   6.535  18.686  0.00  0.00    +0.000 C 
BRANCH   9  12
ATOM     12  C   UNL     1       3.405   3.604  17.700  0.00  0.00    +0.000 A 
ATOM     13  C   UNL     1       3.607   2.348  18.280  0.00  0.00    +0.000 A 
ATOM     14  C   UNL     1       2.539   1.671  18.873  0.00  0.00    +0.000 A 
ATOM     15  C   UNL     1       1.262   2.227  18.855  0.00  0.00    +0.000 A 
ATOM     16  C   UNL     1       1.038   3.434  18.193  0.00  0.00    +0.000 A 
ATOM     17  C   UNL     1       2.102   4.115  17.599  0.00  0.00    +0.000 A 
ENDBRANCH   9  12
ENDBRANCH   3   5
BRANCH   1  18
ATOM     18  C   UNL     1       7.988   9.116  17.647  0.00  0.00    +0.000 C 
BRANCH  18  19
ATOM     19  O   UNL     1       9.277   9.362  18.193  0.00  0.00    +0.000 OA
BRANCH  19  20
ATOM     20  C   UNL     1       9.318  10.433  19.035  0.00  0.00    +0.000 C 
ATOM     21  O   UNL     1       9.004  10.432  20.217  0.00  0.00    +0.000 OA
BRANCH  20  23
ATOM     22  C   UNL     1       9.600  12.848  18.787  0.00  0.00    +0.000 C 
ATOM     23  C   UNL     1       9.732  11.622  18.261  0.00  0.00    +0.000 C 
BRANCH  22  29
ATOM     24  C   UNL     1       9.013  15.244  18.081  0.00  0.00    +0.000 A 
ATOM     25  C   UNL     1       9.458  16.467  17.550  0.00  0.00    +0.000 A 
ATOM     26  C   UNL     1      10.733  16.586  17.000  0.00  0.00    +0.000 A 
ATOM     27  C   UNL     1      11.580  15.487  16.984  0.00  0.00    +0.000 A 
ATOM     28  C   UNL     1      11.165  14.277  17.546  0.00  0.00    +0.000 A 
ATOM     29  C   UNL     1       9.884  14.134  18.114  0.00  0.00    +0.000 A 
BRANCH  24  31
ATOM     30  C   UNL     1       6.741  14.713  17.734  0.00  0.00    +0.000 C 
ATOM     31  O   UNL     1       7.764  15.115  18.642  0.00  0.00    +0.000 OA
ENDBRANCH  24  31
ENDBRANCH  22  29
ENDBRANCH  20  23
ENDBRANCH  19  20
ENDBRANCH  18  19
ENDBRANCH   1  18
TORSDOF 8
ENDMDL
MODEL 6
REMARK VINA RESULT:      -7.4      5.948      9.092
REMARK  Name = 
REMARK  11 active torsions:
REMARK  status: ('A' for Active; 'I' for Inactive)
REMARK    1  A    between atoms: C_1  and  O_2
REMARK    2  A    between atoms: O_2  and  C_3
REMARK    3  A    between atoms: C_8  and  C_9
REMARK    4  A    between atoms: C_10  and  C_11
REMARK    5  A    between atoms: C_11  and  O_13
REMARK    6  A    between atoms: O_13  and  C_14
REMARK    7  A    between atoms: C_14  and  C_15
REMARK    8  A    between atoms: N_17  and  C_18
REMARK    9  A    between atoms: C_19  and  C_20
REMARK   10  A    between atoms: N_22  and  C_23
REMARK   11  A    between atoms: C_29  and  C_30
REMARK                            x       y       z     vdW  Elec       q    Type
REMARK                         _______ _______ _______ _____ _____    ______ ____
ROOT
ATOM      1  C   UNL     1       7.603   7.542  17.892  0.00  0.00    +0.000 C 
ATOM      2  O   UNL     1       8.115   6.696  18.620  0.00  0.00    +0.000 OA
ATOM      3  N   UNL     1       6.543   7.315  17.020  0.00  0.00    +0.000 N 
ATOM      4  H   UNL     1       6.494   7.901  16.197  0.00  0.00    +0.000 HD
ENDROOT
BRANCH   3   5
ATOM      5  C   UNL     1       5.940   6.069  16.917  0.00  0.00    +0.000 A 
ATOM      6  C   UNL     1       6.113   5.028  15.977  0.00  0.00    +0.000 A 
ATOM      7  C   UNL     1       7.098   4.902  14.872  0.00  0.00    +0.000 C 
ATOM      8  N   UNL     1       5.254   4.027  16.200  0.00  0.00    +0.000 NA
ATOM      9  N   UNL     1       4.533   4.399  17.288  0.00  0.00    +0.000 N 
ATOM     10  C   UNL     1       4.936   5.643  17.768  0.00  0.00    +0.000 A 
ATOM     11  C   UNL     1       4.225   6.454  18.795  0.00  0.00    +0.000 C 
BRANCH   9  12
ATOM     12  C   UNL     1       3.430   3.594  17.699  0.00  0.00    +0.000 A 
ATOM     13  C   UNL     1       3.614   2.352  18.315  0.00  0.00    +0.000 A 
ATOM     14  C   UNL     1       2.529   1.695  18.901  0.00  0.00    +0.000 A 
ATOM     15  C   UNL     1       1.255   2.256  18.841  0.00  0.00    +0.000 A 
ATOM     16  C   UNL     1       1.052   3.447  18.145  0.00  0.00    +0.000 A 
ATOM     17  C   UNL     1       2.132   4.108  17.557  0.00  0.00    +0.000 A 
ENDBRANCH   9  12
ENDBRANCH   3   5
BRANCH   1  18
ATOM     18  C   UNL     1       8.162   8.967  17.783  0.00  0.00    +0.000 C 
BRANCH  18  19
ATOM     19  O   UNL     1       8.848   9.437  18.936  0.00  0.00    +0.000 OA
BRANCH  19  20
ATOM     20  C   UNL     1       9.441  10.651  18.762  0.00  0.00    +0.000 C 
ATOM     21  O   UNL     1      10.092  11.000  17.788  0.00  0.00    +0.000 OA
BRANCH  20  23
ATOM     22  C   UNL     1       9.533  12.761  19.992  0.00  0.00    +0.000 C 
ATOM     23  C   UNL     1       9.233  11.454  19.985  0.00  0.00    +0.000 C 
BRANCH  22  29
ATOM     24  C   UNL     1       8.678  13.473  22.303  0.00  0.00    +0.000 A 
ATOM     25  C   UNL     1       8.819  14.330  23.408  0.00  0.00    +0.000 A 
ATOM     26  C   UNL     1       9.688  15.418  23.363  0.00  0.00    +0.000 A 
ATOM     27  C   UNL     1      10.433  15.656  22.216  0.00  0.00    +0.000 A 
ATOM     28  C   UNL     1      10.332  14.788  21.125  0.00  0.00    +0.000 A 
ATOM     29  C   UNL     1       9.466  13.677  21.151  0.00  0.00    +0.000 A 
BRANCH  24  31
ATOM     30  C   UNL     1       7.868  11.647  23.559  0.00  0.00    +0.000 C 
ATOM     31  O   UNL     1       7.837  12.385  22.339  0.00  0.00    +0.000 OA
ENDBRANCH  24  31
ENDBRANCH  22  29
ENDBRANCH  20  23
ENDBRANCH  19  20
ENDBRANCH  18  19
ENDBRANCH   1  18
TORSDOF 8
ENDMDL
MODEL 7
REMARK VINA RESULT:      -7.3      3.145      5.103
REMARK  Name = 
REMARK  11 active torsions:
REMARK  status: ('A' for Active; 'I' for Inactive)
REMARK    1  A    between atoms: C_1  and  O_2
REMARK    2  A    between atoms: O_2  and  C_3
REMARK    3  A    between atoms: C_8  and  C_9
REMARK    4  A    between atoms: C_10  and  C_11
REMARK    5  A    between atoms: C_11  and  O_13
REMARK    6  A    between atoms: O_13  and  C_14
REMARK    7  A    between atoms: C_14  and  C_15
REMARK    8  A    between atoms: N_17  and  C_18
REMARK    9  A    between atoms: C_19  and  C_20
REMARK   10  A    between atoms: N_22  and  C_23
REMARK   11  A    between atoms: C_29  and  C_30
REMARK                            x       y       z     vdW  Elec       q    Type
REMARK                         _______ _______ _______ _____ _____    ______ ____
ROOT
ATOM      1  C   UNL     1       0.376   9.673  19.433  0.00  0.00    +0.000 C 
ATOM      2  O   UNL     1      -0.052   9.562  20.579  0.00  0.00    +0.000 OA
ATOM      3  N   UNL     1      -0.183  10.474  18.441  0.00  0.00    +0.000 N 
ATOM      4  H   UNL     1      -0.051  10.175  17.484  0.00  0.00    +0.000 HD
ENDROOT
BRANCH   3   5
ATOM      5  C   UNL     1      -1.299  11.261  18.686  0.00  0.00    +0.000 A 
ATOM      6  C   UNL     1      -1.460  12.427  19.467  0.00  0.00    +0.000 A 
ATOM      7  C   UNL     1      -0.439  13.246  20.170  0.00  0.00    +0.000 C 
ATOM      8  N   UNL     1      -2.740  12.814  19.503  0.00  0.00    +0.000 NA
ATOM      9  N   UNL     1      -3.414  11.919  18.738  0.00  0.00    +0.000 N 
ATOM     10  C   UNL     1      -2.560  10.956  18.205  0.00  0.00    +0.000 A 
ATOM     11  C   UNL     1      -2.978   9.705  17.513  0.00  0.00    +0.000 C 
BRANCH   9  12
ATOM     12  C   UNL     1      -4.838  11.980  18.687  0.00  0.00    +0.000 A 
ATOM     13  C   UNL     1      -5.622  11.855  19.838  0.00  0.00    +0.000 A 
ATOM     14  C   UNL     1      -6.989  12.139  19.787  0.00  0.00    +0.000 A 
ATOM     15  C   UNL     1      -7.582  12.511  18.582  0.00  0.00    +0.000 A 
ATOM     16  C   UNL     1      -6.822  12.543  17.414  0.00  0.00    +0.000 A 
ATOM     17  C   UNL     1      -5.456  12.260  17.459  0.00  0.00    +0.000 A 
ENDBRANCH   9  12
ENDBRANCH   3   5
BRANCH   1  18
ATOM     18  C   UNL     1       1.552   8.832  18.919  0.00  0.00    +0.000 C 
BRANCH  18  19
ATOM     19  O   UNL     1       2.231   8.073  19.912  0.00  0.00    +0.000 OA
BRANCH  19  20
ATOM     20  C   UNL     1       2.315   6.745  19.619  0.00  0.00    +0.000 C 
ATOM     21  O   UNL     1       1.762   5.838  20.223  0.00  0.00    +0.000 OA
BRANCH  20  23
ATOM     22  C   UNL     1       4.116   5.544  18.483  0.00  0.00    +0.000 C 
ATOM     23  C   UNL     1       3.256   6.573  18.492  0.00  0.00    +0.000 C 
BRANCH  22  29
ATOM     24  C   UNL     1       6.496   4.897  17.776  0.00  0.00    +0.000 A 
ATOM     25  C   UNL     1       7.364   4.520  16.737  0.00  0.00    +0.000 A 
ATOM     26  C   UNL     1       6.953   4.577  15.406  0.00  0.00    +0.000 A 
ATOM     27  C   UNL     1       5.667   5.002  15.101  0.00  0.00    +0.000 A 
ATOM     28  C   UNL     1       4.781   5.340  16.127  0.00  0.00    +0.000 A 
ATOM     29  C   UNL     1       5.172   5.283  17.480  0.00  0.00    +0.000 A 
BRANCH  24  31
ATOM     30  C   UNL     1       7.932   5.725  19.455  0.00  0.00    +0.000 C 
ATOM     31  O   UNL     1       6.882   4.830  19.094  0.00  0.00    +0.000 OA
ENDBRANCH  24  31
ENDBRANCH  22  29
ENDBRANCH  20  23
ENDBRANCH  19  20
ENDBRANCH  18  19
ENDBRANCH   1  18
TORSDOF 8
ENDMDL
MODEL 8
REMARK VINA RESULT:      -7.2      2.405      7.568
REMARK  Name = 
REMARK  11 active torsions:
REMARK  status: ('A' for Active; 'I' for Inactive)
REMARK    1  A    between atoms: C_1  and  O_2
REMARK    2  A    between atoms: O_2  and  C_3
REMARK    3  A    between atoms: C_8  and  C_9
REMARK    4  A    between atoms: C_10  and  C_11
REMARK    5  A    between atoms: C_11  and  O_13
REMARK    6  A    between atoms: O_13  and  C_14
REMARK    7  A    between atoms: C_14  and  C_15
REMARK    8  A    between atoms: N_17  and  C_18
REMARK    9  A    between atoms: C_19  and  C_20
REMARK   10  A    between atoms: N_22  and  C_23
REMARK   11  A    between atoms: C_29  and  C_30
REMARK                            x       y       z     vdW  Elec       q    Type
REMARK                         _______ _______ _______ _____ _____    ______ ____
ROOT
ATOM      1  C   UNL     1       4.404   3.192  19.728  0.00  0.00    +0.000 C 
ATOM      2  O   UNL     1       4.923   2.129  19.397  0.00  0.00    +0.000 OA
ATOM      3  N   UNL     1       4.689   4.434  19.168  0.00  0.00    +0.000 N 
ATOM      4  H   UNL     1       4.566   5.243  19.762  0.00  0.00    +0.000 HD
ENDROOT
BRANCH   3   5
ATOM      5  C   UNL     1       5.602   4.571  18.133  0.00  0.00    +0.000 A 
ATOM      6  C   UNL     1       6.902   5.125  18.108  0.00  0.00    +0.000 A 
ATOM      7  C   UNL     1       7.744   5.620  19.228  0.00  0.00    +0.000 C 
ATOM      8  N   UNL     1       7.399   5.140  16.867  0.00  0.00    +0.000 NA
ATOM      9  N   UNL     1       6.441   4.584  16.082  0.00  0.00    +0.000 N 
ATOM     10  C   UNL     1       5.326   4.207  16.827  0.00  0.00    +0.000 A 
ATOM     11  C   UNL     1       4.010   3.780  16.274  0.00  0.00    +0.000 C 
BRANCH   9  12
ATOM     12  C   UNL     1       6.616   4.580  14.667  0.00  0.00    +0.000 A 
ATOM     13  C   UNL     1       7.560   5.400  14.039  0.00  0.00    +0.000 A 
ATOM     14  C   UNL     1       7.859   5.213  12.688  0.00  0.00    +0.000 A 
ATOM     15  C   UNL     1       7.193   4.236  11.952  0.00  0.00    +0.000 A 
ATOM     16  C   UNL     1       6.184   3.482  12.550  0.00  0.00    +0.000 A 
ATOM     17  C   UNL     1       5.880   3.664  13.900  0.00  0.00    +0.000 A 
ENDBRANCH   9  12
ENDBRANCH   3   5
BRANCH   1  18
ATOM     18  C   UNL     1       3.426   3.287  20.907  0.00  0.00    +0.000 C 
BRANCH  18  19
ATOM     19  O   UNL     1       2.731   4.523  21.017  0.00  0.00    +0.000 OA
BRANCH  19  20
ATOM     20  C   UNL     1       1.540   4.540  20.357  0.00  0.00    +0.000 C 
ATOM     21  O   UNL     1       1.089   3.642  19.661  0.00  0.00    +0.000 OA
BRANCH  20  23
ATOM     22  C   UNL     1       1.665   6.973  20.560  0.00  0.00    +0.000 C 
ATOM     23  C   UNL     1       0.912   5.863  20.559  0.00  0.00    +0.000 C 
BRANCH  22  29
ATOM     24  C   UNL     1       1.035   9.360  19.860  0.00  0.00    +0.000 A 
ATOM     25  C   UNL     1       0.440  10.582  20.215  0.00  0.00    +0.000 A 
ATOM     26  C   UNL     1       0.064  10.839  21.532  0.00  0.00    +0.000 A 
ATOM     27  C   UNL     1       0.270   9.872  22.507  0.00  0.00    +0.000 A 
ATOM     28  C   UNL     1       0.824   8.637  22.160  0.00  0.00    +0.000 A 
ATOM     29  C   UNL     1       1.206   8.353  20.833  0.00  0.00    +0.000 A 
BRANCH  24  31
ATOM     30  C   UNL     1       2.010  10.173  17.871  0.00  0.00    +0.000 C 
ATOM     31  O   UNL     1       1.397   9.086  18.562  0.00  0.00    +0.000 OA
ENDBRANCH  24  31
ENDBRANCH  22  29
ENDBRANCH  20  23
ENDBRANCH  19  20
ENDBRANCH  18  19
ENDBRANCH   1  18
TORSDOF 8
ENDMDL
MODEL 9
REMARK VINA RESULT:      -7.2      0.845      1.015
REMARK  Name = 
REMARK  11 active torsions:
REMARK  status: ('A' for Active; 'I' for Inactive)
REMARK    1  A    between atoms: C_1  and  O_2
REMARK    2  A    between atoms: O_2  and  C_3
REMARK    3  A    between atoms: C_8  and  C_9
REMARK    4  A    between atoms: C_10  and  C_11
REMARK    5  A    between atoms: C_11  and  O_13
REMARK    6  A    between atoms: O_13  and  C_14
REMARK    7  A    between atoms: C_14  and  C_15
REMARK    8  A    between atoms: N_17  and  C_18
REMARK    9  A    between atoms: C_19  and  C_20
REMARK   10  A    between atoms: N_22  and  C_23
REMARK   11  A    between atoms: C_29  and  C_30
REMARK                            x       y       z     vdW  Elec       q    Type
REMARK                         _______ _______ _______ _____ _____    ______ ____
ROOT
ATOM      1  C   UNL     1       1.906   5.080  20.544  0.00  0.00    +0.000 C 
ATOM      2  O   UNL     1       0.826   4.883  19.992  0.00  0.00    +0.000 OA
ATOM      3  N   UNL     1       2.642   6.259  20.468  0.00  0.00    +0.000 N 
ATOM      4  H   UNL     1       3.646   6.178  20.564  0.00  0.00    +0.000 HD
ENDROOT
BRANCH   3   5
ATOM      5  C   UNL     1       2.185   7.357  19.754  0.00  0.00    +0.000 A 
ATOM      6  C   UNL     1       2.463   7.791  18.439  0.00  0.00    +0.000 A 
ATOM      7  C   UNL     1       3.243   7.124  17.364  0.00  0.00    +0.000 C 
ATOM      8  N   UNL     1       1.875   8.965  18.181  0.00  0.00    +0.000 NA
ATOM      9  N   UNL     1       1.201   9.292  19.313  0.00  0.00    +0.000 N 
ATOM     10  C   UNL     1       1.354   8.321  20.299  0.00  0.00    +0.000 A 
ATOM     11  C   UNL     1       0.949   8.453  21.726  0.00  0.00    +0.000 C 
BRANCH   9  12
ATOM     12  C   UNL     1       0.574  10.570  19.404  0.00  0.00    +0.000 A 
ATOM     13  C   UNL     1       1.280  11.710  19.804  0.00  0.00    +0.000 A 
ATOM     14  C   UNL     1       0.700  12.973  19.671  0.00  0.00    +0.000 A 
ATOM     15  C   UNL     1      -0.596  13.100  19.174  0.00  0.00    +0.000 A 
ATOM     16  C   UNL     1      -1.337  11.960  18.866  0.00  0.00    +0.000 A 
ATOM     17  C   UNL     1      -0.763  10.694  18.997  0.00  0.00    +0.000 A 
ENDBRANCH   9  12
ENDBRANCH   3   5
BRANCH   1  18
ATOM     18  C   UNL     1       2.637   3.976  21.318  0.00  0.00    +0.000 C 
BRANCH  18  19
ATOM     19  O   UNL     1       2.886   2.785  20.582  0.00  0.00    +0.000 OA
BRANCH  19  20
ATOM     20  C   UNL     1       4.211   2.508  20.424  0.00  0.00    +0.000 C 
ATOM     21  O   UNL     1       4.869   1.731  21.100  0.00  0.00    +0.000 OA
BRANCH  20  23
ATOM     22  C   UNL     1       5.861   4.080  19.542  0.00  0.00    +0.000 C 
ATOM     23  C   UNL     1       4.743   3.367  19.345  0.00  0.00    +0.000 C 
BRANCH  22  29
ATOM     24  C   UNL     1       6.146   5.163  17.233  0.00  0.00    +0.000 A 
ATOM     25  C   UNL     1       6.672   6.224  16.477  0.00  0.00    +0.000 A 
ATOM     26  C   UNL     1       7.560   7.136  17.046  0.00  0.00    +0.000 A 
ATOM     27  C   UNL     1       7.923   7.002  18.379  0.00  0.00    +0.000 A 
ATOM     28  C   UNL     1       7.375   5.975  19.152  0.00  0.00    +0.000 A 
ATOM     29  C   UNL     1       6.470   5.046  18.601  0.00  0.00    +0.000 A 
BRANCH  24  31
ATOM     30  C   UNL     1       5.189   4.279  15.266  0.00  0.00    +0.000 C 
ATOM     31  O   UNL     1       5.256   4.266  16.690  0.00  0.00    +0.000 OA
ENDBRANCH  24  31
ENDBRANCH  22  29
ENDBRANCH  20  23
ENDBRANCH  19  20
ENDBRANCH  18  19
ENDBRANCH   1  18
TORSDOF 8
ENDMDL
