MODEL 1
REMARK VINA RESULT:      -7.6      0.000      0.000
REMARK  Name = 
REMARK  9 active torsions:
REMARK  status: ('A' for Active; 'I' for Inactive)
REMARK    1  A    between atoms: C_1  and  O_2
REMARK    2  A    between atoms: O_2  and  C_3
REMARK    3  A    between atoms: C_6  and  C_7
REMARK    4  A    between atoms: C_11  and  O_12
REMARK    5  A    between atoms: C_13  and  N_14
REMARK    6  A    between atoms: N_14  and  C_15
REMARK    7  A    between atoms: C_15  and  C_16
REMARK    8  A    between atoms: C_16  and  C_17
REMARK    9  A    between atoms: C_22  and  C_23
REMARK                            x       y       z     vdW  Elec       q    Type
REMARK                         _______ _______ _______ _____ _____    ______ ____
ROOT
ATOM      1  C   UNL     1       4.962   4.112  16.976  0.00  0.00    +0.000 C 
ATOM      2  O   UNL     1       5.074   3.635  15.848  0.00  0.00    +0.000 OA
ATOM      3  N   UNL     1       3.982   3.682  17.862  0.00  0.00    +0.000 N 
ATOM      4  C   UNL     1       3.061   2.609  17.520  0.00  0.00    +0.000 C 
ATOM      5  C   UNL     1       1.777   2.909  18.302  0.00  0.00    +0.000 C 
ATOM      6  C   UNL     1       2.297   3.620  19.564  0.00  0.00    +0.000 C 
ATOM      7  C   UNL     1       3.573   4.321  19.102  0.00  0.00    +0.000 C 
ENDROOT
BRANCH   1  11
ATOM      8  C   UNL     1       7.741   7.200  18.170  0.00  0.00    +0.000 A 
ATOM      9  C   UNL     1       7.824   5.912  18.709  0.00  0.00    +0.000 A 
ATOM     10  C   UNL     1       6.932   4.907  18.308  0.00  0.00    +0.000 A 
ATOM     11  C   UNL     1       5.917   5.191  17.385  0.00  0.00    +0.000 A 
ATOM     12  C   UNL     1       5.790   6.506  16.934  0.00  0.00    +0.000 A 
ATOM     13  C   UNL     1       6.717   7.489  17.276  0.00  0.00    +0.000 A 
BRANCH   8  15
ATOM     14  C   UNL     1       8.445   9.457  18.208  0.00  0.00    +0.000 C 
ATOM     15  O   UNL     1       8.656   8.109  18.622  0.00  0.00    +0.000 OA
ENDBRANCH   8  15
ENDBRANCH   1  11
BRANCH   5  16
ATOM     16  O   UNL     1       1.066   1.713  18.634  0.00  0.00    +0.000 OA
ATOM     17  H   UNL     1       0.942   1.694  19.597  0.00  0.00    +0.000 HD
ENDBRANCH   5  16
BRANCH   6  18
ATOM     18  N   UNL     1       1.389   4.579  20.212  0.00  0.00    +0.000 NA
ATOM     19  H   UNL     1       0.796   4.986  19.482  0.00  0.00    +0.000 HD
BRANCH  18  20
ATOM     20  C   UNL     1       2.097   5.685  20.865  0.00  0.00    +0.000 C 
BRANCH  20  21
ATOM     21  C   UNL     1       1.279   6.981  21.040  0.00  0.00    +0.000 C 
BRANCH  21  22
ATOM     22  C   UNL     1       1.535   7.981  19.939  0.00  0.00    +0.000 A 
ATOM     23  N   UNL     1       2.325   7.546  18.914  0.00  0.00    +0.000 NA
ATOM     24  C   UNL     1       2.555   8.401  17.895  0.00  0.00    +0.000 A 
ATOM     25  C   UNL     1       2.029   9.678  17.834  0.00  0.00    +0.000 A 
ATOM     26  C   UNL     1       1.219  10.102  18.877  0.00  0.00    +0.000 A 
ATOM     27  C   UNL     1       0.956   9.252  19.955  0.00  0.00    +0.000 A 
ATOM     28  C   UNL     1       0.070   9.712  21.072  0.00  0.00    +0.000 C 
ENDBRANCH  21  22
ENDBRANCH  20  21
ENDBRANCH  18  20
ENDBRANCH   6  18
TORSDOF 7
ENDMDL
MODEL 2
REMARK VINA RESULT:      -7.3      0.818      1.597
REMARK  Name = 
REMARK  9 active torsions:
REMARK  status: ('A' for Active; 'I' for Inactive)
REMARK    1  A    between atoms: C_1  and  O_2
REMARK    2  A    between atoms: O_2  and  C_3
REMARK    3  A    between atoms: C_6  and  C_7
REMARK    4  A    between atoms: C_11  and  O_12
REMARK    5  A    between atoms: C_13  and  N_14
REMARK    6  A    between atoms: N_14  and  C_15
REMARK    7  A    between atoms: C_15  and  C_16
REMARK    8  A    between atoms: C_16  and  C_17
REMARK    9  A    between atoms: C_22  and  C_23
REMARK                            x       y       z     vdW  Elec       q    Type
REMARK                         _______ _______ _______ _____ _____    ______ ____
ROOT
ATOM      1  C   UNL     1       5.173   4.082  17.048  0.00  0.00    +0.000 C 
ATOM      2  O   UNL     1       5.363   3.539  15.961  0.00  0.00    +0.000 OA
ATOM      3  N   UNL     1       4.150   3.685  17.900  0.00  0.00    +0.000 N 
ATOM      4  C   UNL     1       3.273   2.570  17.572  0.00  0.00    +0.000 C 
ATOM      5  C   UNL     1       1.938   2.888  18.255  0.00  0.00    +0.000 C 
ATOM      6  C   UNL     1       2.365   3.688  19.498  0.00  0.00    +0.000 C 
ATOM      7  C   UNL     1       3.653   4.390  19.070  0.00  0.00    +0.000 C 
ENDROOT
BRANCH   1  11
ATOM      8  C   UNL     1       7.810   7.305  18.207  0.00  0.00    +0.000 A 
ATOM      9  C   UNL     1       7.866   6.064  18.850  0.00  0.00    +0.000 A 
ATOM     10  C   UNL     1       7.022   5.015  18.462  0.00  0.00    +0.000 A 
ATOM     11  C   UNL     1       6.079   5.208  17.443  0.00  0.00    +0.000 A 
ATOM     12  C   UNL     1       5.971   6.482  16.883  0.00  0.00    +0.000 A 
ATOM     13  C   UNL     1       6.856   7.505  17.217  0.00  0.00    +0.000 A 
BRANCH   8  15
ATOM     14  C   UNL     1       8.452   9.580  18.156  0.00  0.00    +0.000 C 
ATOM     15  O   UNL     1       8.675   8.264  18.657  0.00  0.00    +0.000 OA
ENDBRANCH   8  15
ENDBRANCH   1  11
BRANCH   5  16
ATOM     16  O   UNL     1       1.233   1.698  18.620  0.00  0.00    +0.000 OA
ATOM     17  H   UNL     1       0.383   1.959  19.009  0.00  0.00    +0.000 HD
ENDBRANCH   5  16
BRANCH   6  18
ATOM     18  N   UNL     1       1.400   4.663  20.029  0.00  0.00    +0.000 NA
ATOM     19  H   UNL     1       0.802   4.962  19.251  0.00  0.00    +0.000 HD
BRANCH  18  20
ATOM     20  C   UNL     1       2.041   5.866  20.571  0.00  0.00    +0.000 C 
BRANCH  20  21
ATOM     21  C   UNL     1       2.047   7.090  19.633  0.00  0.00    +0.000 C 
BRANCH  21  22
ATOM     22  C   UNL     1       1.430   8.312  20.271  0.00  0.00    +0.000 A 
ATOM     23  N   UNL     1       1.261   8.253  21.624  0.00  0.00    +0.000 NA
ATOM     24  C   UNL     1       0.738   9.337  22.237  0.00  0.00    +0.000 A 
ATOM     25  C   UNL     1       0.380  10.493  21.571  0.00  0.00    +0.000 A 
ATOM     26  C   UNL     1       0.569  10.544  20.198  0.00  0.00    +0.000 A 
ATOM     27  C   UNL     1       1.105   9.444  19.521  0.00  0.00    +0.000 A 
ATOM     28  C   UNL     1       1.319   9.509  18.039  0.00  0.00    +0.000 C 
ENDBRANCH  21  22
ENDBRANCH  20  21
ENDBRANCH  18  20
ENDBRANCH   6  18
TORSDOF 7
ENDMDL
MODEL 3
REMARK VINA RESULT:      -7.2      1.505      1.958
REMARK  Name = 
REMARK  9 active torsions:
REMARK  status: ('A' for Active; 'I' for Inactive)
REMARK    1  A    between atoms: C_1  and  O_2
REMARK    2  A    between atoms: O_2  and  C_3
REMARK    3  A    between atoms: C_6  and  C_7
REMARK    4  A    between atoms: C_11  and  O_12
REMARK    5  A    between atoms: C_13  and  N_14
REMARK    6  A    between atoms: N_14  and  C_15
REMARK    7  A    between atoms: C_15  and  C_16
REMARK    8  A    between atoms: C_16  and  C_17
REMARK    9  A    between atoms: C_22  and  C_23
REMARK                            x       y       z     vdW  Elec       q    Type
REMARK                         _______ _______ _______ _____ _____    ______ ____
ROOT
ATOM      1  C   UNL     1       4.321   3.818  18.142  0.00  0.00    +0.000 C 
ATOM      2  O   UNL     1       4.345   2.802  17.449  0.00  0.00    +0.000 OA
ATOM      3  N   UNL     1       3.441   3.961  19.208  0.00  0.00    +0.000 N 
ATOM      4  C   UNL     1       2.530   2.893  19.593  0.00  0.00    +0.000 C 
ATOM      5  C   UNL     1       1.313   3.598  20.205  0.00  0.00    +0.000 C 
ATOM      6  C   UNL     1       1.921   4.869  20.822  0.00  0.00    +0.000 C 
ATOM      7  C   UNL     1       3.126   5.179  19.935  0.00  0.00    +0.000 C 
ENDROOT
BRANCH   1  11
ATOM      8  C   UNL     1       7.094   6.994  17.191  0.00  0.00    +0.000 A 
ATOM      9  C   UNL     1       7.388   6.059  18.188  0.00  0.00    +0.000 A 
ATOM     10  C   UNL     1       6.495   5.020  18.484  0.00  0.00    +0.000 A 
ATOM     11  C   UNL     1       5.272   4.926  17.806  0.00  0.00    +0.000 A 
ATOM     12  C   UNL     1       4.955   5.925  16.885  0.00  0.00    +0.000 A 
ATOM     13  C   UNL     1       5.869   6.918  16.538  0.00  0.00    +0.000 A 
BRANCH   8  15
ATOM     14  C   UNL     1       8.201   8.904  18.037  0.00  0.00    +0.000 C 
ATOM     15  O   UNL     1       8.028   7.969  16.975  0.00  0.00    +0.000 OA
ENDBRANCH   8  15
ENDBRANCH   1  11
BRANCH   5  16
ATOM     16  O   UNL     1       0.677   2.790  21.199  0.00  0.00    +0.000 OA
ATOM     17  H   UNL     1      -0.241   2.639  20.922  0.00  0.00    +0.000 HD
ENDBRANCH   5  16
BRANCH   6  18
ATOM     18  N   UNL     1       1.044   6.046  20.929  0.00  0.00    +0.000 NA
ATOM     19  H   UNL     1       0.294   5.936  20.239  0.00  0.00    +0.000 HD
BRANCH  18  20
ATOM     20  C   UNL     1       1.736   7.303  20.623  0.00  0.00    +0.000 C 
BRANCH  20  21
ATOM     21  C   UNL     1       1.343   8.504  21.508  0.00  0.00    +0.000 C 
BRANCH  21  22
ATOM     22  C   UNL     1       0.583   9.563  20.745  0.00  0.00    +0.000 A 
ATOM     23  N   UNL     1       0.821   9.611  19.401  0.00  0.00    +0.000 NA
ATOM     24  C   UNL     1       0.139  10.525  18.678  0.00  0.00    +0.000 A 
ATOM     25  C   UNL     1      -0.783  11.398  19.222  0.00  0.00    +0.000 A 
ATOM     26  C   UNL     1      -1.023  11.329  20.587  0.00  0.00    +0.000 A 
ATOM     27  C   UNL     1      -0.338  10.401  21.376  0.00  0.00    +0.000 A 
ATOM     28  C   UNL     1      -0.611  10.323  22.847  0.00  0.00    +0.000 C 
ENDBRANCH  21  22
ENDBRANCH  20  21
ENDBRANCH  18  20
ENDBRANCH   6  18
TORSDOF 7
ENDMDL
MODEL 4
REMARK VINA RESULT:      -7.2      0.573      1.231
REMARK  Name = 
REMARK  9 active torsions:
REMARK  status: ('A' for Active; 'I' for Inactive)
REMARK    1  A    between atoms: C_1  and  O_2
REMARK    2  A    between atoms: O_2  and  C_3
REMARK    3  A    between atoms: C_6  and  C_7
REMARK    4  A    between atoms: C_11  and  O_12
REMARK    5  A    between atoms: C_13  and  N_14
REMARK    6  A    between atoms: N_14  and  C_15
REMARK    7  A    between atoms: C_15  and  C_16
REMARK    8  A    between atoms: C_16  and  C_17
REMARK    9  A    between atoms: C_22  and  C_23
REMARK                            x       y       z     vdW  Elec       q    Type
REMARK                         _______ _______ _______ _____ _____    ______ ____
ROOT
ATOM      1  C   UNL     1       4.808   4.146  16.992  0.00  0.00    +0.000 C 
ATOM      2  O   UNL     1       4.864   3.716  15.842  0.00  0.00    +0.000 OA
ATOM      3  N   UNL     1       3.825   3.736  17.884  0.00  0.00    +0.000 N 
ATOM      4  C   UNL     1       2.832   2.736  17.518  0.00  0.00    +0.000 C 
ATOM      5  C   UNL     1       1.587   3.077  18.346  0.00  0.00    +0.000 C 
ATOM      6  C   UNL     1       2.179   3.696  19.624  0.00  0.00    +0.000 C 
ATOM      7  C   UNL     1       3.485   4.340  19.161  0.00  0.00    +0.000 C 
ENDROOT
BRANCH   1  11
ATOM      8  C   UNL     1       7.753   7.060  18.224  0.00  0.00    +0.000 A 
ATOM      9  C   UNL     1       6.720   7.409  17.349  0.00  0.00    +0.000 A 
ATOM     10  C   UNL     1       5.756   6.467  16.963  0.00  0.00    +0.000 A 
ATOM     11  C   UNL     1       5.837   5.146  17.424  0.00  0.00    +0.000 A 
ATOM     12  C   UNL     1       6.931   4.794  18.215  0.00  0.00    +0.000 A 
ATOM     13  C   UNL     1       7.850   5.743  18.657  0.00  0.00    +0.000 A 
BRANCH   8  15
ATOM     14  C   UNL     1       8.330   9.345  18.037  0.00  0.00    +0.000 C 
ATOM     15  O   UNL     1       8.643   8.049  18.541  0.00  0.00    +0.000 OA
ENDBRANCH   8  15
ENDBRANCH   1  11
BRANCH   5  16
ATOM     16  O   UNL     1       0.813   1.912  18.643  0.00  0.00    +0.000 OA
ATOM     17  H   UNL     1       0.705   1.405  17.823  0.00  0.00    +0.000 HD
ENDBRANCH   5  16
BRANCH   6  18
ATOM     18  N   UNL     1       1.347   4.677  20.338  0.00  0.00    +0.000 NA
ATOM     19  H   UNL     1       0.448   4.735  19.849  0.00  0.00    +0.000 HD
BRANCH  18  20
ATOM     20  C   UNL     1       1.928   6.024  20.342  0.00  0.00    +0.000 C 
BRANCH  20  21
ATOM     21  C   UNL     1       1.136   7.082  21.138  0.00  0.00    +0.000 C 
BRANCH  21  22
ATOM     22  C   UNL     1       1.140   8.435  20.467  0.00  0.00    +0.000 A 
ATOM     23  N   UNL     1       1.604   8.459  19.184  0.00  0.00    +0.000 NA
ATOM     24  C   UNL     1       1.598   9.645  18.539  0.00  0.00    +0.000 A 
ATOM     25  C   UNL     1       1.141  10.821  19.103  0.00  0.00    +0.000 A 
ATOM     26  C   UNL     1       0.660  10.778  20.404  0.00  0.00    +0.000 A 
ATOM     27  C   UNL     1       0.650   9.573  21.112  0.00  0.00    +0.000 A 
ATOM     28  C   UNL     1       0.118   9.531  22.512  0.00  0.00    +0.000 C 
ENDBRANCH  21  22
ENDBRANCH  20  21
ENDBRANCH  18  20
ENDBRANCH   6  18
TORSDOF 7
ENDMDL
MODEL 5
REMARK VINA RESULT:      -7.1      2.990      4.337
REMARK  Name = 
REMARK  9 active torsions:
REMARK  status: ('A' for Active; 'I' for Inactive)
REMARK    1  A    between atoms: C_1  and  O_2
REMARK    2  A    between atoms: O_2  and  C_3
REMARK    3  A    between atoms: C_6  and  C_7
REMARK    4  A    between atoms: C_11  and  O_12
REMARK    5  A    between atoms: C_13  and  N_14
REMARK    6  A    between atoms: N_14  and  C_15
REMARK    7  A    between atoms: C_15  and  C_16
REMARK    8  A    between atoms: C_16  and  C_17
REMARK    9  A    between atoms: C_22  and  C_23
REMARK                            x       y       z     vdW  Elec       q    Type
REMARK                         _______ _______ _______ _____ _____    ______ ____
ROOT
ATOM      1  C   UNL     1       4.784   4.536  18.119  0.00  0.00    +0.000 C 
ATOM      2  O   UNL     1       4.854   3.500  18.777  0.00  0.00    +0.000 OA
ATOM      3  N   UNL     1       4.079   5.646  18.566  0.00  0.00    +0.000 N 
ATOM      4  C   UNL     1       3.420   5.660  19.864  0.00  0.00    +0.000 C 
ATOM      5  C   UNL     1       2.224   6.606  19.704  0.00  0.00    +0.000 C 
ATOM      6  C   UNL     1       2.719   7.617  18.655  0.00  0.00    +0.000 C 
ATOM      7  C   UNL     1       3.700   6.819  17.796  0.00  0.00    +0.000 C 
ENDROOT
BRANCH   1  11
ATOM      8  C   UNL     1       6.767   4.659  14.280  0.00  0.00    +0.000 A 
ATOM      9  C   UNL     1       5.438   4.236  14.389  0.00  0.00    +0.000 A 
ATOM     10  C   UNL     1       4.791   4.212  15.633  0.00  0.00    +0.000 A 
ATOM     11  C   UNL     1       5.483   4.580  16.794  0.00  0.00    +0.000 A 
ATOM     12  C   UNL     1       6.836   4.903  16.677  0.00  0.00    +0.000 A 
ATOM     13  C   UNL     1       7.461   4.996  15.436  0.00  0.00    +0.000 A 
BRANCH   8  15
ATOM     14  C   UNL     1       6.767   3.681  12.127  0.00  0.00    +0.000 C 
ATOM     15  O   UNL     1       7.308   4.648  13.024  0.00  0.00    +0.000 OA
ENDBRANCH   8  15
ENDBRANCH   1  11
BRANCH   5  16
ATOM     16  O   UNL     1       1.892   7.254  20.935  0.00  0.00    +0.000 OA
ATOM     17  H   UNL     1       1.644   6.570  21.578  0.00  0.00    +0.000 HD
ENDBRANCH   5  16
BRANCH   6  18
ATOM     18  N   UNL     1       1.698   8.256  17.811  0.00  0.00    +0.000 NA
ATOM     19  H   UNL     1       1.983   8.135  16.833  0.00  0.00    +0.000 HD
BRANCH  18  20
ATOM     20  C   UNL     1       1.579   9.699  18.052  0.00  0.00    +0.000 C 
BRANCH  20  21
ATOM     21  C   UNL     1       0.533  10.106  19.110  0.00  0.00    +0.000 C 
BRANCH  21  22
ATOM     22  C   UNL     1      -0.810  10.435  18.501  0.00  0.00    +0.000 A 
ATOM     23  N   UNL     1      -1.126   9.755  17.360  0.00  0.00    +0.000 NA
ATOM     24  C   UNL     1      -2.330  10.000  16.800  0.00  0.00    +0.000 A 
ATOM     25  C   UNL     1      -3.251  10.886  17.323  0.00  0.00    +0.000 A 
ATOM     26  C   UNL     1      -2.921  11.561  18.490  0.00  0.00    +0.000 A 
ATOM     27  C   UNL     1      -1.684  11.342  19.103  0.00  0.00    +0.000 A 
ATOM     28  C   UNL     1      -1.339  12.063  20.370  0.00  0.00    +0.000 C 
ENDBRANCH  21  22
ENDBRANCH  20  21
ENDBRANCH  18  20
ENDBRANCH   6  18
TORSDOF 7
ENDMDL
MODEL 6
REMARK VINA RESULT:      -7.0      0.979      2.072
REMARK  Name = 
REMARK  9 active torsions:
REMARK  status: ('A' for Active; 'I' for Inactive)
REMARK    1  A    between atoms: C_1  and  O_2
REMARK    2  A    between atoms: O_2  and  C_3
REMARK    3  A    between atoms: C_6  and  C_7
REMARK    4  A    between atoms: C_11  and  O_12
REMARK    5  A    between atoms: C_13  and  N_14
REMARK    6  A    between atoms: N_14  and  C_15
REMARK    7  A    between atoms: C_15  and  C_16
REMARK    8  A    between atoms: C_16  and  C_17
REMARK    9  A    between atoms: C_22  and  C_23
REMARK                            x       y       z     vdW  Elec       q    Type
REMARK                         _______ _______ _______ _____ _____    ______ ____
ROOT
ATOM      1  C   UNL     1       4.775   4.158  17.220  0.00  0.00    +0.000 C 
ATOM      2  O   UNL     1       4.882   3.599  16.131  0.00  0.00    +0.000 OA
ATOM      3  N   UNL     1       3.719   3.893  18.083  0.00  0.00    +0.000 N 
ATOM      4  C   UNL     1       2.703   2.901  17.763  0.00  0.00    +0.000 C 
ATOM      5  C   UNL     1       1.426   3.384  18.462  0.00  0.00    +0.000 C 
ATOM      6  C   UNL     1       1.966   4.120  19.701  0.00  0.00    +0.000 C 
ATOM      7  C   UNL     1       3.329   4.652  19.260  0.00  0.00    +0.000 C 
ENDROOT
BRANCH   1  11
ATOM      8  C   UNL     1       7.775   7.069  18.320  0.00  0.00    +0.000 A 
ATOM      9  C   UNL     1       6.808   7.365  17.354  0.00  0.00    +0.000 A 
ATOM     10  C   UNL     1       5.825   6.425  17.010  0.00  0.00    +0.000 A 
ATOM     11  C   UNL     1       5.822   5.158  17.607  0.00  0.00    +0.000 A 
ATOM     12  C   UNL     1       6.854   4.848  18.494  0.00  0.00    +0.000 A 
ATOM     13  C   UNL     1       7.789   5.802  18.890  0.00  0.00    +0.000 A 
BRANCH   8  15
ATOM     14  C   UNL     1       8.360   9.349  18.099  0.00  0.00    +0.000 C 
ATOM     15  O   UNL     1       8.689   8.050  18.587  0.00  0.00    +0.000 OA
ENDBRANCH   8  15
ENDBRANCH   1  11
BRANCH   5  16
ATOM     16  O   UNL     1       0.579   2.294  18.833  0.00  0.00    +0.000 OA
ATOM     17  H   UNL     1      -0.333   2.526  18.595  0.00  0.00    +0.000 HD
ENDBRANCH   5  16
BRANCH   6  18
ATOM     18  N   UNL     1       1.140   5.209  20.245  0.00  0.00    +0.000 NA
ATOM     19  H   UNL     1       0.575   5.582  19.475  0.00  0.00    +0.000 HD
BRANCH  18  20
ATOM     20  C   UNL     1       1.937   6.319  20.778  0.00  0.00    +0.000 C 
BRANCH  20  21
ATOM     21  C   UNL     1       1.830   7.644  19.995  0.00  0.00    +0.000 C 
BRANCH  21  22
ATOM     22  C   UNL     1       1.013   8.684  20.724  0.00  0.00    +0.000 A 
ATOM     23  N   UNL     1       0.963   8.554  22.082  0.00  0.00    +0.000 NA
ATOM     24  C   UNL     1       0.267   9.481  22.773  0.00  0.00    +0.000 A 
ATOM     25  C   UNL     1      -0.383  10.548  22.183  0.00  0.00    +0.000 A 
ATOM     26  C   UNL     1      -0.313  10.674  20.803  0.00  0.00    +0.000 A 
ATOM     27  C   UNL     1       0.394   9.736  20.045  0.00  0.00    +0.000 A 
ATOM     28  C   UNL     1       0.477   9.884  18.557  0.00  0.00    +0.000 C 
ENDBRANCH  21  22
ENDBRANCH  20  21
ENDBRANCH  18  20
ENDBRANCH   6  18
TORSDOF 7
ENDMDL
MODEL 7
REMARK VINA RESULT:      -7.0      3.244      7.015
REMARK  Name = 
REMARK  9 active torsions:
REMARK  status: ('A' for Active; 'I' for Inactive)
REMARK    1  A    between atoms: C_1  and  O_2
REMARK    2  A    between atoms: O_2  and  C_3
REMARK    3  A    between atoms: C_6  and  C_7
REMARK    4  A    between atoms: C_11  and  O_12
REMARK    5  A    between atoms: C_13  and  N_14
REMARK    6  A    between atoms: N_14  and  C_15
REMARK    7  A    between atoms: C_15  and  C_16
REMARK    8  A    between atoms: C_16  and  C_17
REMARK    9  A    between atoms: C_22  and  C_23
REMARK                            x       y       z     vdW  Elec       q    Type
REMARK                         _______ _______ _______ _____ _____    ______ ____
ROOT
ATOM      1  C   UNL     1       3.417   5.886  17.935  0.00  0.00    +0.000 C 
ATOM      2  O   UNL     1       2.849   4.796  17.920  0.00  0.00    +0.000 OA
ATOM      3  N   UNL     1       4.732   6.037  17.513  0.00  0.00    +0.000 N 
ATOM      4  C   UNL     1       5.497   4.917  16.985  0.00  0.00    +0.000 C 
ATOM      5  C   UNL     1       6.959   5.223  17.331  0.00  0.00    +0.000 C 
ATOM      6  C   UNL     1       7.007   6.760  17.309  0.00  0.00    +0.000 C 
ATOM      7  C   UNL     1       5.597   7.187  17.715  0.00  0.00    +0.000 C 
ENDROOT
BRANCH   1  11
ATOM      8  C   UNL     1       1.202   9.325  19.334  0.00  0.00    +0.000 A 
ATOM      9  C   UNL     1       1.629   9.238  18.005  0.00  0.00    +0.000 A 
ATOM     10  C   UNL     1       2.333   8.114  17.548  0.00  0.00    +0.000 A 
ATOM     11  C   UNL     1       2.652   7.075  18.433  0.00  0.00    +0.000 A 
ATOM     12  C   UNL     1       2.304   7.226  19.775  0.00  0.00    +0.000 A 
ATOM     13  C   UNL     1       1.543   8.307  20.217  0.00  0.00    +0.000 A 
BRANCH   8  15
ATOM     14  C   UNL     1      -0.841  10.512  19.266  0.00  0.00    +0.000 C 
ATOM     15  O   UNL     1       0.522  10.458  19.682  0.00  0.00    +0.000 OA
ENDBRANCH   8  15
ENDBRANCH   1  11
BRANCH   5  16
ATOM     16  O   UNL     1       7.860   4.660  16.373  0.00  0.00    +0.000 OA
ATOM     17  H   UNL     1       7.425   4.677  15.506  0.00  0.00    +0.000 HD
ENDBRANCH   5  16
BRANCH   6  18
ATOM     18  N   UNL     1       8.009   7.410  18.168  0.00  0.00    +0.000 NA
ATOM     19  H   UNL     1       7.648   7.399  19.128  0.00  0.00    +0.000 HD
BRANCH  18  20
ATOM     20  C   UNL     1       8.247   8.812  17.809  0.00  0.00    +0.000 C 
BRANCH  20  21
ATOM     21  C   UNL     1       8.960   9.657  18.884  0.00  0.00    +0.000 C 
BRANCH  21  22
ATOM     22  C   UNL     1       9.097  11.107  18.485  0.00  0.00    +0.000 A 
ATOM     23  N   UNL     1       8.095  11.605  17.702  0.00  0.00    +0.000 NA
ATOM     24  C   UNL     1       8.166  12.905  17.347  0.00  0.00    +0.000 A 
ATOM     25  C   UNL     1       9.186  13.751  17.740  0.00  0.00    +0.000 A 
ATOM     26  C   UNL     1      10.191  13.235  18.545  0.00  0.00    +0.000 A 
ATOM     27  C   UNL     1      10.161  11.893  18.935  0.00  0.00    +0.000 A 
ATOM     28  C   UNL     1      11.242  11.345  19.815  0.00  0.00    +0.000 C 
ENDBRANCH  21  22
ENDBRANCH  20  21
ENDBRANCH  18  20
ENDBRANCH   6  18
TORSDOF 7
ENDMDL
MODEL 8
REMARK VINA RESULT:      -6.9      1.595      2.571
REMARK  Name = 
REMARK  9 active torsions:
REMARK  status: ('A' for Active; 'I' for Inactive)
REMARK    1  A    between atoms: C_1  and  O_2
REMARK    2  A    between atoms: O_2  and  C_3
REMARK    3  A    between atoms: C_6  and  C_7
REMARK    4  A    between atoms: C_11  and  O_12
REMARK    5  A    between atoms: C_13  and  N_14
REMARK    6  A    between atoms: N_14  and  C_15
REMARK    7  A    between atoms: C_15  and  C_16
REMARK    8  A    between atoms: C_16  and  C_17
REMARK    9  A    between atoms: C_22  and  C_23
REMARK                            x       y       z     vdW  Elec       q    Type
REMARK                         _______ _______ _______ _____ _____    ______ ____
ROOT
ATOM      1  C   UNL     1       4.595   4.266  18.187  0.00  0.00    +0.000 C 
ATOM      2  O   UNL     1       4.655   3.273  17.464  0.00  0.00    +0.000 OA
ATOM      3  N   UNL     1       3.630   4.397  19.177  0.00  0.00    +0.000 N 
ATOM      4  C   UNL     1       2.662   3.343  19.445  0.00  0.00    +0.000 C 
ATOM      5  C   UNL     1       1.414   4.060  19.973  0.00  0.00    +0.000 C 
ATOM      6  C   UNL     1       1.997   5.293  20.684  0.00  0.00    +0.000 C 
ATOM      7  C   UNL     1       3.282   5.599  19.916  0.00  0.00    +0.000 C 
ENDROOT
BRANCH   1  11
ATOM      8  C   UNL     1       7.517   7.394  17.588  0.00  0.00    +0.000 A 
ATOM      9  C   UNL     1       7.720   6.396  18.547  0.00  0.00    +0.000 A 
ATOM     10  C   UNL     1       6.779   5.372  18.728  0.00  0.00    +0.000 A 
ATOM     11  C   UNL     1       5.599   5.357  17.973  0.00  0.00    +0.000 A 
ATOM     12  C   UNL     1       5.370   6.416  17.093  0.00  0.00    +0.000 A 
ATOM     13  C   UNL     1       6.333   7.395  16.860  0.00  0.00    +0.000 A 
BRANCH   8  15
ATOM     14  C   UNL     1       8.470   9.363  18.486  0.00  0.00    +0.000 C 
ATOM     15  O   UNL     1       8.492   8.347  17.486  0.00  0.00    +0.000 OA
ENDBRANCH   8  15
ENDBRANCH   1  11
BRANCH   5  16
ATOM     16  O   UNL     1       0.675   3.238  20.880  0.00  0.00    +0.000 OA
ATOM     17  H   UNL     1      -0.253   3.524  20.857  0.00  0.00    +0.000 HD
ENDBRANCH   5  16
BRANCH   6  18
ATOM     18  N   UNL     1       1.143   6.489  20.756  0.00  0.00    +0.000 NA
ATOM     19  H   UNL     1       0.384   6.368  20.077  0.00  0.00    +0.000 HD
BRANCH  18  20
ATOM     20  C   UNL     1       1.854   7.722  20.397  0.00  0.00    +0.000 C 
BRANCH  20  21
ATOM     21  C   UNL     1       0.966   8.863  19.860  0.00  0.00    +0.000 C 
BRANCH  21  22
ATOM     22  C   UNL     1       0.224   9.586  20.959  0.00  0.00    +0.000 A 
ATOM     23  N   UNL     1       0.368   9.066  22.214  0.00  0.00    +0.000 NA
ATOM     24  C   UNL     1      -0.256   9.701  23.229  0.00  0.00    +0.000 A 
ATOM     25  C   UNL     1      -1.018  10.842  23.065  0.00  0.00    +0.000 A 
ATOM     26  C   UNL     1      -1.146  11.365  21.786  0.00  0.00    +0.000 A 
ATOM     27  C   UNL     1      -0.519  10.740  20.704  0.00  0.00    +0.000 A 
ATOM     28  C   UNL     1      -0.650  11.318  19.328  0.00  0.00    +0.000 C 
ENDBRANCH  21  22
ENDBRANCH  20  21
ENDBRANCH  18  20
ENDBRANCH   6  18
TORSDOF 7
ENDMDL
MODEL 9
REMARK VINA RESULT:      -6.9      2.974      6.497
REMARK  Name = 
REMARK  9 active torsions:
REMARK  status: ('A' for Active; 'I' for Inactive)
REMARK    1  A    between atoms: C_1  and  O_2
REMARK    2  A    between atoms: O_2  and  C_3
REMARK    3  A    between atoms: C_6  and  C_7
REMARK    4  A    between atoms: C_11  and  O_12
REMARK    5  A    between atoms: C_13  and  N_14
REMARK    6  A    between atoms: N_14  and  C_15
REMARK    7  A    between atoms: C_15  and  C_16
REMARK    8  A    between atoms: C_16  and  C_17
REMARK    9  A    between atoms: C_22  and  C_23
REMARK                            x       y       z     vdW  Elec       q    Type
REMARK                         _______ _______ _______ _____ _____    ______ ____
ROOT
ATOM      1  C   UNL     1       2.064   5.758  20.099  0.00  0.00    +0.000 C 
ATOM      2  O   UNL     1       1.240   5.304  20.891  0.00  0.00    +0.000 OA
ATOM      3  N   UNL     1       3.114   4.991  19.609  0.00  0.00    +0.000 N 
ATOM      4  C   UNL     1       3.270   3.590  19.972  0.00  0.00    +0.000 C 
ATOM      5  C   UNL     1       4.777   3.317  19.909  0.00  0.00    +0.000 C 
ATOM      6  C   UNL     1       5.258   4.281  18.810  0.00  0.00    +0.000 C 
ATOM      7  C   UNL     1       4.287   5.458  18.889  0.00  0.00    +0.000 C 
ENDROOT
BRANCH   1  11
ATOM      8  C   UNL     1       1.635   9.885  18.889  0.00  0.00    +0.000 A 
ATOM      9  C   UNL     1       1.230   9.463  20.159  0.00  0.00    +0.000 A 
ATOM     10  C   UNL     1       1.385   8.128  20.556  0.00  0.00    +0.000 A 
ATOM     11  C   UNL     1       1.917   7.185  19.667  0.00  0.00    +0.000 A 
ATOM     12  C   UNL     1       2.222   7.605  18.371  0.00  0.00    +0.000 A 
ATOM     13  C   UNL     1       2.135   8.944  17.997  0.00  0.00    +0.000 A 
BRANCH   8  15
ATOM     14  C   UNL     1       0.254  11.790  19.123  0.00  0.00    +0.000 C 
ATOM     15  O   UNL     1       1.443  11.207  18.596  0.00  0.00    +0.000 OA
ENDBRANCH   8  15
ENDBRANCH   1  11
BRANCH   5  16
ATOM     16  O   UNL     1       5.056   1.958  19.566  0.00  0.00    +0.000 OA
ATOM     17  H   UNL     1       4.212   1.510  19.398  0.00  0.00    +0.000 HD
ENDBRANCH   5  16
BRANCH   6  18
ATOM     18  N   UNL     1       6.648   4.755  18.899  0.00  0.00    +0.000 NA
ATOM     19  H   UNL     1       6.623   5.736  19.196  0.00  0.00    +0.000 HD
BRANCH  18  20
ATOM     20  C   UNL     1       7.351   4.708  17.612  0.00  0.00    +0.000 C 
BRANCH  20  21
ATOM     21  C   UNL     1       6.880   5.737  16.565  0.00  0.00    +0.000 C 
BRANCH  21  22
ATOM     22  C   UNL     1       6.841   5.166  15.167  0.00  0.00    +0.000 A 
ATOM     23  N   UNL     1       7.880   5.516  14.354  0.00  0.00    +0.000 NA
ATOM     24  C   UNL     1       7.896   5.003  13.105  0.00  0.00    +0.000 A 
ATOM     25  C   UNL     1       6.931   4.144  12.618  0.00  0.00    +0.000 A 
ATOM     26  C   UNL     1       5.887   3.787  13.460  0.00  0.00    +0.000 A 
ATOM     27  C   UNL     1       5.827   4.296  14.760  0.00  0.00    +0.000 A 
ATOM     28  C   UNL     1       4.705   3.897  15.669  0.00  0.00    +0.000 C 
ENDBRANCH  21  22
ENDBRANCH  20  21
ENDBRANCH  18  20
ENDBRANCH   6  18
TORSDOF 7
ENDMDL
