MODEL 1
REMARK VINA RESULT:      -6.1      0.000      0.000
REMARK  Name = 
REMARK  4 active torsions:
REMARK  status: ('A' for Active; 'I' for Inactive)
REMARK    1  A    between atoms: C_3  and  N_4
REMARK    2  A    between atoms: N_4  and  S_5
REMARK    3  A    between atoms: S_5  and  C_8
REMARK    4  A    between atoms: C_14  and  C_15
REMARK                            x       y       z     vdW  Elec       q    Type
REMARK                         _______ _______ _______ _____ _____    ______ ____
ROOT
ATOM      1  O   UNL     1       1.986  10.175  17.253  0.00  0.00    +0.000 OA
ATOM      2  C   UNL     1       1.563  10.017  18.394  0.00  0.00    +0.000 C 
ATOM      3  C   UNL     1       0.849  11.116  19.093  0.00  0.00    +0.000 C 
ATOM      4  C   UNL     1       0.107  10.919  20.196  0.00  0.00    +0.000 C 
ATOM      5  C   UNL     1       0.107   9.564  20.830  0.00  0.00    +0.000 C 
ATOM      6  O   UNL     1      -0.607   9.302  21.791  0.00  0.00    +0.000 OA
ATOM      7  C   UNL     1       1.013   8.532  20.294  0.00  0.00    +0.000 A 
ATOM      8  C   UNL     1       1.155   7.317  20.978  0.00  0.00    +0.000 A 
ATOM      9  C   UNL     1       2.017   6.336  20.491  0.00  0.00    +0.000 A 
ATOM     10  C   UNL     1       2.731   6.555  19.313  0.00  0.00    +0.000 A 
ATOM     11  C   UNL     1       2.581   7.758  18.621  0.00  0.00    +0.000 A 
ATOM     12  C   UNL     1       1.723   8.750  19.117  0.00  0.00    +0.000 A 
ENDROOT
BRANCH   4  13
ATOM     13  C   UNL     1      -0.765  11.950  20.799  0.00  0.00    +0.000 A 
ATOM     14  C   UNL     1      -0.341  12.583  21.977  0.00  0.00    +0.000 A 
ATOM     15  C   UNL     1      -1.118  13.572  22.577  0.00  0.00    +0.000 A 
ATOM     16  C   UNL     1      -2.353  13.912  22.033  0.00  0.00    +0.000 A 
ATOM     17  C   UNL     1      -2.809  13.264  20.884  0.00  0.00    +0.000 A 
ATOM     18  C   UNL     1      -2.018  12.290  20.264  0.00  0.00    +0.000 A 
ATOM     19 CL   UNL     1      -2.642  11.522  18.845  0.00  0.00    +0.000 Cl
ENDBRANCH   4  13
BRANCH   3  20
ATOM     20  N   UNL     1       0.791  12.392  18.431  0.00  0.00    +0.000 N 
ATOM     21  H   UNL     1       0.928  12.280  17.422  0.00  0.00    +0.000 HD
BRANCH  20  22
ATOM     22  S   UNL     1       1.960  13.527  18.969  0.00  0.00    +0.000 S 
ATOM     23  O   UNL     1       2.614  12.936  20.117  0.00  0.00    +0.000 OA
ATOM     24  O   UNL     1       2.716  14.009  17.834  0.00  0.00    +0.000 OA
BRANCH  22  25
ATOM     25  C   UNL     1       1.017  14.906  19.581  0.00  0.00    +0.000 A 
ATOM     26  C   UNL     1      -0.190  15.242  18.966  0.00  0.00    +0.000 A 
ATOM     27  C   UNL     1      -0.930  16.315  19.461  0.00  0.00    +0.000 A 
ATOM     28  C   UNL     1      -0.481  17.022  20.578  0.00  0.00    +0.000 A 
ATOM     29  C   UNL     1       0.710  16.660  21.208  0.00  0.00    +0.000 A 
ATOM     30  C   UNL     1       1.465  15.600  20.710  0.00  0.00    +0.000 A 
ENDBRANCH  22  25
ENDBRANCH  20  22
ENDBRANCH   3  20
TORSDOF 4
ENDMDL
MODEL 2
REMARK VINA RESULT:      -6.1      0.828      1.127
REMARK  Name = 
REMARK  4 active torsions:
REMARK  status: ('A' for Active; 'I' for Inactive)
REMARK    1  A    between atoms: C_3  and  N_4
REMARK    2  A    between atoms: N_4  and  S_5
REMARK    3  A    between atoms: S_5  and  C_8
REMARK    4  A    between atoms: C_14  and  C_15
REMARK                            x       y       z     vdW  Elec       q    Type
REMARK                         _______ _______ _______ _____ _____    ______ ____
ROOT
ATOM      1  O   UNL     1       2.161   9.907  17.261  0.00  0.00    +0.000 OA
ATOM      2  C   UNL     1       1.708   9.728  18.387  0.00  0.00    +0.000 C 
ATOM      3  C   UNL     1       0.964  10.810  19.082  0.00  0.00    +0.000 C 
ATOM      4  C   UNL     1       0.193  10.590  20.160  0.00  0.00    +0.000 C 
ATOM      5  C   UNL     1       0.188   9.227  20.773  0.00  0.00    +0.000 C 
ATOM      6  O   UNL     1      -0.550   8.944  21.710  0.00  0.00    +0.000 OA
ATOM      7  C   UNL     1       1.117   8.211  20.249  0.00  0.00    +0.000 A 
ATOM      8  C   UNL     1       1.251   6.987  20.918  0.00  0.00    +0.000 A 
ATOM      9  C   UNL     1       2.136   6.020  20.441  0.00  0.00    +0.000 A 
ATOM     10  C   UNL     1       2.880   6.263  19.288  0.00  0.00    +0.000 A 
ATOM     11  C   UNL     1       2.739   7.475  18.609  0.00  0.00    +0.000 A 
ATOM     12  C   UNL     1       1.858   8.452  19.095  0.00  0.00    +0.000 A 
ENDROOT
BRANCH   4  13
ATOM     13  C   UNL     1      -0.704  11.605  20.753  0.00  0.00    +0.000 A 
ATOM     14  C   UNL     1      -0.336  12.198  21.970  0.00  0.00    +0.000 A 
ATOM     15  C   UNL     1      -1.140  13.171  22.563  0.00  0.00    +0.000 A 
ATOM     16  C   UNL     1      -2.346  13.532  21.971  0.00  0.00    +0.000 A 
ATOM     17  C   UNL     1      -2.746  12.924  20.782  0.00  0.00    +0.000 A 
ATOM     18  C   UNL     1      -1.929  11.967  20.170  0.00  0.00    +0.000 A 
ATOM     19 CL   UNL     1      -2.485  11.247  18.697  0.00  0.00    +0.000 Cl
ENDBRANCH   4  13
BRANCH   3  20
ATOM     20  N   UNL     1       0.914  12.096  18.437  0.00  0.00    +0.000 N 
ATOM     21  H   UNL     1       0.968  11.990  17.419  0.00  0.00    +0.000 HD
BRANCH  20  22
ATOM     22  S   UNL     1       2.171  13.170  18.892  0.00  0.00    +0.000 S 
ATOM     23  O   UNL     1       2.436  12.930  20.295  0.00  0.00    +0.000 OA
ATOM     24  O   UNL     1       3.227  13.117  17.905  0.00  0.00    +0.000 OA
BRANCH  22  25
ATOM     25  C   UNL     1       1.452  14.794  18.787  0.00  0.00    +0.000 A 
ATOM     26  C   UNL     1       2.247  15.877  18.411  0.00  0.00    +0.000 A 
ATOM     27  C   UNL     1       1.672  17.143  18.316  0.00  0.00    +0.000 A 
ATOM     28  C   UNL     1       0.310  17.317  18.565  0.00  0.00    +0.000 A 
ATOM     29  C   UNL     1      -0.487  16.224  18.910  0.00  0.00    +0.000 A 
ATOM     30  C   UNL     1       0.082  14.957  19.023  0.00  0.00    +0.000 A 
ENDBRANCH  22  25
ENDBRANCH  20  22
ENDBRANCH   3  20
TORSDOF 4
ENDMDL
MODEL 3
REMARK VINA RESULT:      -6.1      2.135      3.789
REMARK  Name = 
REMARK  4 active torsions:
REMARK  status: ('A' for Active; 'I' for Inactive)
REMARK    1  A    between atoms: C_3  and  N_4
REMARK    2  A    between atoms: N_4  and  S_5
REMARK    3  A    between atoms: S_5  and  C_8
REMARK    4  A    between atoms: C_14  and  C_15
REMARK                            x       y       z     vdW  Elec       q    Type
REMARK                         _______ _______ _______ _____ _____    ______ ____
ROOT
ATOM      1  O   UNL     1       1.133   7.210  21.636  0.00  0.00    +0.000 OA
ATOM      2  C   UNL     1       1.312   7.697  20.524  0.00  0.00    +0.000 C 
ATOM      3  C   UNL     1       0.577   8.920  20.109  0.00  0.00    +0.000 C 
ATOM      4  C   UNL     1       0.941   9.668  19.054  0.00  0.00    +0.000 C 
ATOM      5  C   UNL     1       2.047   9.179  18.175  0.00  0.00    +0.000 C 
ATOM      6  O   UNL     1       2.475   9.851  17.243  0.00  0.00    +0.000 OA
ATOM      7  C   UNL     1       2.614   7.843  18.427  0.00  0.00    +0.000 A 
ATOM      8  C   UNL     1       3.527   7.297  17.514  0.00  0.00    +0.000 A 
ATOM      9  C   UNL     1       4.063   6.028  17.732  0.00  0.00    +0.000 A 
ATOM     10  C   UNL     1       3.703   5.304  18.867  0.00  0.00    +0.000 A 
ATOM     11  C   UNL     1       2.805   5.849  19.787  0.00  0.00    +0.000 A 
ATOM     12  C   UNL     1       2.257   7.120  19.562  0.00  0.00    +0.000 A 
ENDROOT
BRANCH   4  13
ATOM     13  C   UNL     1       0.349  10.985  18.733  0.00  0.00    +0.000 A 
ATOM     14  C   UNL     1       1.104  12.139  18.987  0.00  0.00    +0.000 A 
ATOM     15  C   UNL     1       0.599  13.404  18.689  0.00  0.00    +0.000 A 
ATOM     16  C   UNL     1      -0.687  13.535  18.175  0.00  0.00    +0.000 A 
ATOM     17  C   UNL     1      -1.467  12.400  17.953  0.00  0.00    +0.000 A 
ATOM     18  C   UNL     1      -0.952  11.128  18.226  0.00  0.00    +0.000 A 
ATOM     19 CL   UNL     1      -1.971   9.760  17.932  0.00  0.00    +0.000 Cl
ENDBRANCH   4  13
BRANCH   3  20
ATOM     20  N   UNL     1      -0.431   9.420  21.006  0.00  0.00    +0.000 N 
ATOM     21  H   UNL     1      -1.143   9.947  20.490  0.00  0.00    +0.000 HD
BRANCH  20  22
ATOM     22  S   UNL     1       0.162  10.460  22.235  0.00  0.00    +0.000 S 
ATOM     23  O   UNL     1      -0.262   9.895  23.498  0.00  0.00    +0.000 OA
ATOM     24  O   UNL     1       1.552  10.765  21.974  0.00  0.00    +0.000 OA
BRANCH  22  25
ATOM     25  C   UNL     1      -0.743  11.978  22.032  0.00  0.00    +0.000 A 
ATOM     26  C   UNL     1      -0.099  13.197  22.249  0.00  0.00    +0.000 A 
ATOM     27  C   UNL     1      -0.812  14.383  22.074  0.00  0.00    +0.000 A 
ATOM     28  C   UNL     1      -2.143  14.348  21.656  0.00  0.00    +0.000 A 
ATOM     29  C   UNL     1      -2.771  13.126  21.409  0.00  0.00    +0.000 A 
ATOM     30  C   UNL     1      -2.072  11.935  21.598  0.00  0.00    +0.000 A 
ENDBRANCH  22  25
ENDBRANCH  20  22
ENDBRANCH   3  20
TORSDOF 4
ENDMDL
MODEL 4
REMARK VINA RESULT:      -6.1      3.664      5.422
REMARK  Name = 
REMARK  4 active torsions:
REMARK  status: ('A' for Active; 'I' for Inactive)
REMARK    1  A    between atoms: C_3  and  N_4
REMARK    2  A    between atoms: N_4  and  S_5
REMARK    3  A    between atoms: S_5  and  C_8
REMARK    4  A    between atoms: C_14  and  C_15
REMARK                            x       y       z     vdW  Elec       q    Type
REMARK                         _______ _______ _______ _____ _____    ______ ____
ROOT
ATOM      1  O   UNL     1      -2.947  11.912  18.251  0.00  0.00    +0.000 OA
ATOM      2  C   UNL     1      -2.242  11.871  19.254  0.00  0.00    +0.000 C 
ATOM      3  C   UNL     1      -2.571  12.698  20.443  0.00  0.00    +0.000 C 
ATOM      4  C   UNL     1      -2.037  12.479  21.657  0.00  0.00    +0.000 C 
ATOM      5  C   UNL     1      -0.962  11.448  21.792  0.00  0.00    +0.000 C 
ATOM      6  O   UNL     1      -0.490  11.149  22.883  0.00  0.00    +0.000 OA
ATOM      7  C   UNL     1      -0.446  10.799  20.574  0.00  0.00    +0.000 A 
ATOM      8  C   UNL     1       0.675   9.961  20.661  0.00  0.00    +0.000 A 
ATOM      9  C   UNL     1       1.184   9.350  19.516  0.00  0.00    +0.000 A 
ATOM     10  C   UNL     1       0.569   9.559  18.282  0.00  0.00    +0.000 A 
ATOM     11  C   UNL     1      -0.556  10.381  18.193  0.00  0.00    +0.000 A 
ATOM     12  C   UNL     1      -1.061  11.005  19.343  0.00  0.00    +0.000 A 
ENDROOT
BRANCH   4  13
ATOM     13  C   UNL     1      -2.487  13.158  22.891  0.00  0.00    +0.000 A 
ATOM     14  C   UNL     1      -3.414  12.506  23.717  0.00  0.00    +0.000 A 
ATOM     15  C   UNL     1      -3.858  13.096  24.899  0.00  0.00    +0.000 A 
ATOM     16  C   UNL     1      -3.417  14.367  25.250  0.00  0.00    +0.000 A 
ATOM     17  C   UNL     1      -2.525  15.048  24.420  0.00  0.00    +0.000 A 
ATOM     18  C   UNL     1      -2.056  14.446  23.247  0.00  0.00    +0.000 A 
ATOM     19 CL   UNL     1      -0.955  15.344  22.259  0.00  0.00    +0.000 Cl
ENDBRANCH   4  13
BRANCH   3  20
ATOM     20  N   UNL     1      -3.661  13.630  20.318  0.00  0.00    +0.000 N 
ATOM     21  H   UNL     1      -3.616  14.338  21.057  0.00  0.00    +0.000 HD
BRANCH  20  22
ATOM     22  S   UNL     1      -5.219  12.918  20.406  0.00  0.00    +0.000 S 
ATOM     23  O   UNL     1      -5.953  13.380  19.247  0.00  0.00    +0.000 OA
ATOM     24  O   UNL     1      -5.086  11.508  20.701  0.00  0.00    +0.000 OA
BRANCH  22  25
ATOM     25  C   UNL     1      -5.990  13.668  21.823  0.00  0.00    +0.000 A 
ATOM     26  C   UNL     1      -5.721  15.003  22.127  0.00  0.00    +0.000 A 
ATOM     27  C   UNL     1      -6.341  15.587  23.231  0.00  0.00    +0.000 A 
ATOM     28  C   UNL     1      -7.244  14.852  24.001  0.00  0.00    +0.000 A 
ATOM     29  C   UNL     1      -7.533  13.527  23.672  0.00  0.00    +0.000 A 
ATOM     30  C   UNL     1      -6.905  12.929  22.580  0.00  0.00    +0.000 A 
ENDBRANCH  22  25
ENDBRANCH  20  22
ENDBRANCH   3  20
TORSDOF 4
ENDMDL
MODEL 5
REMARK VINA RESULT:      -6.0      2.175      2.876
REMARK  Name = 
REMARK  4 active torsions:
REMARK  status: ('A' for Active; 'I' for Inactive)
REMARK    1  A    between atoms: C_3  and  N_4
REMARK    2  A    between atoms: N_4  and  S_5
REMARK    3  A    between atoms: S_5  and  C_8
REMARK    4  A    between atoms: C_14  and  C_15
REMARK                            x       y       z     vdW  Elec       q    Type
REMARK                         _______ _______ _______ _____ _____    ______ ____
ROOT
ATOM      1  O   UNL     1      -0.622  12.009  18.306  0.00  0.00    +0.000 OA
ATOM      2  C   UNL     1      -0.521  11.804  19.511  0.00  0.00    +0.000 C 
ATOM      3  C   UNL     1      -1.058  12.784  20.491  0.00  0.00    +0.000 C 
ATOM      4  C   UNL     1      -1.255  12.487  21.787  0.00  0.00    +0.000 C 
ATOM      5  C   UNL     1      -0.787  11.163  22.299  0.00  0.00    +0.000 C 
ATOM      6  O   UNL     1      -1.005  10.804  23.451  0.00  0.00    +0.000 OA
ATOM      7  C   UNL     1      -0.023  10.284  21.397  0.00  0.00    +0.000 A 
ATOM      8  C   UNL     1       0.571   9.120  21.906  0.00  0.00    +0.000 A 
ATOM      9  C   UNL     1       1.308   8.285  21.068  0.00  0.00    +0.000 A 
ATOM     10  C   UNL     1       1.445   8.598  19.716  0.00  0.00    +0.000 A 
ATOM     11  C   UNL     1       0.843   9.748  19.201  0.00  0.00    +0.000 A 
ATOM     12  C   UNL     1       0.112  10.594  20.047  0.00  0.00    +0.000 A 
ENDROOT
BRANCH   4  13
ATOM     13  C   UNL     1      -1.962  13.372  22.737  0.00  0.00    +0.000 A 
ATOM     14  C   UNL     1      -1.204  14.113  23.657  0.00  0.00    +0.000 A 
ATOM     15  C   UNL     1      -1.820  14.973  24.564  0.00  0.00    +0.000 A 
ATOM     16  C   UNL     1      -3.208  15.071  24.596  0.00  0.00    +0.000 A 
ATOM     17  C   UNL     1      -3.979  14.311  23.716  0.00  0.00    +0.000 A 
ATOM     18  C   UNL     1      -3.361  13.468  22.786  0.00  0.00    +0.000 A 
ATOM     19 CL   UNL     1      -4.375  12.551  21.724  0.00  0.00    +0.000 Cl
ENDBRANCH   4  13
BRANCH   3  20
ATOM     20  N   UNL     1      -1.577  14.021  19.971  0.00  0.00    +0.000 N 
ATOM     21  H   UNL     1      -1.917  13.895  19.013  0.00  0.00    +0.000 HD
BRANCH  20  22
ATOM     22  S   UNL     1      -0.441  15.306  19.929  0.00  0.00    +0.000 S 
ATOM     23  O   UNL     1       0.778  14.804  20.524  0.00  0.00    +0.000 OA
ATOM     24  O   UNL     1      -0.446  15.907  18.612  0.00  0.00    +0.000 OA
BRANCH  22  25
ATOM     25  C   UNL     1      -1.084  16.527  21.051  0.00  0.00    +0.000 A 
ATOM     26  C   UNL     1      -2.461  16.749  21.113  0.00  0.00    +0.000 A 
ATOM     27  C   UNL     1      -2.958  17.697  22.007  0.00  0.00    +0.000 A 
ATOM     28  C   UNL     1      -2.088  18.392  22.850  0.00  0.00    +0.000 A 
ATOM     29  C   UNL     1      -0.716  18.142  22.806  0.00  0.00    +0.000 A 
ATOM     30  C   UNL     1      -0.209  17.208  21.904  0.00  0.00    +0.000 A 
ENDBRANCH  22  25
ENDBRANCH  20  22
ENDBRANCH   3  20
TORSDOF 4
ENDMDL
MODEL 6
REMARK VINA RESULT:      -5.9      3.423      5.525
REMARK  Name = 
REMARK  4 active torsions:
REMARK  status: ('A' for Active; 'I' for Inactive)
REMARK    1  A    between atoms: C_3  and  N_4
REMARK    2  A    between atoms: N_4  and  S_5
REMARK    3  A    between atoms: S_5  and  C_8
REMARK    4  A    between atoms: C_14  and  C_15
REMARK                            x       y       z     vdW  Elec       q    Type
REMARK                         _______ _______ _______ _____ _____    ______ ____
ROOT
ATOM      1  O   UNL     1      -0.643  10.691  23.395  0.00  0.00    +0.000 OA
ATOM      2  C   UNL     1      -0.732  11.368  22.376  0.00  0.00    +0.000 C 
ATOM      3  C   UNL     1      -1.439  12.675  22.397  0.00  0.00    +0.000 C 
ATOM      4  C   UNL     1      -1.313  13.590  21.422  0.00  0.00    +0.000 C 
ATOM      5  C   UNL     1      -0.538  13.229  20.195  0.00  0.00    +0.000 C 
ATOM      6  O   UNL     1      -0.324  14.045  19.305  0.00  0.00    +0.000 OA
ATOM      7  C   UNL     1      -0.047  11.848  20.048  0.00  0.00    +0.000 A 
ATOM      8  C   UNL     1       0.528  11.445  18.835  0.00  0.00    +0.000 A 
ATOM      9  C   UNL     1       0.986  10.138  18.676  0.00  0.00    +0.000 A 
ATOM     10  C   UNL     1       0.886   9.231  19.730  0.00  0.00    +0.000 A 
ATOM     11  C   UNL     1       0.328   9.631  20.945  0.00  0.00    +0.000 A 
ATOM     12  C   UNL     1      -0.143  10.943  21.101  0.00  0.00    +0.000 A 
ENDROOT
BRANCH   4  13
ATOM     13  C   UNL     1      -1.848  14.966  21.507  0.00  0.00    +0.000 A 
ATOM     14  C   UNL     1      -3.072  15.251  20.886  0.00  0.00    +0.000 A 
ATOM     15  C   UNL     1      -3.627  16.528  20.950  0.00  0.00    +0.000 A 
ATOM     16  C   UNL     1      -2.943  17.552  21.597  0.00  0.00    +0.000 A 
ATOM     17  C   UNL     1      -1.704  17.296  22.186  0.00  0.00    +0.000 A 
ATOM     18  C   UNL     1      -1.158  16.009  22.147  0.00  0.00    +0.000 A 
ATOM     19 CL   UNL     1       0.383  15.759  22.894  0.00  0.00    +0.000 Cl
ENDBRANCH   4  13
BRANCH   3  20
ATOM     20  N   UNL     1      -2.113  13.040  23.615  0.00  0.00    +0.000 N 
ATOM     21  H   UNL     1      -1.716  12.534  24.413  0.00  0.00    +0.000 HD
BRANCH  20  22
ATOM     22  S   UNL     1      -3.800  12.725  23.618  0.00  0.00    +0.000 S 
ATOM     23  O   UNL     1      -4.145  12.300  22.278  0.00  0.00    +0.000 OA
ATOM     24  O   UNL     1      -4.135  11.923  24.773  0.00  0.00    +0.000 OA
BRANCH  22  25
ATOM     25  C   UNL     1      -4.566  14.313  23.856  0.00  0.00    +0.000 A 
ATOM     26  C   UNL     1      -5.853  14.537  23.366  0.00  0.00    +0.000 A 
ATOM     27  C   UNL     1      -6.453  15.779  23.570  0.00  0.00    +0.000 A 
ATOM     28  C   UNL     1      -5.782  16.774  24.283  0.00  0.00    +0.000 A 
ATOM     29  C   UNL     1      -4.507  16.533  24.798  0.00  0.00    +0.000 A 
ATOM     30  C   UNL     1      -3.893  15.300  24.584  0.00  0.00    +0.000 A 
ENDBRANCH  22  25
ENDBRANCH  20  22
ENDBRANCH   3  20
TORSDOF 4
ENDMDL
MODEL 7
REMARK VINA RESULT:      -5.9      2.698      5.945
REMARK  Name = 
REMARK  4 active torsions:
REMARK  status: ('A' for Active; 'I' for Inactive)
REMARK    1  A    between atoms: C_3  and  N_4
REMARK    2  A    between atoms: N_4  and  S_5
REMARK    3  A    between atoms: S_5  and  C_8
REMARK    4  A    between atoms: C_14  and  C_15
REMARK                            x       y       z     vdW  Elec       q    Type
REMARK                         _______ _______ _______ _____ _____    ______ ____
ROOT
ATOM      1  O   UNL     1       0.350   9.668  17.650  0.00  0.00    +0.000 OA
ATOM      2  C   UNL     1      -0.616  10.249  18.134  0.00  0.00    +0.000 C 
ATOM      3  C   UNL     1      -0.534  10.851  19.490  0.00  0.00    +0.000 C 
ATOM      4  C   UNL     1      -1.425  11.747  19.947  0.00  0.00    +0.000 C 
ATOM      5  C   UNL     1      -2.628  12.052  19.114  0.00  0.00    +0.000 C 
ATOM      6  O   UNL     1      -3.437  12.913  19.440  0.00  0.00    +0.000 OA
ATOM      7  C   UNL     1      -2.854  11.273  17.883  0.00  0.00    +0.000 A 
ATOM      8  C   UNL     1      -4.058  11.422  17.183  0.00  0.00    +0.000 A 
ATOM      9  C   UNL     1      -4.292  10.683  16.024  0.00  0.00    +0.000 A 
ATOM     10  C   UNL     1      -3.321   9.802  15.551  0.00  0.00    +0.000 A 
ATOM     11  C   UNL     1      -2.113   9.661  16.237  0.00  0.00    +0.000 A 
ATOM     12  C   UNL     1      -1.882  10.396  17.409  0.00  0.00    +0.000 A 
ENDROOT
BRANCH   4  13
ATOM     13  C   UNL     1      -1.263  12.501  21.209  0.00  0.00    +0.000 A 
ATOM     14  C   UNL     1      -1.935  12.047  22.353  0.00  0.00    +0.000 A 
ATOM     15  C   UNL     1      -1.804  12.713  23.571  0.00  0.00    +0.000 A 
ATOM     16  C   UNL     1      -1.036  13.870  23.651  0.00  0.00    +0.000 A 
ATOM     17  C   UNL     1      -0.394  14.359  22.513  0.00  0.00    +0.000 A 
ATOM     18  C   UNL     1      -0.501  13.677  21.296  0.00  0.00    +0.000 A 
ATOM     19 CL   UNL     1       0.317  14.337  19.921  0.00  0.00    +0.000 Cl
ENDBRANCH   4  13
BRANCH   3  20
ATOM     20  N   UNL     1       0.667  10.611  20.247  0.00  0.00    +0.000 N 
ATOM     21  H   UNL     1       1.458  10.434  19.620  0.00  0.00    +0.000 HD
BRANCH  20  22
ATOM     22  S   UNL     1       0.577   9.277  21.321  0.00  0.00    +0.000 S 
ATOM     23  O   UNL     1       1.366   9.625  22.483  0.00  0.00    +0.000 OA
ATOM     24  O   UNL     1      -0.801   8.854  21.444  0.00  0.00    +0.000 OA
BRANCH  22  25
ATOM     25  C   UNL     1       1.446   7.962  20.498  0.00  0.00    +0.000 A 
ATOM     26  C   UNL     1       1.400   6.670  21.024  0.00  0.00    +0.000 A 
ATOM     27  C   UNL     1       2.071   5.642  20.364  0.00  0.00    +0.000 A 
ATOM     28  C   UNL     1       2.755   5.898  19.174  0.00  0.00    +0.000 A 
ATOM     29  C   UNL     1       2.770   7.186  18.636  0.00  0.00    +0.000 A 
ATOM     30  C   UNL     1       2.116   8.224  19.298  0.00  0.00    +0.000 A 
ENDBRANCH  22  25
ENDBRANCH  20  22
ENDBRANCH   3  20
TORSDOF 4
ENDMDL
MODEL 8
REMARK VINA RESULT:      -5.7      3.338      5.882
REMARK  Name = 
REMARK  4 active torsions:
REMARK  status: ('A' for Active; 'I' for Inactive)
REMARK    1  A    between atoms: C_3  and  N_4
REMARK    2  A    between atoms: N_4  and  S_5
REMARK    3  A    between atoms: S_5  and  C_8
REMARK    4  A    between atoms: C_14  and  C_15
REMARK                            x       y       z     vdW  Elec       q    Type
REMARK                         _______ _______ _______ _____ _____    ______ ____
ROOT
ATOM      1  O   UNL     1      -4.562  12.626  22.367  0.00  0.00    +0.000 OA
ATOM      2  C   UNL     1      -4.212  12.537  21.195  0.00  0.00    +0.000 C 
ATOM      3  C   UNL     1      -2.797  12.774  20.809  0.00  0.00    +0.000 C 
ATOM      4  C   UNL     1      -2.291  12.401  19.621  0.00  0.00    +0.000 C 
ATOM      5  C   UNL     1      -3.219  11.847  18.588  0.00  0.00    +0.000 C 
ATOM      6  O   UNL     1      -2.808  11.420  17.515  0.00  0.00    +0.000 OA
ATOM      7  C   UNL     1      -4.666  11.844  18.864  0.00  0.00    +0.000 A 
ATOM      8  C   UNL     1      -5.563  11.491  17.846  0.00  0.00    +0.000 A 
ATOM      9  C   UNL     1      -6.936  11.495  18.088  0.00  0.00    +0.000 A 
ATOM     10  C   UNL     1      -7.421  11.837  19.350  0.00  0.00    +0.000 A 
ATOM     11  C   UNL     1      -6.531  12.174  20.372  0.00  0.00    +0.000 A 
ATOM     12  C   UNL     1      -5.151  12.181  20.125  0.00  0.00    +0.000 A 
ENDROOT
BRANCH   4  13
ATOM     13  C   UNL     1      -0.852  12.451  19.285  0.00  0.00    +0.000 A 
ATOM     14  C   UNL     1      -0.361  13.568  18.594  0.00  0.00    +0.000 A 
ATOM     15  C   UNL     1       0.990  13.670  18.267  0.00  0.00    +0.000 A 
ATOM     16  C   UNL     1       1.863  12.635  18.586  0.00  0.00    +0.000 A 
ATOM     17  C   UNL     1       1.384  11.498  19.237  0.00  0.00    +0.000 A 
ATOM     18  C   UNL     1       0.034  11.405  19.592  0.00  0.00    +0.000 A 
ATOM     19 CL   UNL     1      -0.497   9.967  20.395  0.00  0.00    +0.000 Cl
ENDBRANCH   4  13
BRANCH   3  20
ATOM     20  N   UNL     1      -1.900  13.232  21.837  0.00  0.00    +0.000 N 
ATOM     21  H   UNL     1      -2.190  12.874  22.753  0.00  0.00    +0.000 HD
BRANCH  20  22
ATOM     22  S   UNL     1      -1.796  14.938  21.982  0.00  0.00    +0.000 S 
ATOM     23  O   UNL     1      -2.642  15.496  20.948  0.00  0.00    +0.000 OA
ATOM     24  O   UNL     1      -1.955  15.312  23.370  0.00  0.00    +0.000 OA
BRANCH  22  25
ATOM     25  C   UNL     1      -0.122  15.338  21.532  0.00  0.00    +0.000 A 
ATOM     26  C   UNL     1       0.140  16.515  20.828  0.00  0.00    +0.000 A 
ATOM     27  C   UNL     1       1.457  16.828  20.493  0.00  0.00    +0.000 A 
ATOM     28  C   UNL     1       2.501  15.988  20.885  0.00  0.00    +0.000 A 
ATOM     29  C   UNL     1       2.235  14.830  21.616  0.00  0.00    +0.000 A 
ATOM     30  C   UNL     1       0.921  14.500  21.942  0.00  0.00    +0.000 A 
ENDBRANCH  22  25
ENDBRANCH  20  22
ENDBRANCH   3  20
TORSDOF 4
ENDMDL
MODEL 9
REMARK VINA RESULT:      -5.7      2.752      6.168
REMARK  Name = 
REMARK  4 active torsions:
REMARK  status: ('A' for Active; 'I' for Inactive)
REMARK    1  A    between atoms: C_3  and  N_4
REMARK    2  A    between atoms: N_4  and  S_5
REMARK    3  A    between atoms: S_5  and  C_8
REMARK    4  A    between atoms: C_14  and  C_15
REMARK                            x       y       z     vdW  Elec       q    Type
REMARK                         _______ _______ _______ _____ _____    ______ ____
ROOT
ATOM      1  O   UNL     1      -2.364  10.637  17.782  0.00  0.00    +0.000 OA
ATOM      2  C   UNL     1      -2.840  11.362  18.650  0.00  0.00    +0.000 C 
ATOM      3  C   UNL     1      -1.954  12.150  19.545  0.00  0.00    +0.000 C 
ATOM      4  C   UNL     1      -2.397  13.174  20.294  0.00  0.00    +0.000 C 
ATOM      5  C   UNL     1      -3.867  13.449  20.337  0.00  0.00    +0.000 C 
ATOM      6  O   UNL     1      -4.324  14.413  20.940  0.00  0.00    +0.000 OA
ATOM      7  C   UNL     1      -4.782  12.517  19.656  0.00  0.00    +0.000 A 
ATOM      8  C   UNL     1      -6.166  12.659  19.829  0.00  0.00    +0.000 A 
ATOM      9  C   UNL     1      -7.045  11.776  19.202  0.00  0.00    +0.000 A 
ATOM     10  C   UNL     1      -6.549  10.758  18.388  0.00  0.00    +0.000 A 
ATOM     11  C   UNL     1      -5.172  10.621  18.201  0.00  0.00    +0.000 A 
ATOM     12  C   UNL     1      -4.288  11.502  18.842  0.00  0.00    +0.000 A 
ENDROOT
BRANCH   4  13
ATOM     13  C   UNL     1      -1.512  14.092  21.042  0.00  0.00    +0.000 A 
ATOM     14  C   UNL     1      -0.814  15.080  20.332  0.00  0.00    +0.000 A 
ATOM     15  C   UNL     1       0.021  15.980  20.991  0.00  0.00    +0.000 A 
ATOM     16  C   UNL     1       0.207  15.876  22.366  0.00  0.00    +0.000 A 
ATOM     17  C   UNL     1      -0.448  14.875  23.083  0.00  0.00    +0.000 A 
ATOM     18  C   UNL     1      -1.309  13.987  22.427  0.00  0.00    +0.000 A 
ATOM     19 CL   UNL     1      -2.088  12.765  23.373  0.00  0.00    +0.000 Cl
ENDBRANCH   4  13
BRANCH   3  20
ATOM     20  N   UNL     1      -0.537  11.928  19.434  0.00  0.00    +0.000 N 
ATOM     21  H   UNL     1      -0.310  11.498  18.531  0.00  0.00    +0.000 HD
BRANCH  20  22
ATOM     22  S   UNL     1       0.122  10.911  20.648  0.00  0.00    +0.000 S 
ATOM     23  O   UNL     1       1.142  11.682  21.327  0.00  0.00    +0.000 OA
ATOM     24  O   UNL     1      -0.954  10.277  21.377  0.00  0.00    +0.000 OA
BRANCH  22  25
ATOM     25  C   UNL     1       0.970   9.623  19.761  0.00  0.00    +0.000 A 
ATOM     26  C   UNL     1       1.239   9.785  18.401  0.00  0.00    +0.000 A 
ATOM     27  C   UNL     1       1.918   8.777  17.717  0.00  0.00    +0.000 A 
ATOM     28  C   UNL     1       2.349   7.635  18.395  0.00  0.00    +0.000 A 
ATOM     29  C   UNL     1       2.105   7.494  19.762  0.00  0.00    +0.000 A 
ATOM     30  C   UNL     1       1.413   8.489  20.450  0.00  0.00    +0.000 A 
ENDBRANCH  22  25
ENDBRANCH  20  22
ENDBRANCH   3  20
TORSDOF 4
ENDMDL
