MODEL 1
REMARK VINA RESULT:      -7.1      0.000      0.000
REMARK  Name = 
REMARK  1 active torsions:
REMARK  status: ('A' for Active; 'I' for Inactive)
REMARK    1  A    between atoms: C_3  and  C_4
REMARK                            x       y       z     vdW  Elec       q    Type
REMARK                         _______ _______ _______ _____ _____    ______ ____
ROOT
ATOM      1  O   UNL     1       2.241   9.107  17.185  0.00  0.00    +0.000 OA
ATOM      2  C   UNL     1       2.016   8.603  18.283  0.00  0.00    +0.000 A 
ATOM      3  C   UNL     1       1.134   9.307  19.272  0.00  0.00    +0.000 A 
ATOM      4  C   UNL     1       0.943   8.765  20.486  0.00  0.00    +0.000 A 
ATOM      5  C   UNL     1       1.518   7.490  20.827  0.00  0.00    +0.000 A 
ATOM      6  C   UNL     1       2.279   6.820  19.947  0.00  0.00    +0.000 A 
ATOM      7  N   UNL     1       2.558   7.380  18.699  0.00  0.00    +0.000 N 
ATOM      8  C   UNL     1       3.503   6.750  17.777  0.00  0.00    +0.000 C 
ATOM      9  C   UNL     1       3.825   5.278  18.043  0.00  0.00    +0.000 C 
ATOM     10  C   UNL     1       2.695   4.343  17.563  0.00  0.00    +0.000 C 
ATOM     11  N   UNL     1       1.462   4.432  18.345  0.00  0.00    +0.000 NA
ATOM     12  C   UNL     1       1.706   4.379  19.789  0.00  0.00    +0.000 C 
ATOM     13  C   UNL     1       2.766   5.408  20.252  0.00  0.00    +0.000 C 
ATOM     14  C   UNL     1       4.079   5.101  19.536  0.00  0.00    +0.000 C 
ATOM     15  H   UNL     1       0.807   3.705  18.064  0.00  0.00    +0.000 HD
ENDROOT
BRANCH   3  16
ATOM     16  C   UNL     1       0.502  10.588  18.935  0.00  0.00    +0.000 A 
ATOM     17  C   UNL     1      -0.816  10.622  18.484  0.00  0.00    +0.000 A 
ATOM     18  C   UNL     1      -1.368  11.854  18.173  0.00  0.00    +0.000 A 
ATOM     19  N   UNL     1      -0.700  13.023  18.273  0.00  0.00    +0.000 NA
ATOM     20  C   UNL     1       0.574  12.960  18.720  0.00  0.00    +0.000 A 
ATOM     21  C   UNL     1       1.214  11.781  19.058  0.00  0.00    +0.000 A 
ENDBRANCH   3  16
TORSDOF 1
ENDMDL
MODEL 2
REMARK VINA RESULT:      -7.1      0.044      1.053
REMARK  Name = 
REMARK  1 active torsions:
REMARK  status: ('A' for Active; 'I' for Inactive)
REMARK    1  A    between atoms: C_3  and  C_4
REMARK                            x       y       z     vdW  Elec       q    Type
REMARK                         _______ _______ _______ _____ _____    ______ ____
ROOT
ATOM      1  O   UNL     1       2.235   9.133  17.190  0.00  0.00    +0.000 OA
ATOM      2  C   UNL     1       2.010   8.628  18.288  0.00  0.00    +0.000 A 
ATOM      3  C   UNL     1       1.128   9.332  19.277  0.00  0.00    +0.000 A 
ATOM      4  C   UNL     1       0.936   8.789  20.490  0.00  0.00    +0.000 A 
ATOM      5  C   UNL     1       1.510   7.513  20.830  0.00  0.00    +0.000 A 
ATOM      6  C   UNL     1       2.270   6.843  19.950  0.00  0.00    +0.000 A 
ATOM      7  N   UNL     1       2.551   7.404  18.702  0.00  0.00    +0.000 N 
ATOM      8  C   UNL     1       3.495   6.774  17.780  0.00  0.00    +0.000 C 
ATOM      9  C   UNL     1       3.815   5.301  18.045  0.00  0.00    +0.000 C 
ATOM     10  C   UNL     1       2.684   4.368  17.564  0.00  0.00    +0.000 C 
ATOM     11  N   UNL     1       1.451   4.458  18.345  0.00  0.00    +0.000 NA
ATOM     12  C   UNL     1       1.695   4.403  19.789  0.00  0.00    +0.000 C 
ATOM     13  C   UNL     1       2.755   5.431  20.254  0.00  0.00    +0.000 C 
ATOM     14  C   UNL     1       4.069   5.123  19.538  0.00  0.00    +0.000 C 
ATOM     15  H   UNL     1       0.795   3.732  18.063  0.00  0.00    +0.000 HD
ENDROOT
BRANCH   3  16
ATOM     16  C   UNL     1       0.498  10.614  18.941  0.00  0.00    +0.000 A 
ATOM     17  C   UNL     1       1.191  11.807  19.138  0.00  0.00    +0.000 A 
ATOM     18  C   UNL     1       0.554  12.994  18.811  0.00  0.00    +0.000 A 
ATOM     19  N   UNL     1      -0.703  13.061  18.323  0.00  0.00    +0.000 NA
ATOM     20  C   UNL     1      -1.348  11.889  18.136  0.00  0.00    +0.000 A 
ATOM     21  C   UNL     1      -0.799  10.653  18.428  0.00  0.00    +0.000 A 
ENDBRANCH   3  16
TORSDOF 1
ENDMDL
MODEL 3
REMARK VINA RESULT:      -7.0      2.202      3.535
REMARK  Name = 
REMARK  1 active torsions:
REMARK  status: ('A' for Active; 'I' for Inactive)
REMARK    1  A    between atoms: C_3  and  C_4
REMARK                            x       y       z     vdW  Elec       q    Type
REMARK                         _______ _______ _______ _____ _____    ______ ____
ROOT
ATOM      1  O   UNL     1       1.216   5.730  20.900  0.00  0.00    +0.000 OA
ATOM      2  C   UNL     1       1.889   6.023  19.914  0.00  0.00    +0.000 A 
ATOM      3  C   UNL     1       2.076   7.460  19.526  0.00  0.00    +0.000 A 
ATOM      4  C   UNL     1       2.771   7.757  18.415  0.00  0.00    +0.000 A 
ATOM      5  C   UNL     1       3.391   6.722  17.631  0.00  0.00    +0.000 A 
ATOM      6  C   UNL     1       3.273   5.430  17.978  0.00  0.00    +0.000 A 
ATOM      7  N   UNL     1       2.503   5.073  19.086  0.00  0.00    +0.000 N 
ATOM      8  C   UNL     1       2.228   3.672  19.404  0.00  0.00    +0.000 C 
ATOM      9  C   UNL     1       3.152   2.641  18.751  0.00  0.00    +0.000 C 
ATOM     10  C   UNL     1       4.520   2.559  19.459  0.00  0.00    +0.000 C 
ATOM     11  N   UNL     1       5.366   3.738  19.281  0.00  0.00    +0.000 NA
ATOM     12  C   UNL     1       5.444   4.168  17.882  0.00  0.00    +0.000 C 
ATOM     13  C   UNL     1       4.049   4.348  17.235  0.00  0.00    +0.000 C 
ATOM     14  C   UNL     1       3.322   3.006  17.281  0.00  0.00    +0.000 C 
ATOM     15  H   UNL     1       6.296   3.573  19.658  0.00  0.00    +0.000 HD
ENDROOT
BRANCH   3  16
ATOM     16  C   UNL     1       1.488   8.537  20.331  0.00  0.00    +0.000 A 
ATOM     17  C   UNL     1       0.948   9.661  19.708  0.00  0.00    +0.000 A 
ATOM     18  C   UNL     1       0.409  10.655  20.509  0.00  0.00    +0.000 A 
ATOM     19  N   UNL     1       0.384  10.602  21.858  0.00  0.00    +0.000 NA
ATOM     20  C   UNL     1       0.908   9.498  22.433  0.00  0.00    +0.000 A 
ATOM     21  C   UNL     1       1.467   8.450  21.723  0.00  0.00    +0.000 A 
ENDBRANCH   3  16
TORSDOF 1
ENDMDL
MODEL 4
REMARK VINA RESULT:      -7.0      2.223      3.588
REMARK  Name = 
REMARK  1 active torsions:
REMARK  status: ('A' for Active; 'I' for Inactive)
REMARK    1  A    between atoms: C_3  and  C_4
REMARK                            x       y       z     vdW  Elec       q    Type
REMARK                         _______ _______ _______ _____ _____    ______ ____
ROOT
ATOM      1  O   UNL     1       1.218   5.694  20.921  0.00  0.00    +0.000 OA
ATOM      2  C   UNL     1       1.891   5.988  19.934  0.00  0.00    +0.000 A 
ATOM      3  C   UNL     1       2.079   7.426  19.549  0.00  0.00    +0.000 A 
ATOM      4  C   UNL     1       2.773   7.725  18.439  0.00  0.00    +0.000 A 
ATOM      5  C   UNL     1       3.391   6.690  17.651  0.00  0.00    +0.000 A 
ATOM      6  C   UNL     1       3.272   5.398  17.995  0.00  0.00    +0.000 A 
ATOM      7  N   UNL     1       2.502   5.040  19.103  0.00  0.00    +0.000 N 
ATOM      8  C   UNL     1       2.226   3.638  19.418  0.00  0.00    +0.000 C 
ATOM      9  C   UNL     1       3.147   2.607  18.762  0.00  0.00    +0.000 C 
ATOM     10  C   UNL     1       4.516   2.522  19.468  0.00  0.00    +0.000 C 
ATOM     11  N   UNL     1       5.363   3.701  19.291  0.00  0.00    +0.000 NA
ATOM     12  C   UNL     1       5.440   4.134  17.893  0.00  0.00    +0.000 C 
ATOM     13  C   UNL     1       4.044   4.317  17.249  0.00  0.00    +0.000 C 
ATOM     14  C   UNL     1       3.316   2.976  17.292  0.00  0.00    +0.000 C 
ATOM     15  H   UNL     1       6.294   3.533  19.667  0.00  0.00    +0.000 HD
ENDROOT
BRANCH   3  16
ATOM     16  C   UNL     1       1.493   8.502  20.357  0.00  0.00    +0.000 A 
ATOM     17  C   UNL     1       1.538   8.437  21.749  0.00  0.00    +0.000 A 
ATOM     18  C   UNL     1       0.968   9.474  22.470  0.00  0.00    +0.000 A 
ATOM     19  N   UNL     1       0.361  10.538  21.902  0.00  0.00    +0.000 NA
ATOM     20  C   UNL     1       0.339  10.578  20.552  0.00  0.00    +0.000 A 
ATOM     21  C   UNL     1       0.882   9.595  19.743  0.00  0.00    +0.000 A 
ENDBRANCH   3  16
TORSDOF 1
ENDMDL
MODEL 5
REMARK VINA RESULT:      -6.6      1.802      6.489
REMARK  Name = 
REMARK  1 active torsions:
REMARK  status: ('A' for Active; 'I' for Inactive)
REMARK    1  A    between atoms: C_3  and  C_4
REMARK                            x       y       z     vdW  Elec       q    Type
REMARK                         _______ _______ _______ _____ _____    ______ ____
ROOT
ATOM      1  O   UNL     1       1.650   6.764  20.831  0.00  0.00    +0.000 OA
ATOM      2  C   UNL     1       1.801   7.558  19.904  0.00  0.00    +0.000 A 
ATOM      3  C   UNL     1       2.392   7.097  18.604  0.00  0.00    +0.000 A 
ATOM      4  C   UNL     1       2.598   7.990  17.622  0.00  0.00    +0.000 A 
ATOM      5  C   UNL     1       2.200   9.365  17.776  0.00  0.00    +0.000 A 
ATOM      6  C   UNL     1       1.633   9.795  18.914  0.00  0.00    +0.000 A 
ATOM      7  N   UNL     1       1.464   8.915  19.984  0.00  0.00    +0.000 N 
ATOM      8  C   UNL     1       0.990   9.383  21.287  0.00  0.00    +0.000 C 
ATOM      9  C   UNL     1       0.294  10.746  21.300  0.00  0.00    +0.000 C 
ATOM     10  C   UNL     1      -1.155  10.661  20.777  0.00  0.00    +0.000 C 
ATOM     11  N   UNL     1      -1.266  10.383  19.345  0.00  0.00    +0.000 NA
ATOM     12  C   UNL     1      -0.390  11.236  18.537  0.00  0.00    +0.000 C 
ATOM     13  C   UNL     1       1.079  11.211  19.023  0.00  0.00    +0.000 C 
ATOM     14  C   UNL     1       1.118  11.718  20.463  0.00  0.00    +0.000 C 
ATOM     15  H   UNL     1      -2.233  10.468  19.038  0.00  0.00    +0.000 HD
ENDROOT
BRANCH   3  16
ATOM     16  C   UNL     1       2.769   5.693  18.407  0.00  0.00    +0.000 A 
ATOM     17  C   UNL     1       4.046   5.255  18.755  0.00  0.00    +0.000 A 
ATOM     18  C   UNL     1       4.358   3.921  18.546  0.00  0.00    +0.000 A 
ATOM     19  N   UNL     1       3.500   3.024  18.015  0.00  0.00    +0.000 NA
ATOM     20  C   UNL     1       2.269   3.474  17.693  0.00  0.00    +0.000 A 
ATOM     21  C   UNL     1       1.858   4.785  17.866  0.00  0.00    +0.000 A 
ENDBRANCH   3  16
TORSDOF 1
ENDMDL
MODEL 6
REMARK VINA RESULT:      -6.6      1.802      6.413
REMARK  Name = 
REMARK  1 active torsions:
REMARK  status: ('A' for Active; 'I' for Inactive)
REMARK    1  A    between atoms: C_3  and  C_4
REMARK                            x       y       z     vdW  Elec       q    Type
REMARK                         _______ _______ _______ _____ _____    ______ ____
ROOT
ATOM      1  O   UNL     1       1.646   6.758  20.859  0.00  0.00    +0.000 OA
ATOM      2  C   UNL     1       1.800   7.544  19.926  0.00  0.00    +0.000 A 
ATOM      3  C   UNL     1       2.390   7.072  18.630  0.00  0.00    +0.000 A 
ATOM      4  C   UNL     1       2.599   7.957  17.641  0.00  0.00    +0.000 A 
ATOM      5  C   UNL     1       2.205   9.334  17.784  0.00  0.00    +0.000 A 
ATOM      6  C   UNL     1       1.637   9.774  18.918  0.00  0.00    +0.000 A 
ATOM      7  N   UNL     1       1.465   8.903  19.996  0.00  0.00    +0.000 N 
ATOM      8  C   UNL     1       0.992   9.381  21.294  0.00  0.00    +0.000 C 
ATOM      9  C   UNL     1       0.298  10.746  21.297  0.00  0.00    +0.000 C 
ATOM     10  C   UNL     1      -1.150  10.660  20.773  0.00  0.00    +0.000 C 
ATOM     11  N   UNL     1      -1.261  10.372  19.343  0.00  0.00    +0.000 NA
ATOM     12  C   UNL     1      -0.382  11.217  18.530  0.00  0.00    +0.000 C 
ATOM     13  C   UNL     1       1.087  11.192  19.017  0.00  0.00    +0.000 C 
ATOM     14  C   UNL     1       1.125  11.710  20.453  0.00  0.00    +0.000 C 
ATOM     15  H   UNL     1      -2.227  10.456  19.034  0.00  0.00    +0.000 HD
ENDROOT
BRANCH   3  16
ATOM     16  C   UNL     1       2.765   5.665  18.444  0.00  0.00    +0.000 A 
ATOM     17  C   UNL     1       1.862   4.770  17.874  0.00  0.00    +0.000 A 
ATOM     18  C   UNL     1       2.258   3.451  17.722  0.00  0.00    +0.000 A 
ATOM     19  N   UNL     1       3.464   2.981  18.105  0.00  0.00    +0.000 NA
ATOM     20  C   UNL     1       4.321   3.872  18.648  0.00  0.00    +0.000 A 
ATOM     21  C   UNL     1       4.023   5.210  18.840  0.00  0.00    +0.000 A 
ENDBRANCH   3  16
TORSDOF 1
ENDMDL
MODEL 7
REMARK VINA RESULT:      -6.6      1.779      2.651
REMARK  Name = 
REMARK  1 active torsions:
REMARK  status: ('A' for Active; 'I' for Inactive)
REMARK    1  A    between atoms: C_3  and  C_4
REMARK                            x       y       z     vdW  Elec       q    Type
REMARK                         _______ _______ _______ _____ _____    ______ ____
ROOT
ATOM      1  O   UNL     1       3.478   6.782  17.647  0.00  0.00    +0.000 OA
ATOM      2  C   UNL     1       2.984   6.241  18.636  0.00  0.00    +0.000 A 
ATOM      3  C   UNL     1       2.101   7.023  19.563  0.00  0.00    +0.000 A 
ATOM      4  C   UNL     1       1.615   6.429  20.665  0.00  0.00    +0.000 A 
ATOM      5  C   UNL     1       1.876   5.039  20.933  0.00  0.00    +0.000 A 
ATOM      6  C   UNL     1       2.629   4.305  20.099  0.00  0.00    +0.000 A 
ATOM      7  N   UNL     1       3.211   4.902  18.979  0.00  0.00    +0.000 N 
ATOM      8  C   UNL     1       4.158   4.174  18.134  0.00  0.00    +0.000 C 
ATOM      9  C   UNL     1       4.147   2.649  18.270  0.00  0.00    +0.000 C 
ATOM     10  C   UNL     1       2.955   2.010  17.527  0.00  0.00    +0.000 C 
ATOM     11  N   UNL     1       1.650   2.283  18.128  0.00  0.00    +0.000 NA
ATOM     12  C   UNL     1       1.640   2.056  19.576  0.00  0.00    +0.000 C 
ATOM     13  C   UNL     1       2.784   2.803  20.304  0.00  0.00    +0.000 C 
ATOM     14  C   UNL     1       4.115   2.296  19.753  0.00  0.00    +0.000 C 
ATOM     15  H   UNL     1       0.924   1.733  17.673  0.00  0.00    +0.000 HD
ENDROOT
BRANCH   3  16
ATOM     16  C   UNL     1       1.788   8.430  19.291  0.00  0.00    +0.000 A 
ATOM     17  C   UNL     1       1.078   9.183  20.226  0.00  0.00    +0.000 A 
ATOM     18  C   UNL     1       0.800  10.506  19.924  0.00  0.00    +0.000 A 
ATOM     19  N   UNL     1       1.169  11.106  18.772  0.00  0.00    +0.000 NA
ATOM     20  C   UNL     1       1.861  10.355  17.888  0.00  0.00    +0.000 A 
ATOM     21  C   UNL     1       2.190   9.027  18.096  0.00  0.00    +0.000 A 
ENDBRANCH   3  16
TORSDOF 1
ENDMDL
MODEL 8
REMARK VINA RESULT:      -6.5      1.789      2.691
REMARK  Name = 
REMARK  1 active torsions:
REMARK  status: ('A' for Active; 'I' for Inactive)
REMARK    1  A    between atoms: C_3  and  C_4
REMARK                            x       y       z     vdW  Elec       q    Type
REMARK                         _______ _______ _______ _____ _____    ______ ____
ROOT
ATOM      1  O   UNL     1       3.453   6.771  17.641  0.00  0.00    +0.000 OA
ATOM      2  C   UNL     1       2.971   6.228  18.633  0.00  0.00    +0.000 A 
ATOM      3  C   UNL     1       2.095   7.007  19.569  0.00  0.00    +0.000 A 
ATOM      4  C   UNL     1       1.620   6.411  20.675  0.00  0.00    +0.000 A 
ATOM      5  C   UNL     1       1.886   5.021  20.939  0.00  0.00    +0.000 A 
ATOM      6  C   UNL     1       2.633   4.289  20.097  0.00  0.00    +0.000 A 
ATOM      7  N   UNL     1       3.202   4.889  18.972  0.00  0.00    +0.000 N 
ATOM      8  C   UNL     1       4.143   4.164  18.117  0.00  0.00    +0.000 C 
ATOM      9  C   UNL     1       4.136   2.639  18.251  0.00  0.00    +0.000 C 
ATOM     10  C   UNL     1       2.939   1.999  17.518  0.00  0.00    +0.000 C 
ATOM     11  N   UNL     1       1.639   2.268  18.132  0.00  0.00    +0.000 NA
ATOM     12  C   UNL     1       1.643   2.040  19.579  0.00  0.00    +0.000 C 
ATOM     13  C   UNL     1       2.792   2.787  20.298  0.00  0.00    +0.000 C 
ATOM     14  C   UNL     1       4.119   2.284  19.733  0.00  0.00    +0.000 C 
ATOM     15  H   UNL     1       0.910   1.718  17.683  0.00  0.00    +0.000 HD
ENDROOT
BRANCH   3  16
ATOM     16  C   UNL     1       1.776   8.414  19.303  0.00  0.00    +0.000 A 
ATOM     17  C   UNL     1       2.167   9.006  18.103  0.00  0.00    +0.000 A 
ATOM     18  C   UNL     1       1.848  10.339  17.899  0.00  0.00    +0.000 A 
ATOM     19  N   UNL     1       1.189  11.100  18.798  0.00  0.00    +0.000 NA
ATOM     20  C   UNL     1       0.816  10.498  19.949  0.00  0.00    +0.000 A 
ATOM     21  C   UNL     1       1.084   9.174  20.247  0.00  0.00    +0.000 A 
ENDBRANCH   3  16
TORSDOF 1
ENDMDL
MODEL 9
REMARK VINA RESULT:      -6.5      4.536      6.934
REMARK  Name = 
REMARK  1 active torsions:
REMARK  status: ('A' for Active; 'I' for Inactive)
REMARK    1  A    between atoms: C_3  and  C_4
REMARK                            x       y       z     vdW  Elec       q    Type
REMARK                         _______ _______ _______ _____ _____    ______ ____
ROOT
ATOM      1  O   UNL     1       4.359   6.000  17.984  0.00  0.00    +0.000 OA
ATOM      2  C   UNL     1       3.908   4.861  17.881  0.00  0.00    +0.000 A 
ATOM      3  C   UNL     1       4.457   3.923  16.847  0.00  0.00    +0.000 A 
ATOM      4  C   UNL     1       3.916   2.700  16.714  0.00  0.00    +0.000 A 
ATOM      5  C   UNL     1       2.865   2.257  17.591  0.00  0.00    +0.000 A 
ATOM      6  C   UNL     1       2.382   3.061  18.552  0.00  0.00    +0.000 A 
ATOM      7  N   UNL     1       2.870   4.364  18.679  0.00  0.00    +0.000 N 
ATOM      8  C   UNL     1       2.265   5.315  19.611  0.00  0.00    +0.000 C 
ATOM      9  C   UNL     1       1.393   4.714  20.716  0.00  0.00    +0.000 C 
ATOM     10  C   UNL     1       2.240   4.102  21.852  0.00  0.00    +0.000 C 
ATOM     11  N   UNL     1       2.969   2.890  21.478  0.00  0.00    +0.000 NA
ATOM     12  C   UNL     1       2.125   1.920  20.775  0.00  0.00    +0.000 C 
ATOM     13  C   UNL     1       1.376   2.544  19.572  0.00  0.00    +0.000 C 
ATOM     14  C   UNL     1       0.479   3.664  20.094  0.00  0.00    +0.000 C 
ATOM     15  H   UNL     1       3.401   2.465  22.296  0.00  0.00    +0.000 HD
ENDROOT
BRANCH   3  16
ATOM     16  C   UNL     1       5.555   4.336  15.965  0.00  0.00    +0.000 A 
ATOM     17  C   UNL     1       6.768   4.758  16.508  0.00  0.00    +0.000 A 
ATOM     18  C   UNL     1       7.774   5.143  15.637  0.00  0.00    +0.000 A 
ATOM     19  N   UNL     1       7.644   5.143  14.294  0.00  0.00    +0.000 NA
ATOM     20  C   UNL     1       6.462   4.723  13.795  0.00  0.00    +0.000 A 
ATOM     21  C   UNL     1       5.396   4.316  14.580  0.00  0.00    +0.000 A 
ENDBRANCH   3  16
TORSDOF 1
ENDMDL
