MODEL 1
REMARK VINA RESULT:      -7.6      0.000      0.000
REMARK  Name = 
REMARK  5 active torsions:
REMARK  status: ('A' for Active; 'I' for Inactive)
REMARK    1  A    between atoms: C_1  and  O_2
REMARK    2  A    between atoms: O_2  and  C_3
REMARK    3  A    between atoms: C_12  and  O_13
REMARK    4  A    between atoms: C_17  and  O_18
REMARK    5  A    between atoms: N_20  and  C_21
REMARK                            x       y       z     vdW  Elec       q    Type
REMARK                         _______ _______ _______ _____ _____    ______ ____
ROOT
ATOM      1  C   UNL     1       2.244   8.321  18.506  0.00  0.00    +0.000 A 
ATOM      2  C   UNL     1       1.574   8.349  19.724  0.00  0.00    +0.000 A 
ATOM      3  C   UNL     1       1.606   7.220  20.557  0.00  0.00    +0.000 A 
ATOM      4  C   UNL     1       2.340   6.057  20.223  0.00  0.00    +0.000 A 
ATOM      5  C   UNL     1       3.100   6.093  19.057  0.00  0.00    +0.000 A 
ATOM      6  C   UNL     1       2.948   7.175  18.190  0.00  0.00    +0.000 A 
ATOM      7  O   UNL     1       3.493   6.977  16.956  0.00  0.00    +0.000 OA
ATOM      8  C   UNL     1       4.229   5.730  17.030  0.00  0.00    +0.000 C 
ATOM      9  C   UNL     1       5.629   6.131  16.530  0.00  0.00    +0.000 C 
ATOM     10  C   UNL     1       6.811   5.963  17.468  0.00  0.00    +0.000 C 
ATOM     11  C   UNL     1       6.553   5.233  18.730  0.00  0.00    +0.000 C 
ATOM     12  C   UNL     1       5.340   4.899  19.192  0.00  0.00    +0.000 C 
ATOM     13  C   UNL     1       4.025   5.072  18.447  0.00  0.00    +0.000 C 
ATOM     14  C   UNL     1       3.325   3.683  18.347  0.00  0.00    +0.000 C 
ATOM     15  C   UNL     1       2.981   2.998  19.699  0.00  0.00    +0.000 C 
ATOM     16  N   UNL     1       1.834   3.610  20.406  0.00  0.00    +0.000 NA
ATOM     17  C   UNL     1       1.307   2.647  21.387  0.00  0.00    +0.000 C 
ATOM     18  C   UNL     1       2.214   4.849  21.116  0.00  0.00    +0.000 C 
ENDROOT
BRANCH   1  20
ATOM     19  C   UNL     1       1.881  10.611  18.064  0.00  0.00    +0.000 C 
ATOM     20  O   UNL     1       2.216   9.322  17.575  0.00  0.00    +0.000 OA
ENDBRANCH   1  20
BRANCH  10  21
ATOM     21  O   UNL     1       7.887   5.315  16.795  0.00  0.00    +0.000 OA
ATOM     22  H   UNL     1       8.699   5.469  17.305  0.00  0.00    +0.000 HD
ENDBRANCH  10  21
BRANCH  14  23
ATOM     23  O   UNL     1       2.115   3.741  17.572  0.00  0.00    +0.000 OA
ATOM     24  H   UNL     1       2.217   4.538  17.009  0.00  0.00    +0.000 HD
ENDBRANCH  14  23
TORSDOF 3
ENDMDL
MODEL 2
REMARK VINA RESULT:      -7.4      2.241      4.517
REMARK  Name = 
REMARK  5 active torsions:
REMARK  status: ('A' for Active; 'I' for Inactive)
REMARK    1  A    between atoms: C_1  and  O_2
REMARK    2  A    between atoms: O_2  and  C_3
REMARK    3  A    between atoms: C_12  and  O_13
REMARK    4  A    between atoms: C_17  and  O_18
REMARK    5  A    between atoms: N_20  and  C_21
REMARK                            x       y       z     vdW  Elec       q    Type
REMARK                         _______ _______ _______ _____ _____    ______ ____
ROOT
ATOM      1  C   UNL     1       1.949   7.656  19.585  0.00  0.00    +0.000 A 
ATOM      2  C   UNL     1       2.336   8.570  18.611  0.00  0.00    +0.000 A 
ATOM      3  C   UNL     1       3.269   8.187  17.635  0.00  0.00    +0.000 A 
ATOM      4  C   UNL     1       3.804   6.878  17.577  0.00  0.00    +0.000 A 
ATOM      5  C   UNL     1       3.315   5.945  18.487  0.00  0.00    +0.000 A 
ATOM      6  C   UNL     1       2.487   6.386  19.520  0.00  0.00    +0.000 A 
ATOM      7  O   UNL     1       2.311   5.472  20.517  0.00  0.00    +0.000 OA
ATOM      8  C   UNL     1       2.925   4.242  20.057  0.00  0.00    +0.000 C 
ATOM      9  C   UNL     1       1.790   3.214  20.219  0.00  0.00    +0.000 C 
ATOM     10  C   UNL     1       1.283   2.490  18.984  0.00  0.00    +0.000 C 
ATOM     11  C   UNL     1       2.062   2.683  17.741  0.00  0.00    +0.000 C 
ATOM     12  C   UNL     1       3.035   3.590  17.574  0.00  0.00    +0.000 C 
ATOM     13  C   UNL     1       3.618   4.480  18.662  0.00  0.00    +0.000 C 
ATOM     14  C   UNL     1       5.157   4.238  18.729  0.00  0.00    +0.000 C 
ATOM     15  C   UNL     1       5.949   4.550  17.429  0.00  0.00    +0.000 C 
ATOM     16  N   UNL     1       6.111   5.996  17.159  0.00  0.00    +0.000 NA
ATOM     17  C   UNL     1       7.228   6.184  16.218  0.00  0.00    +0.000 C 
ATOM     18  C   UNL     1       4.893   6.593  16.574  0.00  0.00    +0.000 C 
ENDROOT
BRANCH   1  20
ATOM     19  C   UNL     1       0.635   9.269  20.701  0.00  0.00    +0.000 C 
ATOM     20  O   UNL     1       1.117   7.937  20.633  0.00  0.00    +0.000 OA
ENDBRANCH   1  20
BRANCH  10  21
ATOM     21  O   UNL     1       1.191   1.091  19.237  0.00  0.00    +0.000 OA
ATOM     22  H   UNL     1       2.087   0.717  19.203  0.00  0.00    +0.000 HD
ENDBRANCH  10  21
BRANCH  14  23
ATOM     23  O   UNL     1       5.774   4.975  19.799  0.00  0.00    +0.000 OA
ATOM     24  H   UNL     1       6.459   5.524  19.361  0.00  0.00    +0.000 HD
ENDBRANCH  14  23
TORSDOF 3
ENDMDL
MODEL 3
REMARK VINA RESULT:      -6.4      2.391      4.549
REMARK  Name = 
REMARK  5 active torsions:
REMARK  status: ('A' for Active; 'I' for Inactive)
REMARK    1  A    between atoms: C_1  and  O_2
REMARK    2  A    between atoms: O_2  and  C_3
REMARK    3  A    between atoms: C_12  and  O_13
REMARK    4  A    between atoms: C_17  and  O_18
REMARK    5  A    between atoms: N_20  and  C_21
REMARK                            x       y       z     vdW  Elec       q    Type
REMARK                         _______ _______ _______ _____ _____    ______ ____
ROOT
ATOM      1  C   UNL     1       2.091   6.938  19.700  0.00  0.00    +0.000 A 
ATOM      2  C   UNL     1       2.230   7.989  18.800  0.00  0.00    +0.000 A 
ATOM      3  C   UNL     1       3.245   7.941  17.832  0.00  0.00    +0.000 A 
ATOM      4  C   UNL     1       4.114   6.831  17.706  0.00  0.00    +0.000 A 
ATOM      5  C   UNL     1       3.883   5.739  18.537  0.00  0.00    +0.000 A 
ATOM      6  C   UNL     1       2.953   5.867  19.569  0.00  0.00    +0.000 A 
ATOM      7  O   UNL     1       3.016   4.870  20.499  0.00  0.00    +0.000 OA
ATOM      8  C   UNL     1       3.945   3.886  19.979  0.00  0.00    +0.000 C 
ATOM      9  C   UNL     1       3.127   2.582  20.037  0.00  0.00    +0.000 C 
ATOM     10  C   UNL     1       2.852   1.839  18.742  0.00  0.00    +0.000 C 
ATOM     11  C   UNL     1       3.566   2.322  17.539  0.00  0.00    +0.000 C 
ATOM     12  C   UNL     1       4.261   3.466  17.464  0.00  0.00    +0.000 C 
ATOM     13  C   UNL     1       4.567   4.400  18.626  0.00  0.00    +0.000 C 
ATOM     14  C   UNL     1       6.113   4.575  18.727  0.00  0.00    +0.000 C 
ATOM     15  C   UNL     1       6.810   5.181  17.475  0.00  0.00    +0.000 C 
ATOM     16  N   UNL     1       6.579   6.632  17.306  0.00  0.00    +0.000 NA
ATOM     17  C   UNL     1       7.616   7.180  16.415  0.00  0.00    +0.000 C 
ATOM     18  C   UNL     1       5.253   6.921  16.722  0.00  0.00    +0.000 C 
ENDROOT
BRANCH   1  20
ATOM     19  C   UNL     1       0.919   8.160  21.344  0.00  0.00    +0.000 C 
ATOM     20  O   UNL     1       1.200   6.909  20.737  0.00  0.00    +0.000 OA
ENDBRANCH   1  20
BRANCH  10  21
ATOM     21  O   UNL     1       3.137   0.452  18.900  0.00  0.00    +0.000 OA
ATOM     22  H   UNL     1       3.346   0.085  18.025  0.00  0.00    +0.000 HD
ENDBRANCH  10  21
BRANCH  14  23
ATOM     23  O   UNL     1       6.494   5.372  19.861  0.00  0.00    +0.000 OA
ATOM     24  H   UNL     1       6.755   4.721  20.548  0.00  0.00    +0.000 HD
ENDBRANCH  14  23
TORSDOF 3
ENDMDL
MODEL 4
REMARK VINA RESULT:      -6.0      5.402      9.200
REMARK  Name = 
REMARK  5 active torsions:
REMARK  status: ('A' for Active; 'I' for Inactive)
REMARK    1  A    between atoms: C_1  and  O_2
REMARK    2  A    between atoms: O_2  and  C_3
REMARK    3  A    between atoms: C_12  and  O_13
REMARK    4  A    between atoms: C_17  and  O_18
REMARK    5  A    between atoms: N_20  and  C_21
REMARK                            x       y       z     vdW  Elec       q    Type
REMARK                         _______ _______ _______ _____ _____    ______ ____
ROOT
ATOM      1  C   UNL     1       0.264   9.503  20.982  0.00  0.00    +0.000 A 
ATOM      2  C   UNL     1       0.164   9.368  22.362  0.00  0.00    +0.000 A 
ATOM      3  C   UNL     1      -0.528  10.338  23.103  0.00  0.00    +0.000 A 
ATOM      4  C   UNL     1      -1.173  11.437  22.489  0.00  0.00    +0.000 A 
ATOM      5  C   UNL     1      -1.163  11.490  21.098  0.00  0.00    +0.000 A 
ATOM      6  C   UNL     1      -0.364  10.586  20.398  0.00  0.00    +0.000 A 
ATOM      7  O   UNL     1      -0.185  10.906  19.084  0.00  0.00    +0.000 OA
ATOM      8  C   UNL     1      -1.069  12.023  18.813  0.00  0.00    +0.000 C 
ATOM      9  C   UNL     1      -1.872  11.532  17.593  0.00  0.00    +0.000 C 
ATOM     10  C   UNL     1      -3.379  11.400  17.722  0.00  0.00    +0.000 C 
ATOM     11  C   UNL     1      -3.986  11.948  18.956  0.00  0.00    +0.000 C 
ATOM     12  C   UNL     1      -3.304  12.356  20.035  0.00  0.00    +0.000 C 
ATOM     13  C   UNL     1      -1.790  12.469  20.140  0.00  0.00    +0.000 C 
ATOM     14  C   UNL     1      -1.429  13.934  20.533  0.00  0.00    +0.000 C 
ATOM     15  C   UNL     1      -2.007  14.435  21.887  0.00  0.00    +0.000 C 
ATOM     16  N   UNL     1      -1.328  13.868  23.073  0.00  0.00    +0.000 NA
ATOM     17  C   UNL     1      -1.609  14.724  24.238  0.00  0.00    +0.000 C 
ATOM     18  C   UNL     1      -1.783  12.495  23.373  0.00  0.00    +0.000 C 
ENDROOT
BRANCH   1  20
ATOM     19  C   UNL     1       1.586   7.556  20.796  0.00  0.00    +0.000 C 
ATOM     20  O   UNL     1       0.981   8.673  20.165  0.00  0.00    +0.000 OA
ENDBRANCH   1  20
BRANCH  10  21
ATOM     21  O   UNL     1      -4.024  12.005  16.604  0.00  0.00    +0.000 OA
ATOM     22  H   UNL     1      -4.058  11.353  15.885  0.00  0.00    +0.000 HD
ENDBRANCH  10  21
BRANCH  14  23
ATOM     23  O   UNL     1      -0.008  14.152  20.562  0.00  0.00    +0.000 OA
ATOM     24  H   UNL     1       0.295  13.715  21.387  0.00  0.00    +0.000 HD
ENDBRANCH  14  23
TORSDOF 3
ENDMDL
MODEL 5
REMARK VINA RESULT:      -6.0      7.418      9.756
REMARK  Name = 
REMARK  5 active torsions:
REMARK  status: ('A' for Active; 'I' for Inactive)
REMARK    1  A    between atoms: C_1  and  O_2
REMARK    2  A    between atoms: O_2  and  C_3
REMARK    3  A    between atoms: C_12  and  O_13
REMARK    4  A    between atoms: C_17  and  O_18
REMARK    5  A    between atoms: N_20  and  C_21
REMARK                            x       y       z     vdW  Elec       q    Type
REMARK                         _______ _______ _______ _____ _____    ______ ____
ROOT
ATOM      1  C   UNL     1      -3.725  10.913  18.089  0.00  0.00    +0.000 A 
ATOM      2  C   UNL     1      -2.854  10.106  17.365  0.00  0.00    +0.000 A 
ATOM      3  C   UNL     1      -1.474  10.188  17.605  0.00  0.00    +0.000 A 
ATOM      4  C   UNL     1      -0.931  11.037  18.598  0.00  0.00    +0.000 A 
ATOM      5  C   UNL     1      -1.827  11.747  19.393  0.00  0.00    +0.000 A 
ATOM      6  C   UNL     1      -3.179  11.742  19.049  0.00  0.00    +0.000 A 
ATOM      7  O   UNL     1      -3.917  12.693  19.691  0.00  0.00    +0.000 OA
ATOM      8  C   UNL     1      -3.043  13.287  20.683  0.00  0.00    +0.000 C 
ATOM      9  C   UNL     1      -3.858  13.145  21.982  0.00  0.00    +0.000 C 
ATOM     10  C   UNL     1      -3.275  12.324  23.119  0.00  0.00    +0.000 C 
ATOM     11  C   UNL     1      -1.870  11.886  22.964  0.00  0.00    +0.000 C 
ATOM     12  C   UNL     1      -1.155  11.979  21.834  0.00  0.00    +0.000 C 
ATOM     13  C   UNL     1      -1.596  12.677  20.556  0.00  0.00    +0.000 C 
ATOM     14  C   UNL     1      -0.538  13.763  20.193  0.00  0.00    +0.000 C 
ATOM     15  C   UNL     1       0.906  13.244  19.939  0.00  0.00    +0.000 C 
ATOM     16  N   UNL     1       1.071  12.542  18.647  0.00  0.00    +0.000 NA
ATOM     17  C   UNL     1       2.501  12.513  18.299  0.00  0.00    +0.000 C 
ATOM     18  C   UNL     1       0.568  11.154  18.700  0.00  0.00    +0.000 C 
ENDROOT
BRANCH   1  20
ATOM     19  C   UNL     1      -5.513  11.999  16.997  0.00  0.00    +0.000 C 
ATOM     20  O   UNL     1      -5.075  10.985  17.887  0.00  0.00    +0.000 OA
ENDBRANCH   1  20
BRANCH  10  21
ATOM     21  O   UNL     1      -3.384  13.037  24.348  0.00  0.00    +0.000 OA
ATOM     22  H   UNL     1      -3.710  12.423  25.026  0.00  0.00    +0.000 HD
ENDBRANCH  10  21
BRANCH  14  23
ATOM     23  O   UNL     1      -0.927  14.536  19.045  0.00  0.00    +0.000 OA
ATOM     24  H   UNL     1      -1.650  15.116  19.368  0.00  0.00    +0.000 HD
ENDBRANCH  14  23
TORSDOF 3
ENDMDL
MODEL 6
REMARK VINA RESULT:      -5.9      2.828      4.084
REMARK  Name = 
REMARK  5 active torsions:
REMARK  status: ('A' for Active; 'I' for Inactive)
REMARK    1  A    between atoms: C_1  and  O_2
REMARK    2  A    between atoms: O_2  and  C_3
REMARK    3  A    between atoms: C_12  and  O_13
REMARK    4  A    between atoms: C_17  and  O_18
REMARK    5  A    between atoms: N_20  and  C_21
REMARK                            x       y       z     vdW  Elec       q    Type
REMARK                         _______ _______ _______ _____ _____    ______ ____
ROOT
ATOM      1  C   UNL     1       7.570   7.033  17.819  0.00  0.00    +0.000 A 
ATOM      2  C   UNL     1       7.884   6.576  19.094  0.00  0.00    +0.000 A 
ATOM      3  C   UNL     1       7.173   5.494  19.636  0.00  0.00    +0.000 A 
ATOM      4  C   UNL     1       6.168   4.813  18.909  0.00  0.00    +0.000 A 
ATOM      5  C   UNL     1       5.952   5.208  17.592  0.00  0.00    +0.000 A 
ATOM      6  C   UNL     1       6.581   6.363  17.126  0.00  0.00    +0.000 A 
ATOM      7  O   UNL     1       6.079   6.831  15.947  0.00  0.00    +0.000 OA
ATOM      8  C   UNL     1       5.147   5.826  15.474  0.00  0.00    +0.000 C 
ATOM      9  C   UNL     1       5.648   5.544  14.045  0.00  0.00    +0.000 C 
ATOM     10  C   UNL     1       6.105   4.137  13.700  0.00  0.00    +0.000 C 
ATOM     11  C   UNL     1       5.845   3.092  14.715  0.00  0.00    +0.000 C 
ATOM     12  C   UNL     1       5.433   3.322  15.970  0.00  0.00    +0.000 C 
ATOM     13  C   UNL     1       5.020   4.671  16.537  0.00  0.00    +0.000 C 
ATOM     14  C   UNL     1       3.568   4.551  17.093  0.00  0.00    +0.000 C 
ATOM     15  C   UNL     1       3.361   3.509  18.229  0.00  0.00    +0.000 C 
ATOM     16  N   UNL     1       3.908   3.933  19.537  0.00  0.00    +0.000 NA
ATOM     17  C   UNL     1       3.273   3.138  20.601  0.00  0.00    +0.000 C 
ATOM     18  C   UNL     1       5.372   3.746  19.615  0.00  0.00    +0.000 C 
ENDROOT
BRANCH   1  20
ATOM     19  C   UNL     1       8.299   9.267  18.049  0.00  0.00    +0.000 C 
ATOM     20  O   UNL     1       8.131   8.127  17.221  0.00  0.00    +0.000 OA
ENDBRANCH   1  20
BRANCH  10  21
ATOM     21  O   UNL     1       5.522   3.717  12.470  0.00  0.00    +0.000 OA
ATOM     22  H   UNL     1       5.878   2.841  12.250  0.00  0.00    +0.000 HD
ENDBRANCH  10  21
BRANCH  14  23
ATOM     23  O   UNL     1       3.063   5.812  17.566  0.00  0.00    +0.000 OA
ATOM     24  H   UNL     1       3.774   6.165  18.143  0.00  0.00    +0.000 HD
ENDBRANCH  14  23
TORSDOF 3
ENDMDL
MODEL 7
REMARK VINA RESULT:      -5.8      7.890     10.447
REMARK  Name = 
REMARK  5 active torsions:
REMARK  status: ('A' for Active; 'I' for Inactive)
REMARK    1  A    between atoms: C_1  and  O_2
REMARK    2  A    between atoms: O_2  and  C_3
REMARK    3  A    between atoms: C_12  and  O_13
REMARK    4  A    between atoms: C_17  and  O_18
REMARK    5  A    between atoms: N_20  and  C_21
REMARK                            x       y       z     vdW  Elec       q    Type
REMARK                         _______ _______ _______ _____ _____    ______ ____
ROOT
ATOM      1  C   UNL     1      -4.583  11.561  18.408  0.00  0.00    +0.000 A 
ATOM      2  C   UNL     1      -3.793  10.693  17.663  0.00  0.00    +0.000 A 
ATOM      3  C   UNL     1      -2.417  10.613  17.926  0.00  0.00    +0.000 A 
ATOM      4  C   UNL     1      -1.803  11.356  18.962  0.00  0.00    +0.000 A 
ATOM      5  C   UNL     1      -2.630  12.128  19.773  0.00  0.00    +0.000 A 
ATOM      6  C   UNL     1      -3.968  12.286  19.409  0.00  0.00    +0.000 A 
ATOM      7  O   UNL     1      -4.610  13.285  20.080  0.00  0.00    +0.000 OA
ATOM      8  C   UNL     1      -3.695  13.739  21.109  0.00  0.00    +0.000 C 
ATOM      9  C   UNL     1      -4.544  13.637  22.389  0.00  0.00    +0.000 C 
ATOM     10  C   UNL     1      -4.077  12.711  23.499  0.00  0.00    +0.000 C 
ATOM     11  C   UNL     1      -2.725  12.128  23.345  0.00  0.00    +0.000 C 
ATOM     12  C   UNL     1      -1.983  12.186  22.230  0.00  0.00    +0.000 C 
ATOM     13  C   UNL     1      -2.321  12.979  20.977  0.00  0.00    +0.000 C 
ATOM     14  C   UNL     1      -1.144  13.956  20.675  0.00  0.00    +0.000 C 
ATOM     15  C   UNL     1       0.239  13.292  20.420  0.00  0.00    +0.000 C 
ATOM     16  N   UNL     1       0.350  12.628  19.103  0.00  0.00    +0.000 NA
ATOM     17  C   UNL     1       1.775  12.456  18.773  0.00  0.00    +0.000 C 
ATOM     18  C   UNL     1      -0.302  11.302  19.090  0.00  0.00    +0.000 C 
ENDROOT
BRANCH   1  20
ATOM     19  C   UNL     1      -6.792  10.743  18.575  0.00  0.00    +0.000 C 
ATOM     20  O   UNL     1      -5.914  11.789  18.190  0.00  0.00    +0.000 OA
ENDBRANCH   1  20
BRANCH  10  21
ATOM     21  O   UNL     1      -4.129  13.382  24.755  0.00  0.00    +0.000 OA
ATOM     22  H   UNL     1      -3.897  14.314  24.610  0.00  0.00    +0.000 HD
ENDBRANCH  10  21
BRANCH  14  23
ATOM     23  O   UNL     1      -1.425  14.812  19.555  0.00  0.00    +0.000 OA
ATOM     24  H   UNL     1      -0.544  15.105  19.237  0.00  0.00    +0.000 HD
ENDBRANCH  14  23
TORSDOF 3
ENDMDL
MODEL 8
REMARK VINA RESULT:      -5.7      6.879      8.407
REMARK  Name = 
REMARK  5 active torsions:
REMARK  status: ('A' for Active; 'I' for Inactive)
REMARK    1  A    between atoms: C_1  and  O_2
REMARK    2  A    between atoms: O_2  and  C_3
REMARK    3  A    between atoms: C_12  and  O_13
REMARK    4  A    between atoms: C_17  and  O_18
REMARK    5  A    between atoms: N_20  and  C_21
REMARK                            x       y       z     vdW  Elec       q    Type
REMARK                         _______ _______ _______ _____ _____    ______ ____
ROOT
ATOM      1  C   UNL     1      -2.489  10.785  17.524  0.00  0.00    +0.000 A 
ATOM      2  C   UNL     1      -3.782  11.197  17.823  0.00  0.00    +0.000 A 
ATOM      3  C   UNL     1      -4.019  11.941  18.990  0.00  0.00    +0.000 A 
ATOM      4  C   UNL     1      -2.973  12.330  19.860  0.00  0.00    +0.000 A 
ATOM      5  C   UNL     1      -1.673  12.011  19.481  0.00  0.00    +0.000 A 
ATOM      6  C   UNL     1      -1.481  11.165  18.388  0.00  0.00    +0.000 A 
ATOM      7  O   UNL     1      -0.212  10.674  18.283  0.00  0.00    +0.000 OA
ATOM      8  C   UNL     1       0.577  11.369  19.280  0.00  0.00    +0.000 C 
ATOM      9  C   UNL     1       1.752  11.927  18.456  0.00  0.00    +0.000 C 
ATOM     10  C   UNL     1       1.952  13.432  18.402  0.00  0.00    +0.000 C 
ATOM     11  C   UNL     1       1.115  14.241  19.317  0.00  0.00    +0.000 C 
ATOM     12  C   UNL     1       0.074  13.776  20.022  0.00  0.00    +0.000 C 
ATOM     13  C   UNL     1      -0.348  12.318  20.130  0.00  0.00    +0.000 C 
ATOM     14  C   UNL     1      -0.366  11.917  21.637  0.00  0.00    +0.000 C 
ATOM     15  C   UNL     1      -1.334  12.728  22.543  0.00  0.00    +0.000 C 
ATOM     16  N   UNL     1      -2.761  12.382  22.355  0.00  0.00    +0.000 NA
ATOM     17  C   UNL     1      -3.521  12.830  23.534  0.00  0.00    +0.000 C 
ATOM     18  C   UNL     1      -3.335  13.018  21.151  0.00  0.00    +0.000 C 
ENDROOT
BRANCH   1  20
ATOM     19  C   UNL     1      -2.816  10.259  15.246  0.00  0.00    +0.000 C 
ATOM     20  O   UNL     1      -2.147   9.987  16.467  0.00  0.00    +0.000 OA
ENDBRANCH   1  20
BRANCH  10  21
ATOM     21  O   UNL     1       3.317  13.757  18.647  0.00  0.00    +0.000 OA
ATOM     22  H   UNL     1       3.358  14.673  18.967  0.00  0.00    +0.000 HD
ENDBRANCH  10  21
BRANCH  14  23
ATOM     23  O   UNL     1      -0.666  10.523  21.822  0.00  0.00    +0.000 OA
ATOM     24  H   UNL     1      -0.604  10.133  20.924  0.00  0.00    +0.000 HD
ENDBRANCH  14  23
TORSDOF 3
ENDMDL
MODEL 9
REMARK VINA RESULT:      -5.7      5.074      8.694
REMARK  Name = 
REMARK  5 active torsions:
REMARK  status: ('A' for Active; 'I' for Inactive)
REMARK    1  A    between atoms: C_1  and  O_2
REMARK    2  A    between atoms: O_2  and  C_3
REMARK    3  A    between atoms: C_12  and  O_13
REMARK    4  A    between atoms: C_17  and  O_18
REMARK    5  A    between atoms: N_20  and  C_21
REMARK                            x       y       z     vdW  Elec       q    Type
REMARK                         _______ _______ _______ _____ _____    ______ ____
ROOT
ATOM      1  C   UNL     1      -0.129   9.011  21.519  0.00  0.00    +0.000 A 
ATOM      2  C   UNL     1      -0.324   9.432  22.829  0.00  0.00    +0.000 A 
ATOM      3  C   UNL     1      -0.792  10.733  23.075  0.00  0.00    +0.000 A 
ATOM      4  C   UNL     1      -1.118  11.627  22.027  0.00  0.00    +0.000 A 
ATOM      5  C   UNL     1      -1.029  11.146  20.724  0.00  0.00    +0.000 A 
ATOM      6  C   UNL     1      -0.443   9.898  20.508  0.00  0.00    +0.000 A 
ATOM      7  O   UNL     1      -0.129   9.652  19.204  0.00  0.00    +0.000 OA
ATOM      8  C   UNL     1      -0.698  10.741  18.435  0.00  0.00    +0.000 C 
ATOM      9  C   UNL     1      -1.537  10.006  17.373  0.00  0.00    +0.000 C 
ATOM     10  C   UNL     1      -3.035  10.251  17.334  0.00  0.00    +0.000 C 
ATOM     11  C   UNL     1      -3.548  11.340  18.197  0.00  0.00    +0.000 C 
ATOM     12  C   UNL     1      -2.838  11.972  19.142  0.00  0.00    +0.000 C 
ATOM     13  C   UNL     1      -1.350  11.797  19.404  0.00  0.00    +0.000 C 
ATOM     14  C   UNL     1      -0.660  13.191  19.294  0.00  0.00    +0.000 C 
ATOM     15  C   UNL     1      -1.161  14.276  20.289  0.00  0.00    +0.000 C 
ATOM     16  N   UNL     1      -0.699  14.072  21.680  0.00  0.00    +0.000 NA
ATOM     17  C   UNL     1      -0.817  15.343  22.414  0.00  0.00    +0.000 C 
ATOM     18  C   UNL     1      -1.491  13.043  22.384  0.00  0.00    +0.000 C 
ENDROOT
BRANCH   1  20
ATOM     19  C   UNL     1       1.797   7.791  20.906  0.00  0.00    +0.000 C 
ATOM     20  O   UNL     1       0.401   7.803  21.157  0.00  0.00    +0.000 OA
ENDBRANCH   1  20
BRANCH  10  21
ATOM     21  O   UNL     1      -3.458  10.509  15.999  0.00  0.00    +0.000 OA
ATOM     22  H   UNL     1      -3.191   9.756  15.446  0.00  0.00    +0.000 HD
ENDBRANCH  10  21
BRANCH  14  23
ATOM     23  O   UNL     1       0.768  13.101  19.437  0.00  0.00    +0.000 OA
ATOM     24  H   UNL     1       1.094  14.011  19.271  0.00  0.00    +0.000 HD
ENDBRANCH  14  23
TORSDOF 3
ENDMDL
