MODEL 1
REMARK VINA RESULT:      -7.7      0.000      0.000
REMARK  Name = 
REMARK  4 active torsions:
REMARK  status: ('A' for Active; 'I' for Inactive)
REMARK    1  A    between atoms: C_8  and  C_9
REMARK    2  A    between atoms: C_9  and  N_10
REMARK    3  A    between atoms: N_13  and  C_14
REMARK    4  A    between atoms: C_14  and  C_15
REMARK                            x       y       z     vdW  Elec       q    Type
REMARK                         _______ _______ _______ _____ _____    ______ ____
ROOT
ATOM      1  N   UNL     1      -0.567  14.886  18.588  0.00  0.00    +0.000 N 
ATOM      2  C   UNL     1      -0.367  13.560  18.901  0.00  0.00    +0.000 A 
ATOM      3  N   UNL     1      -0.899  12.651  18.091  0.00  0.00    +0.000 NA
ATOM      4  C   UNL     1      -0.713  11.366  18.425  0.00  0.00    +0.000 A 
ATOM      5  N   UNL     1      -1.227  10.428  17.518  0.00  0.00    +0.000 N 
ATOM      6  C   UNL     1       0.001  10.948  19.539  0.00  0.00    +0.000 A 
ATOM      7  N   UNL     1       0.141   9.635  19.865  0.00  0.00    +0.000 NA
ATOM      8  C   UNL     1       0.860   9.370  20.969  0.00  0.00    +0.000 A 
ATOM      9  N   UNL     1       1.406  10.334  21.728  0.00  0.00    +0.000 NA
ATOM     10  N   UNL     1       1.231  11.657  21.367  0.00  0.00    +0.000 NA
ATOM     11  C   UNL     1       0.531  11.996  20.283  0.00  0.00    +0.000 A 
ATOM     12  N   UNL     1       0.361  13.283  19.973  0.00  0.00    +0.000 NA
ATOM     13  H   UNL     1      -0.764  14.997  17.604  0.00  0.00    +0.000 HD
ATOM     14  H   UNL     1       0.160  15.464  18.987  0.00  0.00    +0.000 HD
ATOM     15  H   UNL     1      -1.827  10.893  16.846  0.00  0.00    +0.000 HD
ATOM     16  H   UNL     1      -1.656   9.636  17.993  0.00  0.00    +0.000 HD
ENDROOT
BRANCH   8  17
ATOM     17  C   UNL     1       1.053   7.923  21.364  0.00  0.00    +0.000 C 
BRANCH  17  18
ATOM     18  N   UNL     1       1.408   6.956  20.315  0.00  0.00    +0.000 NA
ATOM     19  C   UNL     1       1.678   5.592  20.788  0.00  0.00    +0.000 C 
ATOM     20  C   UNL     1       1.825   4.614  19.590  0.00  0.00    +0.000 C 
ATOM     21  N   UNL     1       2.806   5.027  18.554  0.00  0.00    +0.000 NA
ATOM     22  C   UNL     1       2.557   6.445  18.207  0.00  0.00    +0.000 C 
ATOM     23  C   UNL     1       2.479   7.403  19.418  0.00  0.00    +0.000 C 
BRANCH  21  24
ATOM     24  C   UNL     1       4.180   4.780  19.018  0.00  0.00    +0.000 C 
BRANCH  24  25
ATOM     25  C   UNL     1       5.192   4.580  17.909  0.00  0.00    +0.000 A 
ATOM     26  C   UNL     1       4.763   4.200  16.628  0.00  0.00    +0.000 A 
ATOM     27  C   UNL     1       5.681   4.048  15.587  0.00  0.00    +0.000 A 
ATOM     28  C   UNL     1       7.037   4.271  15.815  0.00  0.00    +0.000 A 
ATOM     29  C   UNL     1       7.477   4.637  17.085  0.00  0.00    +0.000 A 
ATOM     30  C   UNL     1       6.561   4.788  18.129  0.00  0.00    +0.000 A 
ENDBRANCH  24  25
ENDBRANCH  21  24
ENDBRANCH  17  18
ENDBRANCH   8  17
TORSDOF 4
ENDMDL
MODEL 2
REMARK VINA RESULT:      -7.7      1.167      1.167
REMARK  Name = 
REMARK  4 active torsions:
REMARK  status: ('A' for Active; 'I' for Inactive)
REMARK    1  A    between atoms: C_8  and  C_9
REMARK    2  A    between atoms: C_9  and  N_10
REMARK    3  A    between atoms: N_13  and  C_14
REMARK    4  A    between atoms: C_14  and  C_15
REMARK                            x       y       z     vdW  Elec       q    Type
REMARK                         _______ _______ _______ _____ _____    ______ ____
ROOT
ATOM      1  N   UNL     1      -2.735  13.574  19.976  0.00  0.00    +0.000 N 
ATOM      2  C   UNL     1      -1.894  12.484  20.007  0.00  0.00    +0.000 A 
ATOM      3  N   UNL     1      -1.682  11.840  18.864  0.00  0.00    +0.000 NA
ATOM      4  C   UNL     1      -0.879  10.767  18.919  0.00  0.00    +0.000 A 
ATOM      5  N   UNL     1      -0.620  10.146  17.689  0.00  0.00    +0.000 N 
ATOM      6  C   UNL     1      -0.263  10.316  20.078  0.00  0.00    +0.000 A 
ATOM      7  N   UNL     1       0.519   9.204  20.102  0.00  0.00    +0.000 NA
ATOM      8  C   UNL     1       1.057   8.881  21.290  0.00  0.00    +0.000 A 
ATOM      9  N   UNL     1       0.835   9.596  22.405  0.00  0.00    +0.000 NA
ATOM     10  N   UNL     1       0.025  10.714  22.340  0.00  0.00    +0.000 NA
ATOM     11  C   UNL     1      -0.542  11.097  21.194  0.00  0.00    +0.000 A 
ATOM     12  N   UNL     1      -1.336  12.168  21.167  0.00  0.00    +0.000 NA
ATOM     13  H   UNL     1      -2.783  13.964  19.047  0.00  0.00    +0.000 HD
ATOM     14  H   UNL     1      -2.532  14.207  20.738  0.00  0.00    +0.000 HD
ATOM     15  H   UNL     1      -1.248  10.511  16.981  0.00  0.00    +0.000 HD
ATOM     16  H   UNL     1      -0.615   9.132  17.769  0.00  0.00    +0.000 HD
ENDROOT
BRANCH   8  17
ATOM     17  C   UNL     1       1.944   7.658  21.363  0.00  0.00    +0.000 C 
BRANCH  17  18
ATOM     18  N   UNL     1       1.915   6.709  20.241  0.00  0.00    +0.000 NA
ATOM     19  C   UNL     1       1.768   5.297  20.621  0.00  0.00    +0.000 C 
ATOM     20  C   UNL     1       1.529   4.413  19.367  0.00  0.00    +0.000 C 
ATOM     21  N   UNL     1       2.529   4.575  18.280  0.00  0.00    +0.000 NA
ATOM     22  C   UNL     1       2.721   6.022  18.027  0.00  0.00    +0.000 C 
ATOM     23  C   UNL     1       3.019   6.865  19.288  0.00  0.00    +0.000 C 
BRANCH  21  24
ATOM     24  C   UNL     1       3.779   3.879  18.623  0.00  0.00    +0.000 C 
BRANCH  24  25
ATOM     25  C   UNL     1       4.922   4.129  17.661  0.00  0.00    +0.000 A 
ATOM     26  C   UNL     1       4.736   3.933  16.284  0.00  0.00    +0.000 A 
ATOM     27  C   UNL     1       5.769   4.194  15.382  0.00  0.00    +0.000 A 
ATOM     28  C   UNL     1       7.000   4.653  15.846  0.00  0.00    +0.000 A 
ATOM     29  C   UNL     1       7.202   4.840  17.212  0.00  0.00    +0.000 A 
ATOM     30  C   UNL     1       6.170   4.578  18.116  0.00  0.00    +0.000 A 
ENDBRANCH  24  25
ENDBRANCH  21  24
ENDBRANCH  17  18
ENDBRANCH   8  17
TORSDOF 4
ENDMDL
MODEL 3
REMARK VINA RESULT:      -7.4      2.449      9.232
REMARK  Name = 
REMARK  4 active torsions:
REMARK  status: ('A' for Active; 'I' for Inactive)
REMARK    1  A    between atoms: C_8  and  C_9
REMARK    2  A    between atoms: C_9  and  N_10
REMARK    3  A    between atoms: N_13  and  C_14
REMARK    4  A    between atoms: C_14  and  C_15
REMARK                            x       y       z     vdW  Elec       q    Type
REMARK                         _______ _______ _______ _____ _____    ______ ____
ROOT
ATOM      1  N   UNL     1       5.176   1.467  20.307  0.00  0.00    +0.000 N 
ATOM      2  C   UNL     1       4.482   2.604  19.955  0.00  0.00    +0.000 A 
ATOM      3  N   UNL     1       3.190   2.654  20.262  0.00  0.00    +0.000 NA
ATOM      4  C   UNL     1       2.527   3.759  19.891  0.00  0.00    +0.000 A 
ATOM      5  N   UNL     1       1.183   3.815  20.285  0.00  0.00    +0.000 N 
ATOM      6  C   UNL     1       3.111   4.831  19.231  0.00  0.00    +0.000 A 
ATOM      7  N   UNL     1       2.400   5.923  18.841  0.00  0.00    +0.000 NA
ATOM      8  C   UNL     1       3.091   6.890  18.215  0.00  0.00    +0.000 A 
ATOM      9  N   UNL     1       4.408   6.797  17.967  0.00  0.00    +0.000 NA
ATOM     10  N   UNL     1       5.092   5.666  18.371  0.00  0.00    +0.000 NA
ATOM     11  C   UNL     1       4.472   4.665  19.000  0.00  0.00    +0.000 A 
ATOM     12  N   UNL     1       5.156   3.577  19.359  0.00  0.00    +0.000 NA
ATOM     13  H   UNL     1       4.718   0.988  21.068  0.00  0.00    +0.000 HD
ATOM     14  H   UNL     1       6.163   1.663  20.404  0.00  0.00    +0.000 HD
ATOM     15  H   UNL     1       0.887   2.907  20.628  0.00  0.00    +0.000 HD
ATOM     16  H   UNL     1       0.589   4.207  19.557  0.00  0.00    +0.000 HD
ENDROOT
BRANCH   8  17
ATOM     17  C   UNL     1       2.343   8.128  17.773  0.00  0.00    +0.000 C 
BRANCH  17  18
ATOM     18  N   UNL     1       1.283   8.650  18.647  0.00  0.00    +0.000 NA
ATOM     19  C   UNL     1       0.697   9.929  18.223  0.00  0.00    +0.000 C 
ATOM     20  C   UNL     1      -0.548  10.275  19.084  0.00  0.00    +0.000 C 
ATOM     21  N   UNL     1      -0.329  10.247  20.553  0.00  0.00    +0.000 NA
ATOM     22  C   UNL     1       0.372   8.989  20.901  0.00  0.00    +0.000 C 
ATOM     23  C   UNL     1       1.643   8.705  20.068  0.00  0.00    +0.000 C 
BRANCH  21  24
ATOM     24  C   UNL     1       0.398  11.450  20.989  0.00  0.00    +0.000 C 
BRANCH  24  25
ATOM     25  C   UNL     1      -0.384  12.354  21.919  0.00  0.00    +0.000 A 
ATOM     26  C   UNL     1       0.003  13.692  22.086  0.00  0.00    +0.000 A 
ATOM     27  C   UNL     1      -0.730  14.546  22.913  0.00  0.00    +0.000 A 
ATOM     28  C   UNL     1      -1.856  14.072  23.583  0.00  0.00    +0.000 A 
ATOM     29  C   UNL     1      -2.243  12.741  23.435  0.00  0.00    +0.000 A 
ATOM     30  C   UNL     1      -1.511  11.885  22.610  0.00  0.00    +0.000 A 
ENDBRANCH  24  25
ENDBRANCH  21  24
ENDBRANCH  17  18
ENDBRANCH   8  17
TORSDOF 4
ENDMDL
MODEL 4
REMARK VINA RESULT:      -7.3      2.550      9.329
REMARK  Name = 
REMARK  4 active torsions:
REMARK  status: ('A' for Active; 'I' for Inactive)
REMARK    1  A    between atoms: C_8  and  C_9
REMARK    2  A    between atoms: C_9  and  N_10
REMARK    3  A    between atoms: N_13  and  C_14
REMARK    4  A    between atoms: C_14  and  C_15
REMARK                            x       y       z     vdW  Elec       q    Type
REMARK                         _______ _______ _______ _____ _____    ______ ____
ROOT
ATOM      1  N   UNL     1       5.211   1.532  20.341  0.00  0.00    +0.000 N 
ATOM      2  C   UNL     1       4.455   2.641  20.033  0.00  0.00    +0.000 A 
ATOM      3  N   UNL     1       3.185   2.646  20.425  0.00  0.00    +0.000 NA
ATOM      4  C   UNL     1       2.460   3.725  20.096  0.00  0.00    +0.000 A 
ATOM      5  N   UNL     1       1.143   3.734  20.579  0.00  0.00    +0.000 N 
ATOM      6  C   UNL     1       2.959   4.813  19.395  0.00  0.00    +0.000 A 
ATOM      7  N   UNL     1       2.184   5.876  19.050  0.00  0.00    +0.000 NA
ATOM      8  C   UNL     1       2.796   6.864  18.375  0.00  0.00    +0.000 A 
ATOM      9  N   UNL     1       4.095   6.817  18.040  0.00  0.00    +0.000 NA
ATOM     10  N   UNL     1       4.846   5.714  18.402  0.00  0.00    +0.000 NA
ATOM     11  C   UNL     1       4.306   4.695  19.074  0.00  0.00    +0.000 A 
ATOM     12  N   UNL     1       5.052   3.634  19.389  0.00  0.00    +0.000 NA
ATOM     13  H   UNL     1       4.824   1.041  21.133  0.00  0.00    +0.000 HD
ATOM     14  H   UNL     1       6.195   1.764  20.371  0.00  0.00    +0.000 HD
ATOM     15  H   UNL     1       0.904   2.818  20.943  0.00  0.00    +0.000 HD
ATOM     16  H   UNL     1       0.489   4.100  19.891  0.00  0.00    +0.000 HD
ENDROOT
BRANCH   8  17
ATOM     17  C   UNL     1       1.976   8.072  17.980  0.00  0.00    +0.000 C 
BRANCH  17  18
ATOM     18  N   UNL     1       1.759   9.125  18.983  0.00  0.00    +0.000 NA
ATOM     19  C   UNL     1       1.105   8.682  20.222  0.00  0.00    +0.000 C 
ATOM     20  C   UNL     1       1.125   9.813  21.287  0.00  0.00    +0.000 C 
ATOM     21  N   UNL     1       0.584  11.119  20.832  0.00  0.00    +0.000 NA
ATOM     22  C   UNL     1       1.191  11.451  19.522  0.00  0.00    +0.000 C 
ATOM     23  C   UNL     1       1.099  10.327  18.463  0.00  0.00    +0.000 C 
BRANCH  21  24
ATOM     24  C   UNL     1      -0.887  11.082  20.792  0.00  0.00    +0.000 C 
BRANCH  24  25
ATOM     25  C   UNL     1      -1.565  12.181  21.582  0.00  0.00    +0.000 A 
ATOM     26  C   UNL     1      -2.792  12.706  21.145  0.00  0.00    +0.000 A 
ATOM     27  C   UNL     1      -3.446  13.694  21.883  0.00  0.00    +0.000 A 
ATOM     28  C   UNL     1      -2.882  14.170  23.065  0.00  0.00    +0.000 A 
ATOM     29  C   UNL     1      -1.658  13.666  23.503  0.00  0.00    +0.000 A 
ATOM     30  C   UNL     1      -1.001  12.679  22.766  0.00  0.00    +0.000 A 
ENDBRANCH  24  25
ENDBRANCH  21  24
ENDBRANCH  17  18
ENDBRANCH   8  17
TORSDOF 4
ENDMDL
MODEL 5
REMARK VINA RESULT:      -7.2      2.551      9.355
REMARK  Name = 
REMARK  4 active torsions:
REMARK  status: ('A' for Active; 'I' for Inactive)
REMARK    1  A    between atoms: C_8  and  C_9
REMARK    2  A    between atoms: C_9  and  N_10
REMARK    3  A    between atoms: N_13  and  C_14
REMARK    4  A    between atoms: C_14  and  C_15
REMARK                            x       y       z     vdW  Elec       q    Type
REMARK                         _______ _______ _______ _____ _____    ______ ____
ROOT
ATOM      1  N   UNL     1       3.809   0.926  18.288  0.00  0.00    +0.000 N 
ATOM      2  C   UNL     1       3.448   2.249  18.421  0.00  0.00    +0.000 A 
ATOM      3  N   UNL     1       2.411   2.526  19.205  0.00  0.00    +0.000 NA
ATOM      4  C   UNL     1       2.061   3.817  19.304  0.00  0.00    +0.000 A 
ATOM      5  N   UNL     1       1.008   4.088  20.189  0.00  0.00    +0.000 N 
ATOM      6  C   UNL     1       2.718   4.852  18.656  0.00  0.00    +0.000 A 
ATOM      7  N   UNL     1       2.314   6.147  18.753  0.00  0.00    +0.000 NA
ATOM      8  C   UNL     1       3.044   7.050  18.077  0.00  0.00    +0.000 A 
ATOM      9  N   UNL     1       4.107   6.711  17.329  0.00  0.00    +0.000 NA
ATOM     10  N   UNL     1       4.478   5.382  17.249  0.00  0.00    +0.000 NA
ATOM     11  C   UNL     1       3.803   4.430  17.895  0.00  0.00    +0.000 A 
ATOM     12  N   UNL     1       4.173   3.153  17.779  0.00  0.00    +0.000 NA
ATOM     13  H   UNL     1       3.489   0.385  19.077  0.00  0.00    +0.000 HD
ATOM     14  H   UNL     1       4.783   0.843  18.028  0.00  0.00    +0.000 HD
ATOM     15  H   UNL     1       0.559   3.221  20.465  0.00  0.00    +0.000 HD
ATOM     16  H   UNL     1       0.374   4.793  19.820  0.00  0.00    +0.000 HD
ENDROOT
BRANCH   8  17
ATOM     17  C   UNL     1       2.638   8.505  18.165  0.00  0.00    +0.000 C 
BRANCH  17  18
ATOM     18  N   UNL     1       1.339   8.830  18.772  0.00  0.00    +0.000 NA
ATOM     19  C   UNL     1       0.616   9.941  18.140  0.00  0.00    +0.000 C 
ATOM     20  C   UNL     1      -0.823  10.055  18.712  0.00  0.00    +0.000 C 
ATOM     21  N   UNL     1      -0.911  10.131  20.193  0.00  0.00    +0.000 NA
ATOM     22  C   UNL     1      -0.066   9.061  20.771  0.00  0.00    +0.000 C 
ATOM     23  C   UNL     1       1.381   9.014  20.226  0.00  0.00    +0.000 C 
BRANCH  21  24
ATOM     24  C   UNL     1      -0.539  11.475  20.663  0.00  0.00    +0.000 C 
BRANCH  24  25
ATOM     25  C   UNL     1      -1.627  12.195  21.433  0.00  0.00    +0.000 A 
ATOM     26  C   UNL     1      -2.571  12.977  20.749  0.00  0.00    +0.000 A 
ATOM     27  C   UNL     1      -3.600  13.617  21.442  0.00  0.00    +0.000 A 
ATOM     28  C   UNL     1      -3.697  13.484  22.826  0.00  0.00    +0.000 A 
ATOM     29  C   UNL     1      -2.758  12.720  23.518  0.00  0.00    +0.000 A 
ATOM     30  C   UNL     1      -1.727  12.081  22.827  0.00  0.00    +0.000 A 
ENDBRANCH  24  25
ENDBRANCH  21  24
ENDBRANCH  17  18
ENDBRANCH   8  17
TORSDOF 4
ENDMDL
MODEL 6
REMARK VINA RESULT:      -7.2      2.713      9.416
REMARK  Name = 
REMARK  4 active torsions:
REMARK  status: ('A' for Active; 'I' for Inactive)
REMARK    1  A    between atoms: C_8  and  C_9
REMARK    2  A    between atoms: C_9  and  N_10
REMARK    3  A    between atoms: N_13  and  C_14
REMARK    4  A    between atoms: C_14  and  C_15
REMARK                            x       y       z     vdW  Elec       q    Type
REMARK                         _______ _______ _______ _____ _____    ______ ____
ROOT
ATOM      1  N   UNL     1       4.901   2.165  19.535  0.00  0.00    +0.000 N 
ATOM      2  C   UNL     1       4.168   3.327  19.435  0.00  0.00    +0.000 A 
ATOM      3  N   UNL     1       3.026   3.393  20.112  0.00  0.00    +0.000 NA
ATOM      4  C   UNL     1       2.316   4.523  19.983  0.00  0.00    +0.000 A 
ATOM      5  N   UNL     1       1.150   4.592  20.760  0.00  0.00    +0.000 N 
ATOM      6  C   UNL     1       2.711   5.605  19.210  0.00  0.00    +0.000 A 
ATOM      7  N   UNL     1       1.948   6.724  19.077  0.00  0.00    +0.000 NA
ATOM      8  C   UNL     1       2.451   7.697  18.301  0.00  0.00    +0.000 A 
ATOM      9  N   UNL     1       3.633   7.586  17.672  0.00  0.00    +0.000 NA
ATOM     10  N   UNL     1       4.372   6.429  17.825  0.00  0.00    +0.000 NA
ATOM     11  C   UNL     1       3.937   5.420  18.582  0.00  0.00    +0.000 A 
ATOM     12  N   UNL     1       4.664   4.307  18.692  0.00  0.00    +0.000 NA
ATOM     13  H   UNL     1       4.675   1.669  20.384  0.00  0.00    +0.000 HD
ATOM     14  H   UNL     1       5.878   2.337  19.341  0.00  0.00    +0.000 HD
ATOM     15  H   UNL     1       0.943   3.679  21.150  0.00  0.00    +0.000 HD
ATOM     16  H   UNL     1       0.380   5.020  20.251  0.00  0.00    +0.000 HD
ENDROOT
BRANCH   8  17
ATOM     17  C   UNL     1       1.643   8.965  18.133  0.00  0.00    +0.000 C 
BRANCH  17  18
ATOM     18  N   UNL     1       1.488   9.850  19.297  0.00  0.00    +0.000 NA
ATOM     19  C   UNL     1       0.590   9.350  20.347  0.00  0.00    +0.000 C 
ATOM     20  C   UNL     1       0.669  10.249  21.611  0.00  0.00    +0.000 C 
ATOM     21  N   UNL     1       0.457  11.699  21.370  0.00  0.00    +0.000 NA
ATOM     22  C   UNL     1       1.298  12.115  20.224  0.00  0.00    +0.000 C 
ATOM     23  C   UNL     1       1.149  11.237  18.960  0.00  0.00    +0.000 C 
BRANCH  21  24
ATOM     24  C   UNL     1      -0.973  11.983  21.168  0.00  0.00    +0.000 C 
BRANCH  24  25
ATOM     25  C   UNL     1      -1.629  12.746  22.300  0.00  0.00    +0.000 A 
ATOM     26  C   UNL     1      -1.051  13.934  22.772  0.00  0.00    +0.000 A 
ATOM     27  C   UNL     1      -1.664  14.667  23.791  0.00  0.00    +0.000 A 
ATOM     28  C   UNL     1      -2.859  14.218  24.350  0.00  0.00    +0.000 A 
ATOM     29  C   UNL     1      -3.436  13.033  23.899  0.00  0.00    +0.000 A 
ATOM     30  C   UNL     1      -2.824  12.298  22.881  0.00  0.00    +0.000 A 
ENDBRANCH  24  25
ENDBRANCH  21  24
ENDBRANCH  17  18
ENDBRANCH   8  17
TORSDOF 4
ENDMDL
MODEL 7
REMARK VINA RESULT:      -7.2      1.256      1.842
REMARK  Name = 
REMARK  4 active torsions:
REMARK  status: ('A' for Active; 'I' for Inactive)
REMARK    1  A    between atoms: C_8  and  C_9
REMARK    2  A    between atoms: C_9  and  N_10
REMARK    3  A    between atoms: N_13  and  C_14
REMARK    4  A    between atoms: C_14  and  C_15
REMARK                            x       y       z     vdW  Elec       q    Type
REMARK                         _______ _______ _______ _____ _____    ______ ____
ROOT
ATOM      1  N   UNL     1      -1.821  14.463  19.748  0.00  0.00    +0.000 N 
ATOM      2  C   UNL     1      -1.317  13.256  20.183  0.00  0.00    +0.000 A 
ATOM      3  N   UNL     1      -1.589  12.893  21.432  0.00  0.00    +0.000 NA
ATOM      4  C   UNL     1      -1.071  11.726  21.844  0.00  0.00    +0.000 A 
ATOM      5  N   UNL     1      -1.427  11.335  23.143  0.00  0.00    +0.000 N 
ATOM      6  C   UNL     1      -0.297  10.895  21.047  0.00  0.00    +0.000 A 
ATOM      7  N   UNL     1       0.240   9.734  21.509  0.00  0.00    +0.000 NA
ATOM      8  C   UNL     1       0.966   9.023  20.630  0.00  0.00    +0.000 A 
ATOM      9  N   UNL     1       1.173   9.426  19.366  0.00  0.00    +0.000 NA
ATOM     10  N   UNL     1       0.618  10.618  18.939  0.00  0.00    +0.000 NA
ATOM     11  C   UNL     1      -0.116  11.377  19.755  0.00  0.00    +0.000 A 
ATOM     12  N   UNL     1      -0.620  12.532  19.319  0.00  0.00    +0.000 NA
ATOM     13  H   UNL     1      -2.626  14.734  20.293  0.00  0.00    +0.000 HD
ATOM     14  H   UNL     1      -1.914  14.472  18.741  0.00  0.00    +0.000 HD
ATOM     15  H   UNL     1      -1.872  12.109  23.624  0.00  0.00    +0.000 HD
ATOM     16  H   UNL     1      -0.644  10.920  23.642  0.00  0.00    +0.000 HD
ENDROOT
BRANCH   8  17
ATOM     17  C   UNL     1       1.572   7.718  21.097  0.00  0.00    +0.000 C 
BRANCH  17  18
ATOM     18  N   UNL     1       1.692   6.620  20.127  0.00  0.00    +0.000 NA
ATOM     19  C   UNL     1       1.751   5.274  20.712  0.00  0.00    +0.000 C 
ATOM     20  C   UNL     1       1.656   4.190  19.604  0.00  0.00    +0.000 C 
ATOM     21  N   UNL     1       2.630   4.334  18.492  0.00  0.00    +0.000 NA
ATOM     22  C   UNL     1       2.610   5.741  18.027  0.00  0.00    +0.000 C 
ATOM     23  C   UNL     1       2.770   6.795  19.147  0.00  0.00    +0.000 C 
BRANCH  21  24
ATOM     24  C   UNL     1       3.967   3.888  18.917  0.00  0.00    +0.000 C 
BRANCH  24  25
ATOM     25  C   UNL     1       5.057   4.104  17.888  0.00  0.00    +0.000 A 
ATOM     26  C   UNL     1       4.826   3.782  16.542  0.00  0.00    +0.000 A 
ATOM     27  C   UNL     1       5.810   4.009  15.578  0.00  0.00    +0.000 A 
ATOM     28  C   UNL     1       7.036   4.559  15.948  0.00  0.00    +0.000 A 
ATOM     29  C   UNL     1       7.282   4.872  17.284  0.00  0.00    +0.000 A 
ATOM     30  C   UNL     1       6.300   4.644  18.250  0.00  0.00    +0.000 A 
ENDBRANCH  24  25
ENDBRANCH  21  24
ENDBRANCH  17  18
ENDBRANCH   8  17
TORSDOF 4
ENDMDL
MODEL 8
REMARK VINA RESULT:      -7.2      3.061      9.504
REMARK  Name = 
REMARK  4 active torsions:
REMARK  status: ('A' for Active; 'I' for Inactive)
REMARK    1  A    between atoms: C_8  and  C_9
REMARK    2  A    between atoms: C_9  and  N_10
REMARK    3  A    between atoms: N_13  and  C_14
REMARK    4  A    between atoms: C_14  and  C_15
REMARK                            x       y       z     vdW  Elec       q    Type
REMARK                         _______ _______ _______ _____ _____    ______ ____
ROOT
ATOM      1  N   UNL     1       5.967   3.719  18.449  0.00  0.00    +0.000 N 
ATOM      2  C   UNL     1       4.990   4.671  18.642  0.00  0.00    +0.000 A 
ATOM      3  N   UNL     1       4.191   4.525  19.694  0.00  0.00    +0.000 NA
ATOM      4  C   UNL     1       3.233   5.449  19.853  0.00  0.00    +0.000 A 
ATOM      5  N   UNL     1       2.447   5.308  21.006  0.00  0.00    +0.000 N 
ATOM      6  C   UNL     1       3.046   6.530  19.003  0.00  0.00    +0.000 A 
ATOM      7  N   UNL     1       2.042   7.430  19.177  0.00  0.00    +0.000 NA
ATOM      8  C   UNL     1       1.979   8.430  18.282  0.00  0.00    +0.000 A 
ATOM      9  N   UNL     1       2.842   8.545  17.260  0.00  0.00    +0.000 NA
ATOM     10  N   UNL     1       3.842   7.603  17.113  0.00  0.00    +0.000 NA
ATOM     11  C   UNL     1       3.968   6.582  17.964  0.00  0.00    +0.000 A 
ATOM     12  N   UNL     1       4.932   5.678  17.783  0.00  0.00    +0.000 NA
ATOM     13  H   UNL     1       6.190   3.252  19.315  0.00  0.00    +0.000 HD
ATOM     14  H   UNL     1       6.735   4.095  17.909  0.00  0.00    +0.000 HD
ATOM     15  H   UNL     1       2.621   4.405  21.433  0.00  0.00    +0.000 HD
ATOM     16  H   UNL     1       1.466   5.508  20.824  0.00  0.00    +0.000 HD
ENDROOT
BRANCH   8  17
ATOM     17  C   UNL     1       0.884   9.462  18.443  0.00  0.00    +0.000 C 
BRANCH  17  18
ATOM     18  N   UNL     1       0.857  10.262  19.676  0.00  0.00    +0.000 NA
ATOM     19  C   UNL     1      -0.268   9.980  20.579  0.00  0.00    +0.000 C 
ATOM     20  C   UNL     1      -0.081  10.714  21.934  0.00  0.00    +0.000 C 
ATOM     21  N   UNL     1       0.173  12.174  21.834  0.00  0.00    +0.000 NA
ATOM     22  C   UNL     1       1.232  12.400  20.822  0.00  0.00    +0.000 C 
ATOM     23  C   UNL     1       0.985  11.707  19.462  0.00  0.00    +0.000 C 
BRANCH  21  24
ATOM     24  C   UNL     1      -1.074  12.894  21.532  0.00  0.00    +0.000 C 
BRANCH  24  25
ATOM     25  C   UNL     1      -1.794  13.440  22.748  0.00  0.00    +0.000 A 
ATOM     26  C   UNL     1      -3.014  12.876  23.153  0.00  0.00    +0.000 A 
ATOM     27  C   UNL     1      -3.670  13.345  24.293  0.00  0.00    +0.000 A 
ATOM     28  C   UNL     1      -3.116  14.383  25.039  0.00  0.00    +0.000 A 
ATOM     29  C   UNL     1      -1.912  14.960  24.640  0.00  0.00    +0.000 A 
ATOM     30  C   UNL     1      -1.255  14.494  23.499  0.00  0.00    +0.000 A 
ENDBRANCH  24  25
ENDBRANCH  21  24
ENDBRANCH  17  18
ENDBRANCH   8  17
TORSDOF 4
ENDMDL
MODEL 9
REMARK VINA RESULT:      -7.1      2.974      9.470
REMARK  Name = 
REMARK  4 active torsions:
REMARK  status: ('A' for Active; 'I' for Inactive)
REMARK    1  A    between atoms: C_8  and  C_9
REMARK    2  A    between atoms: C_9  and  N_10
REMARK    3  A    between atoms: N_13  and  C_14
REMARK    4  A    between atoms: C_14  and  C_15
REMARK                            x       y       z     vdW  Elec       q    Type
REMARK                         _______ _______ _______ _____ _____    ______ ____
ROOT
ATOM      1  N   UNL     1       5.781   3.605  18.553  0.00  0.00    +0.000 N 
ATOM      2  C   UNL     1       4.835   4.593  18.714  0.00  0.00    +0.000 A 
ATOM      3  N   UNL     1       3.992   4.476  19.734  0.00  0.00    +0.000 NA
ATOM      4  C   UNL     1       3.064   5.436  19.860  0.00  0.00    +0.000 A 
ATOM      5  N   UNL     1       2.231   5.323  20.983  0.00  0.00    +0.000 N 
ATOM      6  C   UNL     1       2.951   6.525  19.008  0.00  0.00    +0.000 A 
ATOM      7  N   UNL     1       1.975   7.462  19.148  0.00  0.00    +0.000 NA
ATOM      8  C   UNL     1       1.984   8.466  18.255  0.00  0.00    +0.000 A 
ATOM      9  N   UNL     1       2.888   8.550  17.266  0.00  0.00    +0.000 NA
ATOM     10  N   UNL     1       3.857   7.571  17.153  0.00  0.00    +0.000 NA
ATOM     11  C   UNL     1       3.912   6.544  18.004  0.00  0.00    +0.000 A 
ATOM     12  N   UNL     1       4.847   5.604  17.856  0.00  0.00    +0.000 NA
ATOM     13  H   UNL     1       5.954   3.128  19.425  0.00  0.00    +0.000 HD
ATOM     14  H   UNL     1       6.582   3.953  18.044  0.00  0.00    +0.000 HD
ATOM     15  H   UNL     1       2.355   4.412  21.413  0.00  0.00    +0.000 HD
ATOM     16  H   UNL     1       1.266   5.560  20.765  0.00  0.00    +0.000 HD
ENDROOT
BRANCH   8  17
ATOM     17  C   UNL     1       0.925   9.539  18.379  0.00  0.00    +0.000 C 
BRANCH  17  18
ATOM     18  N   UNL     1       0.929  10.386  19.580  0.00  0.00    +0.000 NA
ATOM     19  C   UNL     1      -0.211  10.191  20.486  0.00  0.00    +0.000 C 
ATOM     20  C   UNL     1       0.003  10.968  21.813  0.00  0.00    +0.000 C 
ATOM     21  N   UNL     1       0.323  12.410  21.658  0.00  0.00    +0.000 NA
ATOM     22  C   UNL     1       1.395  12.548  20.644  0.00  0.00    +0.000 C 
ATOM     23  C   UNL     1       1.122  11.815  19.310  0.00  0.00    +0.000 C 
BRANCH  21  24
ATOM     24  C   UNL     1      -0.889  13.173  21.322  0.00  0.00    +0.000 C 
BRANCH  24  25
ATOM     25  C   UNL     1      -1.870  13.330  22.465  0.00  0.00    +0.000 A 
ATOM     26  C   UNL     1      -1.582  14.209  23.520  0.00  0.00    +0.000 A 
ATOM     27  C   UNL     1      -2.494  14.391  24.563  0.00  0.00    +0.000 A 
ATOM     28  C   UNL     1      -3.701  13.695  24.562  0.00  0.00    +0.000 A 
ATOM     29  C   UNL     1      -3.993  12.810  23.527  0.00  0.00    +0.000 A 
ATOM     30  C   UNL     1      -3.082  12.625  22.484  0.00  0.00    +0.000 A 
ENDBRANCH  24  25
ENDBRANCH  21  24
ENDBRANCH  17  18
ENDBRANCH   8  17
TORSDOF 4
ENDMDL
