MODEL 1
REMARK VINA RESULT:      -7.1      0.000      0.000
REMARK  Name = 
REMARK  9 active torsions:
REMARK  status: ('A' for Active; 'I' for Inactive)
REMARK    1  A    between atoms: C_1  and  C_2
REMARK    2  A    between atoms: C_2  and  C_3
REMARK    3  A    between atoms: C_3  and  C_4
REMARK    4  A    between atoms: C_3  and  C_6
REMARK    5  A    between atoms: C_4  and  C_5
REMARK    6  A    between atoms: C_6  and  N_7
REMARK    7  A    between atoms: C_12  and  C_13
REMARK    8  A    between atoms: C_17  and  O_18
REMARK    9  A    between atoms: C_20  and  O_21
REMARK                            x       y       z     vdW  Elec       q    Type
REMARK                         _______ _______ _______ _____ _____    ______ ____
ROOT
ATOM      1  N   UNL     1       0.902   9.763  19.444  0.00  0.00    +0.000 N 
ATOM      2  C   UNL     1       0.656   9.019  20.574  0.00  0.00    +0.000 C 
ATOM      3  O   UNL     1      -0.218   9.200  21.397  0.00  0.00    +0.000 OA
ATOM      4  S   UNL     1       1.764   7.658  20.637  0.00  0.00    +0.000 S 
ATOM      5  C   UNL     1       2.187   7.838  18.976  0.00  0.00    +0.000 C 
ATOM      6  C   UNL     1       2.871   6.972  18.218  0.00  0.00    +0.000 C 
ATOM      7  C   UNL     1       1.647   9.139  18.468  0.00  0.00    +0.000 C 
ATOM      8  O   UNL     1       1.858   9.562  17.340  0.00  0.00    +0.000 OA
ENDROOT
BRANCH   6   9
ATOM      9  C   UNL     1       3.474   5.719  18.691  0.00  0.00    +0.000 A 
ATOM     10  C   UNL     1       2.694   4.867  19.485  0.00  0.00    +0.000 A 
ATOM     11  C   UNL     1       3.210   3.651  19.935  0.00  0.00    +0.000 A 
ATOM     12 BR   UNL     1       2.132   2.539  21.024  0.00  0.00    +0.000 Br
ATOM     13  C   UNL     1       4.506   3.271  19.586  0.00  0.00    +0.000 A 
ATOM     14  C   UNL     1       5.301   4.108  18.810  0.00  0.00    +0.000 A 
ATOM     15  C   UNL     1       4.787   5.331  18.371  0.00  0.00    +0.000 A 
BRANCH  13  16
ATOM     16  O   UNL     1       5.052   2.083  19.985  0.00  0.00    +0.000 OA
ATOM     17  H   UNL     1       5.880   1.958  19.485  0.00  0.00    +0.000 HD
ENDBRANCH  13  16
BRANCH  15  18
ATOM     18  O   UNL     1       5.573   6.166  17.625  0.00  0.00    +0.000 OA
ATOM     19  H   UNL     1       5.238   7.074  17.715  0.00  0.00    +0.000 HD
ENDBRANCH  15  18
ENDBRANCH   6   9
BRANCH   1  20
ATOM     20  C   UNL     1       0.260  11.063  19.238  0.00  0.00    +0.000 C 
BRANCH  20  21
ATOM     21  C   UNL     1      -1.273  10.953  18.985  0.00  0.00    +0.000 C 
BRANCH  21  23
ATOM     22  C   UNL     1      -2.718  12.609  20.371  0.00  0.00    +0.000 C 
ATOM     23  C   UNL     1      -1.933  12.347  19.093  0.00  0.00    +0.000 C 
ENDBRANCH  21  23
BRANCH  21  24
ATOM     24  C   UNL     1      -1.599  10.217  17.658  0.00  0.00    +0.000 C 
ATOM     25  C   UNL     1      -3.073  10.037  17.315  0.00  0.00    +0.000 C 
ENDBRANCH  21  24
ENDBRANCH  20  21
ENDBRANCH   1  20
TORSDOF 7
ENDMDL
MODEL 2
REMARK VINA RESULT:      -7.0      2.210      3.104
REMARK  Name = 
REMARK  9 active torsions:
REMARK  status: ('A' for Active; 'I' for Inactive)
REMARK    1  A    between atoms: C_1  and  C_2
REMARK    2  A    between atoms: C_2  and  C_3
REMARK    3  A    between atoms: C_3  and  C_4
REMARK    4  A    between atoms: C_3  and  C_6
REMARK    5  A    between atoms: C_4  and  C_5
REMARK    6  A    between atoms: C_6  and  N_7
REMARK    7  A    between atoms: C_12  and  C_13
REMARK    8  A    between atoms: C_17  and  O_18
REMARK    9  A    between atoms: C_20  and  O_21
REMARK                            x       y       z     vdW  Elec       q    Type
REMARK                         _______ _______ _______ _____ _____    ______ ____
ROOT
ATOM      1  N   UNL     1       1.150   9.727  19.637  0.00  0.00    +0.000 N 
ATOM      2  C   UNL     1       1.858  10.015  18.494  0.00  0.00    +0.000 C 
ATOM      3  O   UNL     1       2.094  11.114  18.033  0.00  0.00    +0.000 OA
ATOM      4  S   UNL     1       2.480   8.530  17.795  0.00  0.00    +0.000 S 
ATOM      5  C   UNL     1       2.199   7.647  19.249  0.00  0.00    +0.000 C 
ATOM      6  C   UNL     1       2.647   6.423  19.551  0.00  0.00    +0.000 C 
ATOM      7  C   UNL     1       1.369   8.480  20.177  0.00  0.00    +0.000 C 
ATOM      8  O   UNL     1       0.956   8.077  21.255  0.00  0.00    +0.000 OA
ENDROOT
BRANCH   6   9
ATOM      9  C   UNL     1       3.406   5.548  18.647  0.00  0.00    +0.000 A 
ATOM     10  C   UNL     1       4.805   5.631  18.666  0.00  0.00    +0.000 A 
ATOM     11  C   UNL     1       5.573   4.801  17.849  0.00  0.00    +0.000 A 
ATOM     12 BR   UNL     1       7.460   4.959  17.888  0.00  0.00    +0.000 Br
ATOM     13  C   UNL     1       4.951   3.873  17.014  0.00  0.00    +0.000 A 
ATOM     14  C   UNL     1       3.563   3.784  16.971  0.00  0.00    +0.000 A 
ATOM     15  C   UNL     1       2.796   4.625  17.780  0.00  0.00    +0.000 A 
BRANCH  13  16
ATOM     16  O   UNL     1       5.657   3.024  16.208  0.00  0.00    +0.000 OA
ATOM     17  H   UNL     1       6.380   3.538  15.803  0.00  0.00    +0.000 HD
ENDBRANCH  13  16
BRANCH  15  18
ATOM     18  O   UNL     1       1.430   4.555  17.725  0.00  0.00    +0.000 OA
ATOM     19  H   UNL     1       1.135   4.886  16.860  0.00  0.00    +0.000 HD
ENDBRANCH  15  18
ENDBRANCH   6   9
BRANCH   1  20
ATOM     20  C   UNL     1       0.355  10.754  20.315  0.00  0.00    +0.000 C 
BRANCH  20  21
ATOM     21  C   UNL     1      -0.873  11.225  19.481  0.00  0.00    +0.000 C 
BRANCH  21  23
ATOM     22  C   UNL     1      -1.705  10.097  17.293  0.00  0.00    +0.000 C 
ATOM     23  C   UNL     1      -1.556  10.013  18.806  0.00  0.00    +0.000 C 
ENDBRANCH  21  23
BRANCH  21  24
ATOM     24  C   UNL     1      -1.848  12.100  20.313  0.00  0.00    +0.000 C 
ATOM     25  C   UNL     1      -3.198  12.417  19.681  0.00  0.00    +0.000 C 
ENDBRANCH  21  24
ENDBRANCH  20  21
ENDBRANCH   1  20
TORSDOF 7
ENDMDL
MODEL 3
REMARK VINA RESULT:      -6.9      1.100      1.779
REMARK  Name = 
REMARK  9 active torsions:
REMARK  status: ('A' for Active; 'I' for Inactive)
REMARK    1  A    between atoms: C_1  and  C_2
REMARK    2  A    between atoms: C_2  and  C_3
REMARK    3  A    between atoms: C_3  and  C_4
REMARK    4  A    between atoms: C_3  and  C_6
REMARK    5  A    between atoms: C_4  and  C_5
REMARK    6  A    between atoms: C_6  and  N_7
REMARK    7  A    between atoms: C_12  and  C_13
REMARK    8  A    between atoms: C_17  and  O_18
REMARK    9  A    between atoms: C_20  and  O_21
REMARK                            x       y       z     vdW  Elec       q    Type
REMARK                         _______ _______ _______ _____ _____    ______ ____
ROOT
ATOM      1  N   UNL     1       1.165   9.972  19.635  0.00  0.00    +0.000 N 
ATOM      2  C   UNL     1       0.836   9.081  20.629  0.00  0.00    +0.000 C 
ATOM      3  O   UNL     1       0.018   9.237  21.514  0.00  0.00    +0.000 OA
ATOM      4  S   UNL     1       1.726   7.586  20.400  0.00  0.00    +0.000 S 
ATOM      5  C   UNL     1       2.134   7.997  18.776  0.00  0.00    +0.000 C 
ATOM      6  C   UNL     1       2.661   7.192  17.847  0.00  0.00    +0.000 C 
ATOM      7  C   UNL     1       1.785   9.433  18.531  0.00  0.00    +0.000 C 
ATOM      8  O   UNL     1       2.032  10.016  17.484  0.00  0.00    +0.000 OA
ENDROOT
BRANCH   6   9
ATOM      9  C   UNL     1       3.079   5.801  18.065  0.00  0.00    +0.000 A 
ATOM     10  C   UNL     1       2.086   4.840  18.300  0.00  0.00    +0.000 A 
ATOM     11  C   UNL     1       2.428   3.500  18.482  0.00  0.00    +0.000 A 
ATOM     12 BR   UNL     1       1.059   2.236  18.819  0.00  0.00    +0.000 Br
ATOM     13  C   UNL     1       3.765   3.106  18.421  0.00  0.00    +0.000 A 
ATOM     14  C   UNL     1       4.767   4.046  18.202  0.00  0.00    +0.000 A 
ATOM     15  C   UNL     1       4.423   5.389  18.032  0.00  0.00    +0.000 A 
BRANCH  13  16
ATOM     16  O   UNL     1       4.152   1.803  18.574  0.00  0.00    +0.000 OA
ATOM     17  H   UNL     1       4.333   1.661  19.522  0.00  0.00    +0.000 HD
ENDBRANCH  13  16
BRANCH  15  18
ATOM     18  O   UNL     1       5.408   6.320  17.837  0.00  0.00    +0.000 OA
ATOM     19  H   UNL     1       6.017   5.992  17.155  0.00  0.00    +0.000 HD
ENDBRANCH  15  18
ENDBRANCH   6   9
BRANCH   1  20
ATOM     20  C   UNL     1       0.722  11.368  19.691  0.00  0.00    +0.000 C 
BRANCH  20  21
ATOM     21  C   UNL     1      -0.328  11.718  18.595  0.00  0.00    +0.000 C 
BRANCH  21  23
ATOM     22  C   UNL     1      -2.165  10.088  17.746  0.00  0.00    +0.000 C 
ATOM     23  C   UNL     1      -1.656  10.978  18.873  0.00  0.00    +0.000 C 
ENDBRANCH  21  23
BRANCH  21  24
ATOM     24  C   UNL     1      -0.500  13.251  18.415  0.00  0.00    +0.000 C 
ATOM     25  C   UNL     1      -0.917  14.045  19.648  0.00  0.00    +0.000 C 
ENDBRANCH  21  24
ENDBRANCH  20  21
ENDBRANCH   1  20
TORSDOF 7
ENDMDL
MODEL 4
REMARK VINA RESULT:      -6.9      1.049      1.104
REMARK  Name = 
REMARK  9 active torsions:
REMARK  status: ('A' for Active; 'I' for Inactive)
REMARK    1  A    between atoms: C_1  and  C_2
REMARK    2  A    between atoms: C_2  and  C_3
REMARK    3  A    between atoms: C_3  and  C_4
REMARK    4  A    between atoms: C_3  and  C_6
REMARK    5  A    between atoms: C_4  and  C_5
REMARK    6  A    between atoms: C_6  and  N_7
REMARK    7  A    between atoms: C_12  and  C_13
REMARK    8  A    between atoms: C_17  and  O_18
REMARK    9  A    between atoms: C_20  and  O_21
REMARK                            x       y       z     vdW  Elec       q    Type
REMARK                         _______ _______ _______ _____ _____    ______ ____
ROOT
ATOM      1  N   UNL     1       1.031   9.985  19.654  0.00  0.00    +0.000 N 
ATOM      2  C   UNL     1       0.773   9.088  20.664  0.00  0.00    +0.000 C 
ATOM      3  O   UNL     1      -0.021   9.216  21.574  0.00  0.00    +0.000 OA
ATOM      4  S   UNL     1       1.717   7.629  20.415  0.00  0.00    +0.000 S 
ATOM      5  C   UNL     1       2.053   8.046  18.775  0.00  0.00    +0.000 C 
ATOM      6  C   UNL     1       2.583   7.256  17.834  0.00  0.00    +0.000 C 
ATOM      7  C   UNL     1       1.636   9.463  18.533  0.00  0.00    +0.000 C 
ATOM      8  O   UNL     1       1.824  10.049  17.475  0.00  0.00    +0.000 OA
ENDROOT
BRANCH   6   9
ATOM      9  C   UNL     1       3.066   5.885  18.046  0.00  0.00    +0.000 A 
ATOM     10  C   UNL     1       2.121   4.883  18.306  0.00  0.00    +0.000 A 
ATOM     11  C   UNL     1       2.525   3.560  18.484  0.00  0.00    +0.000 A 
ATOM     12 BR   UNL     1       1.220   2.239  18.857  0.00  0.00    +0.000 Br
ATOM     13  C   UNL     1       3.876   3.224  18.394  0.00  0.00    +0.000 A 
ATOM     14  C   UNL     1       4.831   4.206  18.149  0.00  0.00    +0.000 A 
ATOM     15  C   UNL     1       4.425   5.532  17.983  0.00  0.00    +0.000 A 
BRANCH  13  16
ATOM     16  O   UNL     1       4.322   1.940  18.542  0.00  0.00    +0.000 OA
ATOM     17  H   UNL     1       3.543   1.354  18.514  0.00  0.00    +0.000 HD
ENDBRANCH  13  16
BRANCH  15  18
ATOM     18  O   UNL     1       5.363   6.504  17.763  0.00  0.00    +0.000 OA
ATOM     19  H   UNL     1       5.535   6.563  16.809  0.00  0.00    +0.000 HD
ENDBRANCH  15  18
ENDBRANCH   6   9
BRANCH   1  20
ATOM     20  C   UNL     1       0.533  11.361  19.716  0.00  0.00    +0.000 C 
BRANCH  20  21
ATOM     21  C   UNL     1      -1.012  11.459  19.537  0.00  0.00    +0.000 C 
BRANCH  21  23
ATOM     22  C   UNL     1      -0.987  14.028  19.924  0.00  0.00    +0.000 C 
ATOM     23  C   UNL     1      -1.563  12.674  20.316  0.00  0.00    +0.000 C 
ENDBRANCH  21  23
BRANCH  21  24
ATOM     24  C   UNL     1      -1.432  11.441  18.042  0.00  0.00    +0.000 C 
ATOM     25  C   UNL     1      -2.008  10.136  17.505  0.00  0.00    +0.000 C 
ENDBRANCH  21  24
ENDBRANCH  20  21
ENDBRANCH   1  20
TORSDOF 7
ENDMDL
MODEL 5
REMARK VINA RESULT:      -6.9      2.184      2.778
REMARK  Name = 
REMARK  9 active torsions:
REMARK  status: ('A' for Active; 'I' for Inactive)
REMARK    1  A    between atoms: C_1  and  C_2
REMARK    2  A    between atoms: C_2  and  C_3
REMARK    3  A    between atoms: C_3  and  C_4
REMARK    4  A    between atoms: C_3  and  C_6
REMARK    5  A    between atoms: C_4  and  C_5
REMARK    6  A    between atoms: C_6  and  N_7
REMARK    7  A    between atoms: C_12  and  C_13
REMARK    8  A    between atoms: C_17  and  O_18
REMARK    9  A    between atoms: C_20  and  O_21
REMARK                            x       y       z     vdW  Elec       q    Type
REMARK                         _______ _______ _______ _____ _____    ______ ____
ROOT
ATOM      1  N   UNL     1       1.026   9.759  19.621  0.00  0.00    +0.000 N 
ATOM      2  C   UNL     1       1.769  10.061  18.504  0.00  0.00    +0.000 C 
ATOM      3  O   UNL     1       2.003  11.165  18.054  0.00  0.00    +0.000 OA
ATOM      4  S   UNL     1       2.439   8.587  17.824  0.00  0.00    +0.000 S 
ATOM      5  C   UNL     1       2.122   7.697  19.266  0.00  0.00    +0.000 C 
ATOM      6  C   UNL     1       2.579   6.479  19.581  0.00  0.00    +0.000 C 
ATOM      7  C   UNL     1       1.246   8.514  20.166  0.00  0.00    +0.000 C 
ATOM      8  O   UNL     1       0.802   8.102  21.228  0.00  0.00    +0.000 OA
ENDROOT
BRANCH   6   9
ATOM      9  C   UNL     1       3.383   5.620  18.702  0.00  0.00    +0.000 A 
ATOM     10  C   UNL     1       4.779   5.735  18.760  0.00  0.00    +0.000 A 
ATOM     11  C   UNL     1       5.588   4.919  17.969  0.00  0.00    +0.000 A 
ATOM     12 BR   UNL     1       7.469   5.121  18.060  0.00  0.00    +0.000 Br
ATOM     13  C   UNL     1       5.011   3.975  17.120  0.00  0.00    +0.000 A 
ATOM     14  C   UNL     1       3.628   3.853  17.039  0.00  0.00    +0.000 A 
ATOM     15  C   UNL     1       2.819   4.679  17.822  0.00  0.00    +0.000 A 
BRANCH  13  16
ATOM     16  O   UNL     1       5.760   3.139  16.338  0.00  0.00    +0.000 OA
ATOM     17  H   UNL     1       6.698   3.322  16.529  0.00  0.00    +0.000 HD
ENDBRANCH  13  16
BRANCH  15  18
ATOM     18  O   UNL     1       1.457   4.578  17.729  0.00  0.00    +0.000 OA
ATOM     19  H   UNL     1       1.199   4.678  16.798  0.00  0.00    +0.000 HD
ENDBRANCH  15  18
ENDBRANCH   6   9
BRANCH   1  20
ATOM     20  C   UNL     1       0.191  10.771  20.273  0.00  0.00    +0.000 C 
BRANCH  20  21
ATOM     21  C   UNL     1      -1.150  11.029  19.525  0.00  0.00    +0.000 C 
BRANCH  21  23
ATOM     22  C   UNL     1      -1.469  13.466  20.368  0.00  0.00    +0.000 C 
ATOM     23  C   UNL     1      -1.288  12.530  19.181  0.00  0.00    +0.000 C 
ENDBRANCH  21  23
BRANCH  21  24
ATOM     24  C   UNL     1      -1.328  10.094  18.298  0.00  0.00    +0.000 C 
ATOM     25  C   UNL     1      -2.744   9.926  17.761  0.00  0.00    +0.000 C 
ENDBRANCH  21  24
ENDBRANCH  20  21
ENDBRANCH   1  20
TORSDOF 7
ENDMDL
MODEL 6
REMARK VINA RESULT:      -6.8      1.231      2.126
REMARK  Name = 
REMARK  9 active torsions:
REMARK  status: ('A' for Active; 'I' for Inactive)
REMARK    1  A    between atoms: C_1  and  C_2
REMARK    2  A    between atoms: C_2  and  C_3
REMARK    3  A    between atoms: C_3  and  C_4
REMARK    4  A    between atoms: C_3  and  C_6
REMARK    5  A    between atoms: C_4  and  C_5
REMARK    6  A    between atoms: C_6  and  N_7
REMARK    7  A    between atoms: C_12  and  C_13
REMARK    8  A    between atoms: C_17  and  O_18
REMARK    9  A    between atoms: C_20  and  O_21
REMARK                            x       y       z     vdW  Elec       q    Type
REMARK                         _______ _______ _______ _____ _____    ______ ____
ROOT
ATOM      1  N   UNL     1       0.904   9.916  19.453  0.00  0.00    +0.000 N 
ATOM      2  C   UNL     1       0.614   9.135  20.548  0.00  0.00    +0.000 C 
ATOM      3  O   UNL     1      -0.279   9.302  21.354  0.00  0.00    +0.000 OA
ATOM      4  S   UNL     1       1.695   7.752  20.589  0.00  0.00    +0.000 S 
ATOM      5  C   UNL     1       2.166   7.985  18.947  0.00  0.00    +0.000 C 
ATOM      6  C   UNL     1       2.854   7.135  18.175  0.00  0.00    +0.000 C 
ATOM      7  C   UNL     1       1.664   9.314  18.475  0.00  0.00    +0.000 C 
ATOM      8  O   UNL     1       1.913   9.775  17.370  0.00  0.00    +0.000 OA
ENDROOT
BRANCH   6   9
ATOM      9  C   UNL     1       3.421   5.854  18.617  0.00  0.00    +0.000 A 
ATOM     10  C   UNL     1       2.569   4.932  19.240  0.00  0.00    +0.000 A 
ATOM     11  C   UNL     1       3.052   3.689  19.650  0.00  0.00    +0.000 A 
ATOM     12 BR   UNL     1       1.874   2.481  20.510  0.00  0.00    +0.000 Br
ATOM     13  C   UNL     1       4.388   3.352  19.432  0.00  0.00    +0.000 A 
ATOM     14  C   UNL     1       5.253   4.257  18.826  0.00  0.00    +0.000 A 
ATOM     15  C   UNL     1       4.771   5.506  18.428  0.00  0.00    +0.000 A 
BRANCH  13  16
ATOM     16  O   UNL     1       4.906   2.140  19.798  0.00  0.00    +0.000 OA
ATOM     17  H   UNL     1       4.375   1.450  19.359  0.00  0.00    +0.000 HD
ENDBRANCH  13  16
BRANCH  15  18
ATOM     18  O   UNL     1       5.623   6.408  17.851  0.00  0.00    +0.000 OA
ATOM     19  H   UNL     1       6.482   6.360  18.303  0.00  0.00    +0.000 HD
ENDBRANCH  15  18
ENDBRANCH   6   9
BRANCH   1  20
ATOM     20  C   UNL     1       0.292  11.235  19.280  0.00  0.00    +0.000 C 
BRANCH  20  21
ATOM     21  C   UNL     1       1.016  12.354  20.085  0.00  0.00    +0.000 C 
BRANCH  21  23
ATOM     22  C   UNL     1       2.606  13.139  18.187  0.00  0.00    +0.000 C 
ATOM     23  C   UNL     1       1.468  13.487  19.136  0.00  0.00    +0.000 C 
ENDBRANCH  21  23
BRANCH  21  24
ATOM     24  C   UNL     1       0.169  12.855  21.286  0.00  0.00    +0.000 C 
ATOM     25  C   UNL     1      -1.344  12.717  21.166  0.00  0.00    +0.000 C 
ENDBRANCH  21  24
ENDBRANCH  20  21
ENDBRANCH   1  20
TORSDOF 7
ENDMDL
MODEL 7
REMARK VINA RESULT:      -6.8      1.381      1.648
REMARK  Name = 
REMARK  9 active torsions:
REMARK  status: ('A' for Active; 'I' for Inactive)
REMARK    1  A    between atoms: C_1  and  C_2
REMARK    2  A    between atoms: C_2  and  C_3
REMARK    3  A    between atoms: C_3  and  C_4
REMARK    4  A    between atoms: C_3  and  C_6
REMARK    5  A    between atoms: C_4  and  C_5
REMARK    6  A    between atoms: C_6  and  N_7
REMARK    7  A    between atoms: C_12  and  C_13
REMARK    8  A    between atoms: C_17  and  O_18
REMARK    9  A    between atoms: C_20  and  O_21
REMARK                            x       y       z     vdW  Elec       q    Type
REMARK                         _______ _______ _______ _____ _____    ______ ____
ROOT
ATOM      1  N   UNL     1       1.083   9.817  20.006  0.00  0.00    +0.000 N 
ATOM      2  C   UNL     1       0.937   8.874  20.995  0.00  0.00    +0.000 C 
ATOM      3  O   UNL     1       0.262   8.963  22.001  0.00  0.00    +0.000 OA
ATOM      4  S   UNL     1       1.822   7.420  20.562  0.00  0.00    +0.000 S 
ATOM      5  C   UNL     1       1.961   7.914  18.916  0.00  0.00    +0.000 C 
ATOM      6  C   UNL     1       2.360   7.167  17.879  0.00  0.00    +0.000 C 
ATOM      7  C   UNL     1       1.539   9.346  18.795  0.00  0.00    +0.000 C 
ATOM      8  O   UNL     1       1.605   9.981  17.751  0.00  0.00    +0.000 OA
ENDROOT
BRANCH   6   9
ATOM      9  C   UNL     1       2.845   5.783  17.965  0.00  0.00    +0.000 A 
ATOM     10  C   UNL     1       1.936   4.786  18.343  0.00  0.00    +0.000 A 
ATOM     11  C   UNL     1       2.339   3.452  18.410  0.00  0.00    +0.000 A 
ATOM     12 BR   UNL     1       1.086   2.136  18.947  0.00  0.00    +0.000 Br
ATOM     13  C   UNL     1       3.650   3.101  18.088  0.00  0.00    +0.000 A 
ATOM     14  C   UNL     1       4.571   4.078  17.723  0.00  0.00    +0.000 A 
ATOM     15  C   UNL     1       4.169   5.414  17.669  0.00  0.00    +0.000 A 
BRANCH  13  16
ATOM     16  O   UNL     1       4.090   1.807  18.119  0.00  0.00    +0.000 OA
ATOM     17  H   UNL     1       3.681   1.340  17.367  0.00  0.00    +0.000 HD
ENDBRANCH  13  16
BRANCH  15  18
ATOM     18  O   UNL     1       5.077   6.381  17.330  0.00  0.00    +0.000 OA
ATOM     19  H   UNL     1       4.913   7.168  17.875  0.00  0.00    +0.000 HD
ENDBRANCH  15  18
ENDBRANCH   6   9
BRANCH   1  20
ATOM     20  C   UNL     1       0.617  11.192  20.194  0.00  0.00    +0.000 C 
BRANCH  20  21
ATOM     21  C   UNL     1      -0.891  11.378  19.847  0.00  0.00    +0.000 C 
BRANCH  21  23
ATOM     22  C   UNL     1      -0.784  12.332  22.261  0.00  0.00    +0.000 C 
ATOM     23  C   UNL     1      -1.636  12.026  21.037  0.00  0.00    +0.000 C 
ENDBRANCH  21  23
BRANCH  21  24
ATOM     24  C   UNL     1      -1.097  12.130  18.505  0.00  0.00    +0.000 C 
ATOM     25  C   UNL     1      -0.212  13.346  18.255  0.00  0.00    +0.000 C 
ENDBRANCH  21  24
ENDBRANCH  20  21
ENDBRANCH   1  20
TORSDOF 7
ENDMDL
MODEL 8
REMARK VINA RESULT:      -6.8      4.890      6.942
REMARK  Name = 
REMARK  9 active torsions:
REMARK  status: ('A' for Active; 'I' for Inactive)
REMARK    1  A    between atoms: C_1  and  C_2
REMARK    2  A    between atoms: C_2  and  C_3
REMARK    3  A    between atoms: C_3  and  C_4
REMARK    4  A    between atoms: C_3  and  C_6
REMARK    5  A    between atoms: C_4  and  C_5
REMARK    6  A    between atoms: C_6  and  N_7
REMARK    7  A    between atoms: C_12  and  C_13
REMARK    8  A    between atoms: C_17  and  O_18
REMARK    9  A    between atoms: C_20  and  O_21
REMARK                            x       y       z     vdW  Elec       q    Type
REMARK                         _______ _______ _______ _____ _____    ______ ____
ROOT
ATOM      1  N   UNL     1       3.360   5.072  19.202  0.00  0.00    +0.000 N 
ATOM      2  C   UNL     1       3.310   6.232  18.466  0.00  0.00    +0.000 C 
ATOM      3  O   UNL     1       2.901   7.316  18.831  0.00  0.00    +0.000 OA
ATOM      4  S   UNL     1       4.024   5.961  16.885  0.00  0.00    +0.000 S 
ATOM      5  C   UNL     1       4.776   4.497  17.402  0.00  0.00    +0.000 C 
ATOM      6  C   UNL     1       5.714   3.798  16.752  0.00  0.00    +0.000 C 
ATOM      7  C   UNL     1       4.229   4.109  18.740  0.00  0.00    +0.000 C 
ATOM      8  O   UNL     1       4.530   3.072  19.316  0.00  0.00    +0.000 OA
ENDROOT
BRANCH   6   9
ATOM      9  C   UNL     1       6.229   4.107  15.411  0.00  0.00    +0.000 A 
ATOM     10  C   UNL     1       5.726   3.377  14.325  0.00  0.00    +0.000 A 
ATOM     11  C   UNL     1       6.159   3.652  13.028  0.00  0.00    +0.000 A 
ATOM     12 BR   UNL     1       5.472   2.629  11.590  0.00  0.00    +0.000 Br
ATOM     13  C   UNL     1       7.091   4.666  12.803  0.00  0.00    +0.000 A 
ATOM     14  C   UNL     1       7.612   5.393  13.868  0.00  0.00    +0.000 A 
ATOM     15  C   UNL     1       7.187   5.107  15.167  0.00  0.00    +0.000 A 
BRANCH  13  16
ATOM     16  O   UNL     1       7.534   4.987  11.550  0.00  0.00    +0.000 OA
ATOM     17  H   UNL     1       8.227   4.345  11.310  0.00  0.00    +0.000 HD
ENDBRANCH  13  16
BRANCH  15  18
ATOM     18  O   UNL     1       7.712   5.806  16.220  0.00  0.00    +0.000 OA
ATOM     19  H   UNL     1       8.289   5.214  16.731  0.00  0.00    +0.000 HD
ENDBRANCH  15  18
ENDBRANCH   6   9
BRANCH   1  20
ATOM     20  C   UNL     1       2.659   4.955  20.483  0.00  0.00    +0.000 C 
BRANCH  20  21
ATOM     21  C   UNL     1       1.288   4.225  20.363  0.00  0.00    +0.000 C 
BRANCH  21  23
ATOM     22  C   UNL     1       0.940   2.358  18.591  0.00  0.00    +0.000 C 
ATOM     23  C   UNL     1       1.010   3.850  18.890  0.00  0.00    +0.000 C 
ENDBRANCH  21  23
BRANCH  21  24
ATOM     24  C   UNL     1       1.175   3.023  21.340  0.00  0.00    +0.000 C 
ATOM     25  C   UNL     1       2.481   2.455  21.883  0.00  0.00    +0.000 C 
ENDBRANCH  21  24
ENDBRANCH  20  21
ENDBRANCH   1  20
TORSDOF 7
ENDMDL
MODEL 9
REMARK VINA RESULT:      -6.8      2.040      2.957
REMARK  Name = 
REMARK  9 active torsions:
REMARK  status: ('A' for Active; 'I' for Inactive)
REMARK    1  A    between atoms: C_1  and  C_2
REMARK    2  A    between atoms: C_2  and  C_3
REMARK    3  A    between atoms: C_3  and  C_4
REMARK    4  A    between atoms: C_3  and  C_6
REMARK    5  A    between atoms: C_4  and  C_5
REMARK    6  A    between atoms: C_6  and  N_7
REMARK    7  A    between atoms: C_12  and  C_13
REMARK    8  A    between atoms: C_17  and  O_18
REMARK    9  A    between atoms: C_20  and  O_21
REMARK                            x       y       z     vdW  Elec       q    Type
REMARK                         _______ _______ _______ _____ _____    ______ ____
ROOT
ATOM      1  N   UNL     1       1.302   9.456  19.650  0.00  0.00    +0.000 N 
ATOM      2  C   UNL     1       1.816   9.250  18.391  0.00  0.00    +0.000 C 
ATOM      3  O   UNL     1       2.122  10.095  17.575  0.00  0.00    +0.000 OA
ATOM      4  S   UNL     1       2.066   7.531  18.130  0.00  0.00    +0.000 S 
ATOM      5  C   UNL     1       1.937   7.187  19.815  0.00  0.00    +0.000 C 
ATOM      6  C   UNL     1       2.247   6.040  20.431  0.00  0.00    +0.000 C 
ATOM      7  C   UNL     1       1.430   8.403  20.528  0.00  0.00    +0.000 C 
ATOM      8  O   UNL     1       1.173   8.424  21.723  0.00  0.00    +0.000 OA
ENDROOT
BRANCH   6   9
ATOM      9  C   UNL     1       2.682   4.807  19.763  0.00  0.00    +0.000 A 
ATOM     10  C   UNL     1       3.567   4.916  18.682  0.00  0.00    +0.000 A 
ATOM     11  C   UNL     1       4.035   3.773  18.033  0.00  0.00    +0.000 A 
ATOM     12 BR   UNL     1       5.212   3.964  16.562  0.00  0.00    +0.000 Br
ATOM     13  C   UNL     1       3.631   2.510  18.466  0.00  0.00    +0.000 A 
ATOM     14  C   UNL     1       2.743   2.380  19.529  0.00  0.00    +0.000 A 
ATOM     15  C   UNL     1       2.266   3.526  20.169  0.00  0.00    +0.000 A 
BRANCH  13  16
ATOM     16  O   UNL     1       4.074   1.358  17.876  0.00  0.00    +0.000 OA
ATOM     17  H   UNL     1       3.536   1.212  17.077  0.00  0.00    +0.000 HD
ENDBRANCH  13  16
BRANCH  15  18
ATOM     18  O   UNL     1       1.376   3.404  21.201  0.00  0.00    +0.000 OA
ATOM     19  H   UNL     1       0.656   2.813  20.925  0.00  0.00    +0.000 HD
ENDBRANCH  15  18
ENDBRANCH   6   9
BRANCH   1  20
ATOM     20  C   UNL     1       0.811  10.773  20.062  0.00  0.00    +0.000 C 
BRANCH  20  21
ATOM     21  C   UNL     1      -0.742  10.843  20.160  0.00  0.00    +0.000 C 
BRANCH  21  23
ATOM     22  C   UNL     1      -0.929  11.045  22.743  0.00  0.00    +0.000 C 
ATOM     23  C   UNL     1      -1.162  11.689  21.383  0.00  0.00    +0.000 C 
ENDBRANCH  21  23
BRANCH  21  24
ATOM     24  C   UNL     1      -1.393  11.311  18.830  0.00  0.00    +0.000 C 
ATOM     25  C   UNL     1      -1.730  10.229  17.811  0.00  0.00    +0.000 C 
ENDBRANCH  21  24
ENDBRANCH  20  21
ENDBRANCH   1  20
TORSDOF 7
ENDMDL
