MODEL 1
REMARK VINA RESULT:      -9.1      0.000      0.000
REMARK  Name = 
REMARK  5 active torsions:
REMARK  status: ('A' for Active; 'I' for Inactive)
REMARK    1  A    between atoms: C_2  and  O_3
REMARK    2  A    between atoms: C_2  and  C_4
REMARK    3  A    between atoms: C_10  and  C_11
REMARK    4  A    between atoms: C_17  and  C_18
REMARK    5  A    between atoms: C_23  and  O_24
REMARK                            x       y       z     vdW  Elec       q    Type
REMARK                         _______ _______ _______ _____ _____    ______ ____
ROOT
ATOM      1  C   UNL     1       2.402   5.379  20.198  0.00  0.00    +0.000 A 
ATOM      2  C   UNL     1       1.989   4.480  21.196  0.00  0.00    +0.000 A 
ATOM      3  C   UNL     1       2.425   3.146  21.194  0.00  0.00    +0.000 A 
ATOM      4  C   UNL     1       3.287   2.657  20.203  0.00  0.00    +0.000 A 
ATOM      5  C   UNL     1       3.674   3.577  19.237  0.00  0.00    +0.000 A 
ATOM      6  O   UNL     1       4.499   3.365  18.172  0.00  0.00    +0.000 OA
ATOM      7  C   UNL     1       4.563   4.584  17.535  0.00  0.00    +0.000 A 
ATOM      8  N   UNL     1       3.839   5.526  18.116  0.00  0.00    +0.000 NA
ATOM      9  C   UNL     1       3.271   4.899  19.201  0.00  0.00    +0.000 A 
ENDROOT
BRANCH   1  16
ATOM     10  C   UNL     1       0.366   9.780  21.094  0.00  0.00    +0.000 A 
ATOM     11  C   UNL     1       0.250  10.953  20.326  0.00  0.00    +0.000 A 
ATOM     12  C   UNL     1       0.820  11.036  19.052  0.00  0.00    +0.000 A 
ATOM     13  C   UNL     1       1.515   9.957  18.495  0.00  0.00    +0.000 A 
ATOM     14  C   UNL     1       1.604   8.801  19.272  0.00  0.00    +0.000 A 
ATOM     15  N   UNL     1       2.176   7.579  19.043  0.00  0.00    +0.000 N 
ATOM     16  C   UNL     1       1.959   6.768  20.140  0.00  0.00    +0.000 A 
ATOM     17  N   UNL     1       1.296   7.432  21.074  0.00  0.00    +0.000 NA
ATOM     18  C   UNL     1       1.056   8.688  20.543  0.00  0.00    +0.000 A 
ATOM     19  H   UNL     1       2.661   7.279  18.204  0.00  0.00    +0.000 HD
BRANCH  10  21
ATOM     20  O   UNL     1      -0.173  10.643  23.233  0.00  0.00    +0.000 OA
ATOM     21  C   UNL     1      -0.238   9.714  22.442  0.00  0.00    +0.000 C 
BRANCH  21  22
ATOM     22  O   UNL     1      -0.860   8.550  22.733  0.00  0.00    +0.000 OA
ATOM     23  H   UNL     1      -1.584   8.646  23.397  0.00  0.00    +0.000 HD
ENDBRANCH  21  22
ENDBRANCH  10  21
ENDBRANCH   1  16
BRANCH   7  24
ATOM     24  C   UNL     1       5.422   4.658  16.350  0.00  0.00    +0.000 A 
ATOM     25  C   UNL     1       5.061   3.983  15.168  0.00  0.00    +0.000 A 
ATOM     26  C   UNL     1       5.881   4.012  14.036  0.00  0.00    +0.000 A 
ATOM     27  C   UNL     1       7.078   4.721  14.064  0.00  0.00    +0.000 A 
ATOM     28  C   UNL     1       7.452   5.407  15.216  0.00  0.00    +0.000 A 
ATOM     29  C   UNL     1       6.631   5.376  16.349  0.00  0.00    +0.000 A 
BRANCH  29  30
ATOM     30  O   UNL     1       7.036   6.059  17.466  0.00  0.00    +0.000 OA
ATOM     31  H   UNL     1       6.294   6.587  17.804  0.00  0.00    +0.000 HD
ENDBRANCH  29  30
ENDBRANCH   7  24
TORSDOF 5
ENDMDL
MODEL 2
REMARK VINA RESULT:      -8.9      0.959      1.102
REMARK  Name = 
REMARK  5 active torsions:
REMARK  status: ('A' for Active; 'I' for Inactive)
REMARK    1  A    between atoms: C_2  and  O_3
REMARK    2  A    between atoms: C_2  and  C_4
REMARK    3  A    between atoms: C_10  and  C_11
REMARK    4  A    between atoms: C_17  and  C_18
REMARK    5  A    between atoms: C_23  and  O_24
REMARK                            x       y       z     vdW  Elec       q    Type
REMARK                         _______ _______ _______ _____ _____    ______ ____
ROOT
ATOM      1  C   UNL     1       2.955   4.963  19.339  0.00  0.00    +0.000 A 
ATOM      2  C   UNL     1       2.635   4.032  20.341  0.00  0.00    +0.000 A 
ATOM      3  C   UNL     1       3.078   2.703  20.266  0.00  0.00    +0.000 A 
ATOM      4  C   UNL     1       3.857   2.249  19.192  0.00  0.00    +0.000 A 
ATOM      5  C   UNL     1       4.156   3.200  18.224  0.00  0.00    +0.000 A 
ATOM      6  O   UNL     1       4.891   3.025  17.088  0.00  0.00    +0.000 OA
ATOM      7  C   UNL     1       4.892   4.263  16.484  0.00  0.00    +0.000 A 
ATOM      8  N   UNL     1       4.212   5.182  17.150  0.00  0.00    +0.000 NA
ATOM      9  C   UNL     1       3.742   4.519  18.259  0.00  0.00    +0.000 A 
ENDROOT
BRANCH   1  16
ATOM     10  C   UNL     1       0.905   9.296  20.492  0.00  0.00    +0.000 A 
ATOM     11  C   UNL     1       0.760  10.503  19.784  0.00  0.00    +0.000 A 
ATOM     12  C   UNL     1       1.297  10.652  18.502  0.00  0.00    +0.000 A 
ATOM     13  C   UNL     1       1.987   9.607  17.878  0.00  0.00    +0.000 A 
ATOM     14  C   UNL     1       2.106   8.416  18.596  0.00  0.00    +0.000 A 
ATOM     15  N   UNL     1       2.683   7.212  18.296  0.00  0.00    +0.000 N 
ATOM     16  C   UNL     1       2.500   6.348  19.358  0.00  0.00    +0.000 A 
ATOM     17  N   UNL     1       1.854   6.961  20.338  0.00  0.00    +0.000 NA
ATOM     18  C   UNL     1       1.590   8.238  19.873  0.00  0.00    +0.000 A 
ATOM     19  H   UNL     1       3.149   6.957  17.431  0.00  0.00    +0.000 HD
BRANCH  10  21
ATOM     20  O   UNL     1       0.716   9.843  22.789  0.00  0.00    +0.000 OA
ATOM     21  C   UNL     1       0.335   9.160  21.850  0.00  0.00    +0.000 C 
BRANCH  21  22
ATOM     22  O   UNL     1      -0.632   8.224  21.972  0.00  0.00    +0.000 OA
ATOM     23  H   UNL     1      -1.405   8.376  21.376  0.00  0.00    +0.000 HD
ENDBRANCH  21  22
ENDBRANCH  10  21
ENDBRANCH   1  16
BRANCH   7  24
ATOM     24  C   UNL     1       5.649   4.377  15.233  0.00  0.00    +0.000 A 
ATOM     25  C   UNL     1       5.248   3.658  14.092  0.00  0.00    +0.000 A 
ATOM     26  C   UNL     1       5.972   3.727  12.899  0.00  0.00    +0.000 A 
ATOM     27  C   UNL     1       7.113   4.521  12.823  0.00  0.00    +0.000 A 
ATOM     28  C   UNL     1       7.524   5.252  13.934  0.00  0.00    +0.000 A 
ATOM     29  C   UNL     1       6.798   5.181  15.128  0.00  0.00    +0.000 A 
BRANCH  29  30
ATOM     30  O   UNL     1       7.238   5.911  16.203  0.00  0.00    +0.000 OA
ATOM     31  H   UNL     1       7.178   6.857  15.991  0.00  0.00    +0.000 HD
ENDBRANCH  29  30
ENDBRANCH   7  24
TORSDOF 5
ENDMDL
MODEL 3
REMARK VINA RESULT:      -8.8      1.768      7.255
REMARK  Name = 
REMARK  5 active torsions:
REMARK  status: ('A' for Active; 'I' for Inactive)
REMARK    1  A    between atoms: C_2  and  O_3
REMARK    2  A    between atoms: C_2  and  C_4
REMARK    3  A    between atoms: C_10  and  C_11
REMARK    4  A    between atoms: C_17  and  C_18
REMARK    5  A    between atoms: C_23  and  O_24
REMARK                            x       y       z     vdW  Elec       q    Type
REMARK                         _______ _______ _______ _____ _____    ______ ____
ROOT
ATOM      1  C   UNL     1       3.229   3.921  19.148  0.00  0.00    +0.000 A 
ATOM      2  C   UNL     1       2.909   2.622  19.579  0.00  0.00    +0.000 A 
ATOM      3  C   UNL     1       1.929   2.403  20.559  0.00  0.00    +0.000 A 
ATOM      4  C   UNL     1       1.231   3.466  21.148  0.00  0.00    +0.000 A 
ATOM      5  C   UNL     1       1.573   4.733  20.694  0.00  0.00    +0.000 A 
ATOM      6  O   UNL     1       1.050   5.928  21.095  0.00  0.00    +0.000 OA
ATOM      7  C   UNL     1       1.719   6.868  20.343  0.00  0.00    +0.000 A 
ATOM      8  N   UNL     1       2.615   6.351  19.519  0.00  0.00    +0.000 NA
ATOM      9  C   UNL     1       2.529   4.994  19.730  0.00  0.00    +0.000 A 
ENDROOT
BRANCH   1  16
ATOM     10  C   UNL     1       6.995   5.795  16.577  0.00  0.00    +0.000 A 
ATOM     11  C   UNL     1       7.495   5.536  15.287  0.00  0.00    +0.000 A 
ATOM     12  C   UNL     1       6.927   4.542  14.484  0.00  0.00    +0.000 A 
ATOM     13  C   UNL     1       5.843   3.779  14.930  0.00  0.00    +0.000 A 
ATOM     14  C   UNL     1       5.358   4.064  16.208  0.00  0.00    +0.000 A 
ATOM     15  N   UNL     1       4.325   3.544  16.939  0.00  0.00    +0.000 N 
ATOM     16  C   UNL     1       4.255   4.204  18.151  0.00  0.00    +0.000 A 
ATOM     17  N   UNL     1       5.221   5.105  18.236  0.00  0.00    +0.000 NA
ATOM     18  C   UNL     1       5.902   5.039  17.033  0.00  0.00    +0.000 A 
ATOM     19  H   UNL     1       3.680   2.815  16.653  0.00  0.00    +0.000 HD
BRANCH  10  21
ATOM     20  O   UNL     1       7.786   7.986  17.007  0.00  0.00    +0.000 OA
ATOM     21  C   UNL     1       7.613   6.846  17.414  0.00  0.00    +0.000 C 
BRANCH  21  22
ATOM     22  O   UNL     1       7.974   6.450  18.654  0.00  0.00    +0.000 OA
ATOM     23  H   UNL     1       7.207   6.299  19.257  0.00  0.00    +0.000 HD
ENDBRANCH  21  22
ENDBRANCH  10  21
ENDBRANCH   1  16
BRANCH   7  24
ATOM     24  C   UNL     1       1.330   8.266  20.550  0.00  0.00    +0.000 A 
ATOM     25  C   UNL     1       0.964   8.719  21.831  0.00  0.00    +0.000 A 
ATOM     26  C   UNL     1       0.558  10.040  22.046  0.00  0.00    +0.000 A 
ATOM     27  C   UNL     1       0.514  10.935  20.981  0.00  0.00    +0.000 A 
ATOM     28  C   UNL     1       0.882  10.515  19.705  0.00  0.00    +0.000 A 
ATOM     29  C   UNL     1       1.287   9.192  19.493  0.00  0.00    +0.000 A 
BRANCH  29  30
ATOM     30  O   UNL     1       1.637   8.814  18.222  0.00  0.00    +0.000 OA
ATOM     31  H   UNL     1       1.070   8.077  17.941  0.00  0.00    +0.000 HD
ENDBRANCH  29  30
ENDBRANCH   7  24
TORSDOF 5
ENDMDL
MODEL 4
REMARK VINA RESULT:      -8.2      2.506      8.147
REMARK  Name = 
REMARK  5 active torsions:
REMARK  status: ('A' for Active; 'I' for Inactive)
REMARK    1  A    between atoms: C_2  and  O_3
REMARK    2  A    between atoms: C_2  and  C_4
REMARK    3  A    between atoms: C_10  and  C_11
REMARK    4  A    between atoms: C_17  and  C_18
REMARK    5  A    between atoms: C_23  and  O_24
REMARK                            x       y       z     vdW  Elec       q    Type
REMARK                         _______ _______ _______ _____ _____    ______ ____
ROOT
ATOM      1  C   UNL     1       4.224   3.588  17.281  0.00  0.00    +0.000 A 
ATOM      2  C   UNL     1       4.148   2.297  17.829  0.00  0.00    +0.000 A 
ATOM      3  C   UNL     1       3.397   2.044  18.987  0.00  0.00    +0.000 A 
ATOM      4  C   UNL     1       2.694   3.065  19.643  0.00  0.00    +0.000 A 
ATOM      5  C   UNL     1       2.792   4.326  19.069  0.00  0.00    +0.000 A 
ATOM      6  O   UNL     1       2.211   5.482  19.501  0.00  0.00    +0.000 OA
ATOM      7  C   UNL     1       2.613   6.432  18.588  0.00  0.00    +0.000 A 
ATOM      8  N   UNL     1       3.399   5.958  17.636  0.00  0.00    +0.000 NA
ATOM      9  C   UNL     1       3.518   4.619  17.929  0.00  0.00    +0.000 A 
ENDROOT
BRANCH   1  16
ATOM     10  C   UNL     1       6.163   3.782  12.752  0.00  0.00    +0.000 A 
ATOM     11  C   UNL     1       7.271   4.464  12.215  0.00  0.00    +0.000 A 
ATOM     12  C   UNL     1       8.037   5.325  13.007  0.00  0.00    +0.000 A 
ATOM     13  C   UNL     1       7.734   5.532  14.357  0.00  0.00    +0.000 A 
ATOM     14  C   UNL     1       6.638   4.835  14.868  0.00  0.00    +0.000 A 
ATOM     15  N   UNL     1       6.080   4.782  16.116  0.00  0.00    +0.000 N 
ATOM     16  C   UNL     1       5.010   3.909  16.094  0.00  0.00    +0.000 A 
ATOM     17  N   UNL     1       4.842   3.424  14.873  0.00  0.00    +0.000 NA
ATOM     18  C   UNL     1       5.854   3.978  14.108  0.00  0.00    +0.000 A 
ATOM     19  H   UNL     1       6.397   5.268  16.949  0.00  0.00    +0.000 HD
BRANCH  10  21
ATOM     20  O   UNL     1       4.274   3.204  11.445  0.00  0.00    +0.000 OA
ATOM     21  C   UNL     1       5.362   2.880  11.896  0.00  0.00    +0.000 C 
BRANCH  21  22
ATOM     22  O   UNL     1       5.922   1.674  11.657  0.00  0.00    +0.000 OA
ATOM     23  H   UNL     1       5.752   1.013  12.371  0.00  0.00    +0.000 HD
ENDBRANCH  21  22
ENDBRANCH  10  21
ENDBRANCH   1  16
BRANCH   7  24
ATOM     24  C   UNL     1       2.102   7.791  18.794  0.00  0.00    +0.000 A 
ATOM     25  C   UNL     1       2.060   8.704  17.723  0.00  0.00    +0.000 A 
ATOM     26  C   UNL     1       1.607  10.014  17.903  0.00  0.00    +0.000 A 
ATOM     27  C   UNL     1       1.183  10.436  19.160  0.00  0.00    +0.000 A 
ATOM     28  C   UNL     1       1.203   9.549  20.233  0.00  0.00    +0.000 A 
ATOM     29  C   UNL     1       1.658   8.238  20.051  0.00  0.00    +0.000 A 
BRANCH  29  30
ATOM     30  O   UNL     1       1.669   7.396  21.133  0.00  0.00    +0.000 OA
ATOM     31  H   UNL     1       0.774   7.045  21.272  0.00  0.00    +0.000 HD
ENDBRANCH  29  30
ENDBRANCH   7  24
TORSDOF 5
ENDMDL
MODEL 5
REMARK VINA RESULT:      -8.1      1.478      7.280
REMARK  Name = 
REMARK  5 active torsions:
REMARK  status: ('A' for Active; 'I' for Inactive)
REMARK    1  A    between atoms: C_2  and  O_3
REMARK    2  A    between atoms: C_2  and  C_4
REMARK    3  A    between atoms: C_10  and  C_11
REMARK    4  A    between atoms: C_17  and  C_18
REMARK    5  A    between atoms: C_23  and  O_24
REMARK                            x       y       z     vdW  Elec       q    Type
REMARK                         _______ _______ _______ _____ _____    ______ ____
ROOT
ATOM      1  C   UNL     1       3.234   4.156  19.222  0.00  0.00    +0.000 A 
ATOM      2  C   UNL     1       2.927   2.891  19.752  0.00  0.00    +0.000 A 
ATOM      3  C   UNL     1       1.937   2.737  20.734  0.00  0.00    +0.000 A 
ATOM      4  C   UNL     1       1.214   3.833  21.225  0.00  0.00    +0.000 A 
ATOM      5  C   UNL     1       1.545   5.065  20.675  0.00  0.00    +0.000 A 
ATOM      6  O   UNL     1       0.999   6.280  20.971  0.00  0.00    +0.000 OA
ATOM      7  C   UNL     1       1.665   7.166  20.154  0.00  0.00    +0.000 A 
ATOM      8  N   UNL     1       2.580   6.598  19.385  0.00  0.00    +0.000 NA
ATOM      9  C   UNL     1       2.511   5.262  19.705  0.00  0.00    +0.000 A 
ENDROOT
BRANCH   1  16
ATOM     10  C   UNL     1       7.048   5.837  16.588  0.00  0.00    +0.000 A 
ATOM     11  C   UNL     1       7.547   5.510  15.313  0.00  0.00    +0.000 A 
ATOM     12  C   UNL     1       6.964   4.492  14.553  0.00  0.00    +0.000 A 
ATOM     13  C   UNL     1       5.862   3.771  15.028  0.00  0.00    +0.000 A 
ATOM     14  C   UNL     1       5.378   4.124  16.289  0.00  0.00    +0.000 A 
ATOM     15  N   UNL     1       4.331   3.658  17.037  0.00  0.00    +0.000 N 
ATOM     16  C   UNL     1       4.270   4.373  18.218  0.00  0.00    +0.000 A 
ATOM     17  N   UNL     1       5.253   5.258  18.267  0.00  0.00    +0.000 NA
ATOM     18  C   UNL     1       5.938   5.125  17.071  0.00  0.00    +0.000 A 
ATOM     19  H   UNL     1       3.673   2.929  16.781  0.00  0.00    +0.000 HD
BRANCH  10  21
ATOM     20  O   UNL     1       7.859   8.036  16.930  0.00  0.00    +0.000 OA
ATOM     21  C   UNL     1       7.682   6.913  17.379  0.00  0.00    +0.000 C 
BRANCH  21  22
ATOM     22  O   UNL     1       8.055   6.558  18.628  0.00  0.00    +0.000 OA
ATOM     23  H   UNL     1       8.279   5.601  18.716  0.00  0.00    +0.000 HD
ENDBRANCH  21  22
ENDBRANCH  10  21
ENDBRANCH   1  16
BRANCH   7  24
ATOM     24  C   UNL     1       1.253   8.570  20.242  0.00  0.00    +0.000 A 
ATOM     25  C   UNL     1       0.875   9.274  19.082  0.00  0.00    +0.000 A 
ATOM     26  C   UNL     1       0.510  10.622  19.138  0.00  0.00    +0.000 A 
ATOM     27  C   UNL     1       0.511  11.293  20.357  0.00  0.00    +0.000 A 
ATOM     28  C   UNL     1       0.869  10.617  21.521  0.00  0.00    +0.000 A 
ATOM     29  C   UNL     1       1.235   9.267  21.463  0.00  0.00    +0.000 A 
BRANCH  29  30
ATOM     30  O   UNL     1       1.587   8.637  22.629  0.00  0.00    +0.000 OA
ATOM     31  H   UNL     1       0.798   8.232  23.023  0.00  0.00    +0.000 HD
ENDBRANCH  29  30
ENDBRANCH   7  24
TORSDOF 5
ENDMDL
MODEL 6
REMARK VINA RESULT:      -8.0      1.709      2.240
REMARK  Name = 
REMARK  5 active torsions:
REMARK  status: ('A' for Active; 'I' for Inactive)
REMARK    1  A    between atoms: C_2  and  O_3
REMARK    2  A    between atoms: C_2  and  C_4
REMARK    3  A    between atoms: C_10  and  C_11
REMARK    4  A    between atoms: C_17  and  C_18
REMARK    5  A    between atoms: C_23  and  O_24
REMARK                            x       y       z     vdW  Elec       q    Type
REMARK                         _______ _______ _______ _____ _____    ______ ____
ROOT
ATOM      1  C   UNL     1       2.298   5.180  20.429  0.00  0.00    +0.000 A 
ATOM      2  C   UNL     1       1.884   4.218  21.366  0.00  0.00    +0.000 A 
ATOM      3  C   UNL     1       2.331   2.890  21.288  0.00  0.00    +0.000 A 
ATOM      4  C   UNL     1       3.206   2.468  20.277  0.00  0.00    +0.000 A 
ATOM      5  C   UNL     1       3.595   3.449  19.373  0.00  0.00    +0.000 A 
ATOM      6  O   UNL     1       4.433   3.308  18.306  0.00  0.00    +0.000 OA
ATOM      7  C   UNL     1       4.492   4.565  17.745  0.00  0.00    +0.000 A 
ATOM      8  N   UNL     1       3.755   5.464  18.375  0.00  0.00    +0.000 NA
ATOM      9  C   UNL     1       3.181   4.768  19.413  0.00  0.00    +0.000 A 
ENDROOT
BRANCH   1  16
ATOM     10  C   UNL     1       1.399   9.922  19.424  0.00  0.00    +0.000 A 
ATOM     11  C   UNL     1       0.791  10.956  20.159  0.00  0.00    +0.000 A 
ATOM     12  C   UNL     1       0.252  10.714  21.427  0.00  0.00    +0.000 A 
ATOM     13  C   UNL     1       0.306   9.443  22.009  0.00  0.00    +0.000 A 
ATOM     14  C   UNL     1       0.926   8.438  21.264  0.00  0.00    +0.000 A 
ATOM     15  N   UNL     1       1.170   7.117  21.523  0.00  0.00    +0.000 N 
ATOM     16  C   UNL     1       1.845   6.566  20.451  0.00  0.00    +0.000 A 
ATOM     17  N   UNL     1       2.016   7.475  19.503  0.00  0.00    +0.000 NA
ATOM     18  C   UNL     1       1.465   8.644  20.001  0.00  0.00    +0.000 A 
ATOM     19  H   UNL     1       0.934   6.606  22.367  0.00  0.00    +0.000 HD
BRANCH  10  21
ATOM     20  O   UNL     1       2.552  11.232  17.822  0.00  0.00    +0.000 OA
ATOM     21  C   UNL     1       1.958  10.196  18.083  0.00  0.00    +0.000 C 
BRANCH  21  22
ATOM     22  O   UNL     1       1.757   9.220  17.170  0.00  0.00    +0.000 OA
ATOM     23  H   UNL     1       2.595   8.852  16.797  0.00  0.00    +0.000 HD
ENDBRANCH  21  22
ENDBRANCH  10  21
ENDBRANCH   1  16
BRANCH   7  24
ATOM     24  C   UNL     1       5.362   4.717  16.575  0.00  0.00    +0.000 A 
ATOM     25  C   UNL     1       5.065   4.042  15.376  0.00  0.00    +0.000 A 
ATOM     26  C   UNL     1       5.898   4.147  14.258  0.00  0.00    +0.000 A 
ATOM     27  C   UNL     1       7.045   4.932  14.318  0.00  0.00    +0.000 A 
ATOM     28  C   UNL     1       7.356   5.619  15.488  0.00  0.00    +0.000 A 
ATOM     29  C   UNL     1       6.521   5.513  16.607  0.00  0.00    +0.000 A 
BRANCH  29  30
ATOM     30  O   UNL     1       6.864   6.199  17.743  0.00  0.00    +0.000 OA
ATOM     31  H   UNL     1       6.807   5.601  18.506  0.00  0.00    +0.000 HD
ENDBRANCH  29  30
ENDBRANCH   7  24
TORSDOF 5
ENDMDL
MODEL 7
REMARK VINA RESULT:      -7.8      0.839      1.194
REMARK  Name = 
REMARK  5 active torsions:
REMARK  status: ('A' for Active; 'I' for Inactive)
REMARK    1  A    between atoms: C_2  and  O_3
REMARK    2  A    between atoms: C_2  and  C_4
REMARK    3  A    between atoms: C_10  and  C_11
REMARK    4  A    between atoms: C_17  and  C_18
REMARK    5  A    between atoms: C_23  and  O_24
REMARK                            x       y       z     vdW  Elec       q    Type
REMARK                         _______ _______ _______ _____ _____    ______ ____
ROOT
ATOM      1  C   UNL     1       2.269   5.514  20.352  0.00  0.00    +0.000 A 
ATOM      2  C   UNL     1       1.852   4.620  21.353  0.00  0.00    +0.000 A 
ATOM      3  C   UNL     1       2.288   3.287  21.362  0.00  0.00    +0.000 A 
ATOM      4  C   UNL     1       3.155   2.792  20.378  0.00  0.00    +0.000 A 
ATOM      5  C   UNL     1       3.547   3.706  19.408  0.00  0.00    +0.000 A 
ATOM      6  O   UNL     1       4.378   3.487  18.349  0.00  0.00    +0.000 OA
ATOM      7  C   UNL     1       4.444   4.703  17.705  0.00  0.00    +0.000 A 
ATOM      8  N   UNL     1       3.716   5.648  18.276  0.00  0.00    +0.000 NA
ATOM      9  C   UNL     1       3.143   5.028  19.362  0.00  0.00    +0.000 A 
ENDROOT
BRANCH   1  16
ATOM     10  C   UNL     1       0.239   9.923  21.217  0.00  0.00    +0.000 A 
ATOM     11  C   UNL     1       0.118  11.089  20.438  0.00  0.00    +0.000 A 
ATOM     12  C   UNL     1       0.679  11.159  19.159  0.00  0.00    +0.000 A 
ATOM     13  C   UNL     1       1.371  10.074  18.608  0.00  0.00    +0.000 A 
ATOM     14  C   UNL     1       1.465   8.926  19.396  0.00  0.00    +0.000 A 
ATOM     15  N   UNL     1       2.036   7.702  19.176  0.00  0.00    +0.000 N 
ATOM     16  C   UNL     1       1.826   6.902  20.283  0.00  0.00    +0.000 A 
ATOM     17  N   UNL     1       1.168   7.575  21.214  0.00  0.00    +0.000 NA
ATOM     18  C   UNL     1       0.925   8.826  20.671  0.00  0.00    +0.000 A 
ATOM     19  H   UNL     1       2.516   7.393  18.336  0.00  0.00    +0.000 HD
BRANCH  10  21
ATOM     20  O   UNL     1      -0.359  10.835  23.319  0.00  0.00    +0.000 OA
ATOM     21  C   UNL     1      -0.356   9.870  22.569  0.00  0.00    +0.000 C 
BRANCH  21  22
ATOM     22  O   UNL     1      -0.890   8.677  22.912  0.00  0.00    +0.000 OA
ATOM     23  H   UNL     1      -1.642   8.751  23.548  0.00  0.00    +0.000 HD
ENDBRANCH  21  22
ENDBRANCH  10  21
ENDBRANCH   1  16
BRANCH   7  24
ATOM     24  C   UNL     1       5.309   4.769  16.523  0.00  0.00    +0.000 A 
ATOM     25  C   UNL     1       5.826   6.005  16.089  0.00  0.00    +0.000 A 
ATOM     26  C   UNL     1       6.626   6.096  14.947  0.00  0.00    +0.000 A 
ATOM     27  C   UNL     1       6.928   4.950  14.217  0.00  0.00    +0.000 A 
ATOM     28  C   UNL     1       6.439   3.714  14.632  0.00  0.00    +0.000 A 
ATOM     29  C   UNL     1       5.637   3.625  15.775  0.00  0.00    +0.000 A 
BRANCH  29  30
ATOM     30  O   UNL     1       5.170   2.391  16.148  0.00  0.00    +0.000 OA
ATOM     31  H   UNL     1       4.802   2.448  17.045  0.00  0.00    +0.000 HD
ENDBRANCH  29  30
ENDBRANCH   7  24
TORSDOF 5
ENDMDL
MODEL 8
REMARK VINA RESULT:      -7.8      2.555      8.075
REMARK  Name = 
REMARK  5 active torsions:
REMARK  status: ('A' for Active; 'I' for Inactive)
REMARK    1  A    between atoms: C_2  and  O_3
REMARK    2  A    between atoms: C_2  and  C_4
REMARK    3  A    between atoms: C_10  and  C_11
REMARK    4  A    between atoms: C_17  and  C_18
REMARK    5  A    between atoms: C_23  and  O_24
REMARK                            x       y       z     vdW  Elec       q    Type
REMARK                         _______ _______ _______ _____ _____    ______ ____
ROOT
ATOM      1  C   UNL     1       4.178   3.552  17.382  0.00  0.00    +0.000 A 
ATOM      2  C   UNL     1       4.078   2.244  17.883  0.00  0.00    +0.000 A 
ATOM      3  C   UNL     1       3.319   1.962  19.029  0.00  0.00    +0.000 A 
ATOM      4  C   UNL     1       2.629   2.969  19.718  0.00  0.00    +0.000 A 
ATOM      5  C   UNL     1       2.749   4.248  19.189  0.00  0.00    +0.000 A 
ATOM      6  O   UNL     1       2.185   5.397  19.660  0.00  0.00    +0.000 OA
ATOM      7  C   UNL     1       2.605   6.373  18.784  0.00  0.00    +0.000 A 
ATOM      8  N   UNL     1       3.388   5.920  17.818  0.00  0.00    +0.000 NA
ATOM      9  C   UNL     1       3.485   4.570  18.064  0.00  0.00    +0.000 A 
ENDROOT
BRANCH   1  16
ATOM     10  C   UNL     1       6.164   3.850  12.879  0.00  0.00    +0.000 A 
ATOM     11  C   UNL     1       7.272   4.552  12.367  0.00  0.00    +0.000 A 
ATOM     12  C   UNL     1       8.020   5.405  13.184  0.00  0.00    +0.000 A 
ATOM     13  C   UNL     1       7.701   5.584  14.534  0.00  0.00    +0.000 A 
ATOM     14  C   UNL     1       6.606   4.866  15.020  0.00  0.00    +0.000 A 
ATOM     15  N   UNL     1       6.035   4.784  16.261  0.00  0.00    +0.000 N 
ATOM     16  C   UNL     1       4.973   3.902  16.210  0.00  0.00    +0.000 A 
ATOM     17  N   UNL     1       4.823   3.439  14.979  0.00  0.00    +0.000 NA
ATOM     18  C   UNL     1       5.838   4.017  14.235  0.00  0.00    +0.000 A 
ATOM     19  H   UNL     1       6.338   5.258  17.106  0.00  0.00    +0.000 HD
BRANCH  10  21
ATOM     20  O   UNL     1       4.300   3.284  11.532  0.00  0.00    +0.000 OA
ATOM     21  C   UNL     1       5.382   2.957  11.998  0.00  0.00    +0.000 C 
BRANCH  21  22
ATOM     22  O   UNL     1       5.949   1.756  11.753  0.00  0.00    +0.000 OA
ATOM     23  H   UNL     1       6.580   1.468  12.456  0.00  0.00    +0.000 HD
ENDBRANCH  21  22
ENDBRANCH  10  21
ENDBRANCH   1  16
BRANCH   7  24
ATOM     24  C   UNL     1       2.115   7.731  19.036  0.00  0.00    +0.000 A 
ATOM     25  C   UNL     1       1.531   8.058  20.275  0.00  0.00    +0.000 A 
ATOM     26  C   UNL     1       1.028   9.337  20.525  0.00  0.00    +0.000 A 
ATOM     27  C   UNL     1       1.101  10.318  19.541  0.00  0.00    +0.000 A 
ATOM     28  C   UNL     1       1.684  10.024  18.311  0.00  0.00    +0.000 A 
ATOM     29  C   UNL     1       2.187   8.742  18.061  0.00  0.00    +0.000 A 
BRANCH  29  30
ATOM     30  O   UNL     1       2.749   8.490  16.836  0.00  0.00    +0.000 OA
ATOM     31  H   UNL     1       3.487   9.104  16.691  0.00  0.00    +0.000 HD
ENDBRANCH  29  30
ENDBRANCH   7  24
TORSDOF 5
ENDMDL
MODEL 9
REMARK VINA RESULT:      -7.8      3.043      7.903
REMARK  Name = 
REMARK  5 active torsions:
REMARK  status: ('A' for Active; 'I' for Inactive)
REMARK    1  A    between atoms: C_2  and  O_3
REMARK    2  A    between atoms: C_2  and  C_4
REMARK    3  A    between atoms: C_10  and  C_11
REMARK    4  A    between atoms: C_17  and  C_18
REMARK    5  A    between atoms: C_23  and  O_24
REMARK                            x       y       z     vdW  Elec       q    Type
REMARK                         _______ _______ _______ _____ _____    ______ ____
ROOT
ATOM      1  C   UNL     1       0.371   9.610  21.394  0.00  0.00    +0.000 A 
ATOM      2  C   UNL     1      -0.531   9.372  22.444  0.00  0.00    +0.000 A 
ATOM      3  C   UNL     1      -1.128  10.433  23.142  0.00  0.00    +0.000 A 
ATOM      4  C   UNL     1      -0.851  11.769  22.821  0.00  0.00    +0.000 A 
ATOM      5  C   UNL     1       0.043  11.963  21.776  0.00  0.00    +0.000 A 
ATOM      6  O   UNL     1       0.479  13.150  21.266  0.00  0.00    +0.000 OA
ATOM      7  C   UNL     1       1.339  12.795  20.251  0.00  0.00    +0.000 A 
ATOM      8  N   UNL     1       1.474  11.489  20.099  0.00  0.00    +0.000 NA
ATOM      9  C   UNL     1       0.652  10.948  21.061  0.00  0.00    +0.000 A 
ENDROOT
BRANCH   1  16
ATOM     10  C   UNL     1       2.239   5.311  19.862  0.00  0.00    +0.000 A 
ATOM     11  C   UNL     1       3.082   4.963  18.790  0.00  0.00    +0.000 A 
ATOM     12  C   UNL     1       3.515   5.928  17.875  0.00  0.00    +0.000 A 
ATOM     13  C   UNL     1       3.134   7.269  17.998  0.00  0.00    +0.000 A 
ATOM     14  C   UNL     1       2.309   7.590  19.077  0.00  0.00    +0.000 A 
ATOM     15  N   UNL     1       1.772   8.773  19.506  0.00  0.00    +0.000 N 
ATOM     16  C   UNL     1       1.037   8.543  20.653  0.00  0.00    +0.000 A 
ATOM     17  N   UNL     1       1.058   7.255  20.959  0.00  0.00    +0.000 NA
ATOM     18  C   UNL     1       1.856   6.655  19.998  0.00  0.00    +0.000 A 
ATOM     19  H   UNL     1       1.900   9.689  19.089  0.00  0.00    +0.000 HD
BRANCH  10  21
ATOM     20  O   UNL     1       2.426   3.984  21.814  0.00  0.00    +0.000 OA
ATOM     21  C   UNL     1       1.786   4.276  20.815  0.00  0.00    +0.000 C 
BRANCH  21  22
ATOM     22  O   UNL     1       0.619   3.676  20.494  0.00  0.00    +0.000 OA
ATOM     23  H   UNL     1       0.502   2.791  20.916  0.00  0.00    +0.000 HD
ENDBRANCH  21  22
ENDBRANCH  10  21
ENDBRANCH   1  16
BRANCH   7  24
ATOM     24  C   UNL     1       1.945  13.896  19.494  0.00  0.00    +0.000 A 
ATOM     25  C   UNL     1       1.929  15.205  20.010  0.00  0.00    +0.000 A 
ATOM     26  C   UNL     1       2.472  16.275  19.292  0.00  0.00    +0.000 A 
ATOM     27  C   UNL     1       3.044  16.054  18.043  0.00  0.00    +0.000 A 
ATOM     28  C   UNL     1       3.083  14.766  17.515  0.00  0.00    +0.000 A 
ATOM     29  C   UNL     1       2.538  13.696  18.235  0.00  0.00    +0.000 A 
BRANCH  29  30
ATOM     30  O   UNL     1       2.590  12.444  17.680  0.00  0.00    +0.000 OA
ATOM     31  H   UNL     1       2.562  11.780  18.388  0.00  0.00    +0.000 HD
ENDBRANCH  29  30
ENDBRANCH   7  24
TORSDOF 5
ENDMDL
