MODEL 1
REMARK VINA RESULT:      -8.3      0.000      0.000
REMARK  Name = 
REMARK  10 active torsions:
REMARK  status: ('A' for Active; 'I' for Inactive)
REMARK    1  A    between atoms: C_1  and  N_2
REMARK    2  A    between atoms: C_4  and  C_5
REMARK    3  A    between atoms: C_5  and  C_6
REMARK    4  A    between atoms: C_5  and  C_7
REMARK    5  A    between atoms: C_5  and  C_8
REMARK    6  A    between atoms: C_10  and  C_11
REMARK    7  A    between atoms: C_17  and  C_18
REMARK    8  A    between atoms: C_20  and  C_21
REMARK    9  A    between atoms: N_23  and  C_24
REMARK   10  A    between atoms: C_24  and  C_25
REMARK                            x       y       z     vdW  Elec       q    Type
REMARK                         _______ _______ _______ _____ _____    ______ ____
ROOT
ATOM      1  C   UNL     1      -2.746  14.792  21.350  0.00  0.00    +0.000 C 
ATOM      2  O   UNL     1      -2.927  15.966  21.618  0.00  0.00    +0.000 OA
ATOM      3  N   UNL     1      -1.467  14.306  21.006  0.00  0.00    +0.000 N 
ATOM      4  C   UNL     1      -0.311  15.190  21.154  0.00  0.00    +0.000 C 
ATOM      5  C   UNL     1       0.381  15.388  19.813  0.00  0.00    +0.000 C 
ATOM      6  C   UNL     1       0.793  14.052  19.203  0.00  0.00    +0.000 C 
ATOM      7  C   UNL     1      -0.380  13.077  19.090  0.00  0.00    +0.000 C 
ATOM      8  C   UNL     1      -1.177  13.001  20.397  0.00  0.00    +0.000 C 
ENDROOT
BRANCH   1  14
ATOM      9  C   UNL     1      -3.578  12.793  23.727  0.00  0.00    +0.000 C 
ATOM     10  N   UNL     1      -4.177  12.971  22.427  0.00  0.00    +0.000 N 
ATOM     11  N   UNL     1      -5.296  12.256  22.177  0.00  0.00    +0.000 NA
ATOM     12  C   UNL     1      -5.664  12.598  20.945  0.00  0.00    +0.000 A 
ATOM     13  C   UNL     1      -4.751  13.517  20.405  0.00  0.00    +0.000 A 
ATOM     14  C   UNL     1      -3.834  13.822  21.396  0.00  0.00    +0.000 A 
BRANCH  12  15
ATOM     15  C   UNL     1      -6.927  12.034  20.325  0.00  0.00    +0.000 C 
ATOM     16  C   UNL     1      -6.567  10.934  19.304  0.00  0.00    +0.000 C 
ATOM     17  C   UNL     1      -7.852  11.415  21.397  0.00  0.00    +0.000 C 
ATOM     18  C   UNL     1      -7.707  13.142  19.602  0.00  0.00    +0.000 C 
ENDBRANCH  12  15
ENDBRANCH   1  14
BRANCH   7  19
ATOM     19  C   UNL     1       0.106  11.712  18.723  0.00  0.00    +0.000 A 
ATOM     20  C   UNL     1       1.322  11.079  18.783  0.00  0.00    +0.000 A 
ATOM     21  C   UNL     1       1.074   9.765  18.290  0.00  0.00    +0.000 A 
ATOM     22  N   UNL     1      -0.212   9.639  17.918  0.00  0.00    +0.000 NA
ATOM     23  O   UNL     1      -0.812  10.851  18.204  0.00  0.00    +0.000 OA
BRANCH  21  24
ATOM     24  C   UNL     1       2.030   8.664  18.170  0.00  0.00    +0.000 C 
ATOM     25  O   UNL     1       2.704   8.496  17.156  0.00  0.00    +0.000 OA
ATOM     26  N   UNL     1       2.077   7.814  19.253  0.00  0.00    +0.000 N 
ATOM     27  H   UNL     1       1.487   8.018  20.052  0.00  0.00    +0.000 HD
BRANCH  26  28
ATOM     28  C   UNL     1       2.972   6.682  19.315  0.00  0.00    +0.000 C 
BRANCH  28  29
ATOM     29  C   UNL     1       2.189   5.397  19.339  0.00  0.00    +0.000 A 
ATOM     30  C   UNL     1       1.662   4.897  20.538  0.00  0.00    +0.000 A 
ATOM     31  C   UNL     1       1.023   3.655  20.566  0.00  0.00    +0.000 A 
ATOM     32  C   UNL     1       0.906   2.902  19.398  0.00  0.00    +0.000 A 
ATOM     33  C   UNL     1       1.405   3.400  18.197  0.00  0.00    +0.000 A 
ATOM     34  C   UNL     1       2.042   4.641  18.166  0.00  0.00    +0.000 A 
ENDBRANCH  28  29
ENDBRANCH  26  28
ENDBRANCH  21  24
ENDBRANCH   7  19
TORSDOF 6
ENDMDL
MODEL 2
REMARK VINA RESULT:      -8.0      3.485      6.500
REMARK  Name = 
REMARK  10 active torsions:
REMARK  status: ('A' for Active; 'I' for Inactive)
REMARK    1  A    between atoms: C_1  and  N_2
REMARK    2  A    between atoms: C_4  and  C_5
REMARK    3  A    between atoms: C_5  and  C_6
REMARK    4  A    between atoms: C_5  and  C_7
REMARK    5  A    between atoms: C_5  and  C_8
REMARK    6  A    between atoms: C_10  and  C_11
REMARK    7  A    between atoms: C_17  and  C_18
REMARK    8  A    between atoms: C_20  and  C_21
REMARK    9  A    between atoms: N_23  and  C_24
REMARK   10  A    between atoms: C_24  and  C_25
REMARK                            x       y       z     vdW  Elec       q    Type
REMARK                         _______ _______ _______ _____ _____    ______ ____
ROOT
ATOM      1  C   UNL     1       0.230  13.401  21.632  0.00  0.00    +0.000 C 
ATOM      2  O   UNL     1      -0.264  14.084  22.510  0.00  0.00    +0.000 OA
ATOM      3  N   UNL     1      -0.120  12.043  21.473  0.00  0.00    +0.000 N 
ATOM      4  C   UNL     1      -1.230  11.503  22.257  0.00  0.00    +0.000 C 
ATOM      5  C   UNL     1      -0.751  10.355  23.134  0.00  0.00    +0.000 C 
ATOM      6  C   UNL     1      -0.092   9.262  22.299  0.00  0.00    +0.000 C 
ATOM      7  C   UNL     1       1.035   9.802  21.417  0.00  0.00    +0.000 C 
ATOM      8  C   UNL     1       0.601  11.059  20.655  0.00  0.00    +0.000 C 
ENDROOT
BRANCH   1  14
ATOM      9  C   UNL     1      -0.272  14.508  18.655  0.00  0.00    +0.000 C 
ATOM     10  N   UNL     1       0.957  14.426  19.408  0.00  0.00    +0.000 N 
ATOM     11  N   UNL     1       2.057  14.950  18.825  0.00  0.00    +0.000 NA
ATOM     12  C   UNL     1       3.039  14.773  19.703  0.00  0.00    +0.000 A 
ATOM     13  C   UNL     1       2.558  14.104  20.839  0.00  0.00    +0.000 A 
ATOM     14  C   UNL     1       1.191  13.953  20.684  0.00  0.00    +0.000 A 
BRANCH  12  15
ATOM     15  C   UNL     1       4.437  15.288  19.422  0.00  0.00    +0.000 C 
ATOM     16  C   UNL     1       4.405  16.818  19.223  0.00  0.00    +0.000 C 
ATOM     17  C   UNL     1       5.399  14.973  20.589  0.00  0.00    +0.000 C 
ATOM     18  C   UNL     1       4.999  14.637  18.149  0.00  0.00    +0.000 C 
ENDBRANCH  12  15
ENDBRANCH   1  14
BRANCH   7  19
ATOM     19  C   UNL     1       1.486   8.760  20.445  0.00  0.00    +0.000 A 
ATOM     20  C   UNL     1       1.845   7.439  20.553  0.00  0.00    +0.000 A 
ATOM     21  C   UNL     1       2.144   7.033  19.221  0.00  0.00    +0.000 A 
ATOM     22  N   UNL     1       2.010   8.068  18.373  0.00  0.00    +0.000 NA
ATOM     23  O   UNL     1       1.586   9.137  19.141  0.00  0.00    +0.000 OA
BRANCH  21  24
ATOM     24  C   UNL     1       2.551   5.703  18.765  0.00  0.00    +0.000 C 
ATOM     25  O   UNL     1       1.844   5.026  18.022  0.00  0.00    +0.000 OA
ATOM     26  N   UNL     1       3.753   5.259  19.269  0.00  0.00    +0.000 N 
ATOM     27  H   UNL     1       4.278   5.874  19.879  0.00  0.00    +0.000 HD
BRANCH  26  28
ATOM     28  C   UNL     1       4.318   3.976  18.916  0.00  0.00    +0.000 C 
BRANCH  28  29
ATOM     29  C   UNL     1       5.275   4.126  17.764  0.00  0.00    +0.000 A 
ATOM     30  C   UNL     1       6.557   4.660  17.957  0.00  0.00    +0.000 A 
ATOM     31  C   UNL     1       7.401   4.888  16.867  0.00  0.00    +0.000 A 
ATOM     32  C   UNL     1       6.971   4.585  15.576  0.00  0.00    +0.000 A 
ATOM     33  C   UNL     1       5.708   4.033  15.374  0.00  0.00    +0.000 A 
ATOM     34  C   UNL     1       4.865   3.803  16.462  0.00  0.00    +0.000 A 
ENDBRANCH  28  29
ENDBRANCH  26  28
ENDBRANCH  21  24
ENDBRANCH   7  19
TORSDOF 6
ENDMDL
MODEL 3
REMARK VINA RESULT:      -7.9      8.562     10.214
REMARK  Name = 
REMARK  10 active torsions:
REMARK  status: ('A' for Active; 'I' for Inactive)
REMARK    1  A    between atoms: C_1  and  N_2
REMARK    2  A    between atoms: C_4  and  C_5
REMARK    3  A    between atoms: C_5  and  C_6
REMARK    4  A    between atoms: C_5  and  C_7
REMARK    5  A    between atoms: C_5  and  C_8
REMARK    6  A    between atoms: C_10  and  C_11
REMARK    7  A    between atoms: C_17  and  C_18
REMARK    8  A    between atoms: C_20  and  C_21
REMARK    9  A    between atoms: N_23  and  C_24
REMARK   10  A    between atoms: C_24  and  C_25
REMARK                            x       y       z     vdW  Elec       q    Type
REMARK                         _______ _______ _______ _____ _____    ______ ____
ROOT
ATOM      1  C   UNL     1       9.910  14.284  20.803  0.00  0.00    +0.000 C 
ATOM      2  O   UNL     1      10.489  15.352  20.735  0.00  0.00    +0.000 OA
ATOM      3  N   UNL     1      10.333  13.168  20.050  0.00  0.00    +0.000 N 
ATOM      4  C   UNL     1      11.599  13.248  19.321  0.00  0.00    +0.000 C 
ATOM      5  C   UNL     1      11.366  13.044  17.831  0.00  0.00    +0.000 C 
ATOM      6  C   UNL     1      10.664  11.717  17.559  0.00  0.00    +0.000 C 
ATOM      7  C   UNL     1       9.366  11.571  18.355  0.00  0.00    +0.000 C 
ATOM      8  C   UNL     1       9.565  11.936  19.830  0.00  0.00    +0.000 C 
ENDROOT
BRANCH   1  14
ATOM      9  C   UNL     1       6.811  14.953  20.266  0.00  0.00    +0.000 C 
ATOM     10  N   UNL     1       7.436  14.385  21.435  0.00  0.00    +0.000 N 
ATOM     11  N   UNL     1       6.611  14.004  22.435  0.00  0.00    +0.000 NA
ATOM     12  C   UNL     1       7.407  13.504  23.376  0.00  0.00    +0.000 A 
ATOM     13  C   UNL     1       8.748  13.597  22.976  0.00  0.00    +0.000 A 
ATOM     14  C   UNL     1       8.763  14.092  21.684  0.00  0.00    +0.000 A 
BRANCH  12  15
ATOM     15  C   UNL     1       6.831  12.916  24.650  0.00  0.00    +0.000 C 
ATOM     16  C   UNL     1       5.718  13.834  25.198  0.00  0.00    +0.000 C 
ATOM     17  C   UNL     1       6.225  11.517  24.400  0.00  0.00    +0.000 C 
ATOM     18  C   UNL     1       7.928  12.779  25.718  0.00  0.00    +0.000 C 
ENDBRANCH  12  15
ENDBRANCH   1  14
BRANCH   7  19
ATOM     19  C   UNL     1       8.842  10.176  18.253  0.00  0.00    +0.000 A 
ATOM     20  C   UNL     1       8.022   9.521  17.367  0.00  0.00    +0.000 A 
ATOM     21  C   UNL     1       7.952   8.184  17.853  0.00  0.00    +0.000 A 
ATOM     22  N   UNL     1       8.660   8.062  18.990  0.00  0.00    +0.000 NA
ATOM     23  O   UNL     1       9.222   9.303  19.225  0.00  0.00    +0.000 OA
BRANCH  21  24
ATOM     24  C   UNL     1       7.232   7.057  17.260  0.00  0.00    +0.000 C 
ATOM     25  O   UNL     1       6.300   7.222  16.476  0.00  0.00    +0.000 OA
ATOM     26  N   UNL     1       7.647   5.814  17.685  0.00  0.00    +0.000 N 
ATOM     27  H   UNL     1       8.421   5.760  18.336  0.00  0.00    +0.000 HD
BRANCH  26  28
ATOM     28  C   UNL     1       7.059   4.589  17.194  0.00  0.00    +0.000 C 
BRANCH  28  29
ATOM     29  C   UNL     1       5.649   4.446  17.701  0.00  0.00    +0.000 A 
ATOM     30  C   UNL     1       5.356   4.586  19.065  0.00  0.00    +0.000 A 
ATOM     31  C   UNL     1       4.063   4.353  19.539  0.00  0.00    +0.000 A 
ATOM     32  C   UNL     1       3.052   3.978  18.655  0.00  0.00    +0.000 A 
ATOM     33  C   UNL     1       3.326   3.858  17.294  0.00  0.00    +0.000 A 
ATOM     34  C   UNL     1       4.617   4.092  16.819  0.00  0.00    +0.000 A 
ENDBRANCH  28  29
ENDBRANCH  26  28
ENDBRANCH  21  24
ENDBRANCH   7  19
TORSDOF 6
ENDMDL
MODEL 4
REMARK VINA RESULT:      -7.9      0.908      1.432
REMARK  Name = 
REMARK  10 active torsions:
REMARK  status: ('A' for Active; 'I' for Inactive)
REMARK    1  A    between atoms: C_1  and  N_2
REMARK    2  A    between atoms: C_4  and  C_5
REMARK    3  A    between atoms: C_5  and  C_6
REMARK    4  A    between atoms: C_5  and  C_7
REMARK    5  A    between atoms: C_5  and  C_8
REMARK    6  A    between atoms: C_10  and  C_11
REMARK    7  A    between atoms: C_17  and  C_18
REMARK    8  A    between atoms: C_20  and  C_21
REMARK    9  A    between atoms: N_23  and  C_24
REMARK   10  A    between atoms: C_24  and  C_25
REMARK                            x       y       z     vdW  Elec       q    Type
REMARK                         _______ _______ _______ _____ _____    ______ ____
ROOT
ATOM      1  C   UNL     1      -2.628  14.629  20.875  0.00  0.00    +0.000 C 
ATOM      2  O   UNL     1      -2.829  15.829  20.839  0.00  0.00    +0.000 OA
ATOM      3  N   UNL     1      -1.321  14.101  20.837  0.00  0.00    +0.000 N 
ATOM      4  C   UNL     1      -0.185  15.017  20.944  0.00  0.00    +0.000 C 
ATOM      5  C   UNL     1       0.695  14.917  19.706  0.00  0.00    +0.000 C 
ATOM      6  C   UNL     1       1.170  13.485  19.482  0.00  0.00    +0.000 C 
ATOM      7  C   UNL     1       0.012  12.489  19.428  0.00  0.00    +0.000 C 
ATOM      8  C   UNL     1      -0.966  12.697  20.590  0.00  0.00    +0.000 C 
ENDROOT
BRANCH   1  14
ATOM      9  C   UNL     1      -3.558  12.896  23.419  0.00  0.00    +0.000 C 
ATOM     10  N   UNL     1      -4.112  12.939  22.087  0.00  0.00    +0.000 N 
ATOM     11  N   UNL     1      -5.227  12.207  21.875  0.00  0.00    +0.000 NA
ATOM     12  C   UNL     1      -5.549  12.419  20.602  0.00  0.00    +0.000 A 
ATOM     13  C   UNL     1      -4.611  13.271  20.000  0.00  0.00    +0.000 A 
ATOM     14  C   UNL     1      -3.726  13.675  20.984  0.00  0.00    +0.000 A 
BRANCH  12  15
ATOM     15  C   UNL     1      -6.796  11.799  20.001  0.00  0.00    +0.000 C 
ATOM     16  C   UNL     1      -7.554  12.847  19.160  0.00  0.00    +0.000 C 
ATOM     17  C   UNL     1      -6.445  10.605  19.085  0.00  0.00    +0.000 C 
ATOM     18  C   UNL     1      -7.728  11.291  21.113  0.00  0.00    +0.000 C 
ENDBRANCH  12  15
ENDBRANCH   1  14
BRANCH   7  19
ATOM     19  C   UNL     1       0.525  11.085  19.454  0.00  0.00    +0.000 A 
ATOM     20  C   UNL     1       1.376  10.361  18.657  0.00  0.00    +0.000 A 
ATOM     21  C   UNL     1       1.450   9.079  19.274  0.00  0.00    +0.000 A 
ATOM     22  N   UNL     1       0.653   9.032  20.356  0.00  0.00    +0.000 NA
ATOM     23  O   UNL     1       0.091  10.290  20.470  0.00  0.00    +0.000 OA
BRANCH  21  24
ATOM     24  C   UNL     1       2.249   7.929  18.847  0.00  0.00    +0.000 C 
ATOM     25  O   UNL     1       2.537   7.740  17.668  0.00  0.00    +0.000 OA
ATOM     26  N   UNL     1       2.606   7.063  19.856  0.00  0.00    +0.000 N 
ATOM     27  H   UNL     1       2.328   7.286  20.805  0.00  0.00    +0.000 HD
BRANCH  26  28
ATOM     28  C   UNL     1       3.407   5.883  19.621  0.00  0.00    +0.000 C 
BRANCH  28  29
ATOM     29  C   UNL     1       2.522   4.681  19.429  0.00  0.00    +0.000 A 
ATOM     30  C   UNL     1       2.654   3.861  18.299  0.00  0.00    +0.000 A 
ATOM     31  C   UNL     1       1.764   2.807  18.081  0.00  0.00    +0.000 A 
ATOM     32  C   UNL     1       0.735   2.563  18.990  0.00  0.00    +0.000 A 
ATOM     33  C   UNL     1       0.608   3.356  20.128  0.00  0.00    +0.000 A 
ATOM     34  C   UNL     1       1.497   4.408  20.348  0.00  0.00    +0.000 A 
ENDBRANCH  28  29
ENDBRANCH  26  28
ENDBRANCH  21  24
ENDBRANCH   7  19
TORSDOF 6
ENDMDL
MODEL 5
REMARK VINA RESULT:      -7.7      6.553      9.093
REMARK  Name = 
REMARK  10 active torsions:
REMARK  status: ('A' for Active; 'I' for Inactive)
REMARK    1  A    between atoms: C_1  and  N_2
REMARK    2  A    between atoms: C_4  and  C_5
REMARK    3  A    between atoms: C_5  and  C_6
REMARK    4  A    between atoms: C_5  and  C_7
REMARK    5  A    between atoms: C_5  and  C_8
REMARK    6  A    between atoms: C_10  and  C_11
REMARK    7  A    between atoms: C_17  and  C_18
REMARK    8  A    between atoms: C_20  and  C_21
REMARK    9  A    between atoms: N_23  and  C_24
REMARK   10  A    between atoms: C_24  and  C_25
REMARK                            x       y       z     vdW  Elec       q    Type
REMARK                         _______ _______ _______ _____ _____    ______ ____
ROOT
ATOM      1  C   UNL     1       8.490  15.446  19.260  0.00  0.00    +0.000 C 
ATOM      2  O   UNL     1       8.982  16.540  19.051  0.00  0.00    +0.000 OA
ATOM      3  N   UNL     1       9.261  14.267  19.190  0.00  0.00    +0.000 N 
ATOM      4  C   UNL     1      10.712  14.380  19.047  0.00  0.00    +0.000 C 
ATOM      5  C   UNL     1      11.174  13.698  17.767  0.00  0.00    +0.000 C 
ATOM      6  C   UNL     1      10.736  12.237  17.732  0.00  0.00    +0.000 C 
ATOM      7  C   UNL     1       9.229  12.076  17.942  0.00  0.00    +0.000 C 
ATOM      8  C   UNL     1       8.736  12.896  19.138  0.00  0.00    +0.000 C 
ENDROOT
BRANCH   1  14
ATOM      9  C   UNL     1       7.177  14.953  22.154  0.00  0.00    +0.000 C 
ATOM     10  N   UNL     1       6.537  15.087  20.868  0.00  0.00    +0.000 N 
ATOM     11  N   UNL     1       5.186  15.080  20.864  0.00  0.00    +0.000 NA
ATOM     12  C   UNL     1       4.837  15.233  19.589  0.00  0.00    +0.000 A 
ATOM     13  C   UNL     1       5.981  15.309  18.780  0.00  0.00    +0.000 A 
ATOM     14  C   UNL     1       7.083  15.298  19.617  0.00  0.00    +0.000 A 
BRANCH  12  15
ATOM     15  C   UNL     1       3.378  15.328  19.188  0.00  0.00    +0.000 C 
ATOM     16  C   UNL     1       2.564  14.221  19.891  0.00  0.00    +0.000 C 
ATOM     17  C   UNL     1       2.774  16.695  19.580  0.00  0.00    +0.000 C 
ATOM     18  C   UNL     1       3.231  15.158  17.668  0.00  0.00    +0.000 C 
ENDBRANCH  12  15
ENDBRANCH   1  14
BRANCH   7  19
ATOM     19  C   UNL     1       8.879  10.637  18.145  0.00  0.00    +0.000 A 
ATOM     20  C   UNL     1       8.112   9.730  17.456  0.00  0.00    +0.000 A 
ATOM     21  C   UNL     1       8.229   8.518  18.196  0.00  0.00    +0.000 A 
ATOM     22  N   UNL     1       8.991   8.707  19.288  0.00  0.00    +0.000 NA
ATOM     23  O   UNL     1       9.404  10.026  19.242  0.00  0.00    +0.000 OA
BRANCH  21  24
ATOM     24  C   UNL     1       7.631   7.220  17.879  0.00  0.00    +0.000 C 
ATOM     25  O   UNL     1       7.892   6.210  18.527  0.00  0.00    +0.000 OA
ATOM     26  N   UNL     1       6.800   7.216  16.781  0.00  0.00    +0.000 N 
ATOM     27  H   UNL     1       6.636   8.091  16.296  0.00  0.00    +0.000 HD
BRANCH  26  28
ATOM     28  C   UNL     1       6.112   6.027  16.332  0.00  0.00    +0.000 C 
BRANCH  28  29
ATOM     29  C   UNL     1       4.786   5.895  17.032  0.00  0.00    +0.000 A 
ATOM     30  C   UNL     1       4.164   4.646  17.167  0.00  0.00    +0.000 A 
ATOM     31  C   UNL     1       2.889   4.548  17.729  0.00  0.00    +0.000 A 
ATOM     32  C   UNL     1       2.225   5.696  18.161  0.00  0.00    +0.000 A 
ATOM     33  C   UNL     1       2.843   6.939  18.053  0.00  0.00    +0.000 A 
ATOM     34  C   UNL     1       4.118   7.039  17.493  0.00  0.00    +0.000 A 
ENDBRANCH  28  29
ENDBRANCH  26  28
ENDBRANCH  21  24
ENDBRANCH   7  19
TORSDOF 6
ENDMDL
MODEL 6
REMARK VINA RESULT:      -7.6      2.141      2.925
REMARK  Name = 
REMARK  10 active torsions:
REMARK  status: ('A' for Active; 'I' for Inactive)
REMARK    1  A    between atoms: C_1  and  N_2
REMARK    2  A    between atoms: C_4  and  C_5
REMARK    3  A    between atoms: C_5  and  C_6
REMARK    4  A    between atoms: C_5  and  C_7
REMARK    5  A    between atoms: C_5  and  C_8
REMARK    6  A    between atoms: C_10  and  C_11
REMARK    7  A    between atoms: C_17  and  C_18
REMARK    8  A    between atoms: C_20  and  C_21
REMARK    9  A    between atoms: N_23  and  C_24
REMARK   10  A    between atoms: C_24  and  C_25
REMARK                            x       y       z     vdW  Elec       q    Type
REMARK                         _______ _______ _______ _____ _____    ______ ____
ROOT
ATOM      1  C   UNL     1      -2.347  14.230  21.393  0.00  0.00    +0.000 C 
ATOM      2  O   UNL     1      -2.408  15.444  21.334  0.00  0.00    +0.000 OA
ATOM      3  N   UNL     1      -1.112  13.562  21.536  0.00  0.00    +0.000 N 
ATOM      4  C   UNL     1       0.091  14.351  21.803  0.00  0.00    +0.000 C 
ATOM      5  C   UNL     1       1.118  14.142  20.699  0.00  0.00    +0.000 C 
ATOM      6  C   UNL     1       1.461  12.664  20.539  0.00  0.00    +0.000 C 
ATOM      7  C   UNL     1       0.219  11.798  20.321  0.00  0.00    +0.000 C 
ATOM      8  C   UNL     1      -0.882  12.126  21.336  0.00  0.00    +0.000 C 
ENDROOT
BRANCH   1  14
ATOM      9  C   UNL     1      -3.827  12.671  23.784  0.00  0.00    +0.000 C 
ATOM     10  N   UNL     1      -4.170  12.740  22.384  0.00  0.00    +0.000 N 
ATOM     11  N   UNL     1      -5.315  12.127  22.013  0.00  0.00    +0.000 NA
ATOM     12  C   UNL     1      -5.420  12.340  20.705  0.00  0.00    +0.000 A 
ATOM     13  C   UNL     1      -4.316  13.071  20.243  0.00  0.00    +0.000 A 
ATOM     14  C   UNL     1      -3.546  13.402  21.345  0.00  0.00    +0.000 A 
BRANCH  12  15
ATOM     15  C   UNL     1      -6.624  11.842  19.930  0.00  0.00    +0.000 C 
ATOM     16  C   UNL     1      -6.173  10.865  18.823  0.00  0.00    +0.000 C 
ATOM     17  C   UNL     1      -7.620  11.102  20.851  0.00  0.00    +0.000 C 
ATOM     18  C   UNL     1      -7.363  13.021  19.276  0.00  0.00    +0.000 C 
ENDBRANCH  12  15
ENDBRANCH   1  14
BRANCH   7  19
ATOM     19  C   UNL     1       0.567  10.348  20.414  0.00  0.00    +0.000 A 
ATOM     20  C   UNL     1       1.307   9.488  19.640  0.00  0.00    +0.000 A 
ATOM     21  C   UNL     1       1.249   8.240  20.325  0.00  0.00    +0.000 A 
ATOM     22  N   UNL     1       0.481   8.344  21.425  0.00  0.00    +0.000 NA
ATOM     23  O   UNL     1       0.072   9.663  21.481  0.00  0.00    +0.000 OA
BRANCH  21  24
ATOM     24  C   UNL     1       1.898   6.984  19.945  0.00  0.00    +0.000 C 
ATOM     25  O   UNL     1       1.922   6.013  20.697  0.00  0.00    +0.000 OA
ATOM     26  N   UNL     1       2.513   6.998  18.713  0.00  0.00    +0.000 N 
ATOM     27  H   UNL     1       2.452   7.839  18.152  0.00  0.00    +0.000 HD
BRANCH  26  28
ATOM     28  C   UNL     1       3.189   5.842  18.170  0.00  0.00    +0.000 C 
BRANCH  28  29
ATOM     29  C   UNL     1       4.681   6.042  18.213  0.00  0.00    +0.000 A 
ATOM     30  C   UNL     1       5.323   6.876  17.287  0.00  0.00    +0.000 A 
ATOM     31  C   UNL     1       6.717   6.976  17.272  0.00  0.00    +0.000 A 
ATOM     32  C   UNL     1       7.479   6.245  18.182  0.00  0.00    +0.000 A 
ATOM     33  C   UNL     1       6.851   5.432  19.122  0.00  0.00    +0.000 A 
ATOM     34  C   UNL     1       5.459   5.331  19.139  0.00  0.00    +0.000 A 
ENDBRANCH  28  29
ENDBRANCH  26  28
ENDBRANCH  21  24
ENDBRANCH   7  19
TORSDOF 6
ENDMDL
MODEL 7
REMARK VINA RESULT:      -7.4      6.715      9.244
REMARK  Name = 
REMARK  10 active torsions:
REMARK  status: ('A' for Active; 'I' for Inactive)
REMARK    1  A    between atoms: C_1  and  N_2
REMARK    2  A    between atoms: C_4  and  C_5
REMARK    3  A    between atoms: C_5  and  C_6
REMARK    4  A    between atoms: C_5  and  C_7
REMARK    5  A    between atoms: C_5  and  C_8
REMARK    6  A    between atoms: C_10  and  C_11
REMARK    7  A    between atoms: C_17  and  C_18
REMARK    8  A    between atoms: C_20  and  C_21
REMARK    9  A    between atoms: N_23  and  C_24
REMARK   10  A    between atoms: C_24  and  C_25
REMARK                            x       y       z     vdW  Elec       q    Type
REMARK                         _______ _______ _______ _____ _____    ______ ____
ROOT
ATOM      1  C   UNL     1       8.970  14.646  20.151  0.00  0.00    +0.000 C 
ATOM      2  O   UNL     1       9.649  15.654  20.223  0.00  0.00    +0.000 OA
ATOM      3  N   UNL     1       9.559  13.371  20.014  0.00  0.00    +0.000 N 
ATOM      4  C   UNL     1      11.010  13.245  20.148  0.00  0.00    +0.000 C 
ATOM      5  C   UNL     1      11.614  12.680  18.870  0.00  0.00    +0.000 C 
ATOM      6  C   UNL     1      10.982  11.340  18.508  0.00  0.00    +0.000 C 
ATOM      7  C   UNL     1       9.457  11.419  18.420  0.00  0.00    +0.000 C 
ATOM      8  C   UNL     1       8.859  12.136  19.636  0.00  0.00    +0.000 C 
ENDROOT
BRANCH   1  14
ATOM      9  C   UNL     1       7.051  14.056  22.662  0.00  0.00    +0.000 C 
ATOM     10  N   UNL     1       6.706  14.443  21.316  0.00  0.00    +0.000 N 
ATOM     11  N   UNL     1       5.396  14.666  21.070  0.00  0.00    +0.000 NA
ATOM     12  C   UNL     1       5.334  15.020  19.789  0.00  0.00    +0.000 A 
ATOM     13  C   UNL     1       6.614  14.993  19.217  0.00  0.00    +0.000 A 
ATOM     14  C   UNL     1       7.514  14.699  20.226  0.00  0.00    +0.000 A 
BRANCH  12  15
ATOM     15  C   UNL     1       4.013  15.407  19.153  0.00  0.00    +0.000 C 
ATOM     16  C   UNL     1       2.922  14.386  19.538  0.00  0.00    +0.000 C 
ATOM     17  C   UNL     1       3.552  16.806  19.618  0.00  0.00    +0.000 C 
ATOM     18  C   UNL     1       4.146  15.431  17.622  0.00  0.00    +0.000 C 
ENDBRANCH  12  15
ENDBRANCH   1  14
BRANCH   7  19
ATOM     19  C   UNL     1       8.867  10.051  18.308  0.00  0.00    +0.000 A 
ATOM     20  C   UNL     1       7.977   9.457  17.447  0.00  0.00    +0.000 A 
ATOM     21  C   UNL     1       7.871   8.112  17.903  0.00  0.00    +0.000 A 
ATOM     22  N   UNL     1       8.625   7.927  19.001  0.00  0.00    +0.000 NA
ATOM     23  O   UNL     1       9.254   9.136  19.239  0.00  0.00    +0.000 OA
BRANCH  21  24
ATOM     24  C   UNL     1       7.073   7.033  17.317  0.00  0.00    +0.000 C 
ATOM     25  O   UNL     1       6.442   7.186  16.274  0.00  0.00    +0.000 OA
ATOM     26  N   UNL     1       7.049   5.866  18.048  0.00  0.00    +0.000 N 
ATOM     27  H   UNL     1       7.594   5.819  18.901  0.00  0.00    +0.000 HD
BRANCH  26  28
ATOM     28  C   UNL     1       6.325   4.693  17.614  0.00  0.00    +0.000 C 
BRANCH  28  29
ATOM     29  C   UNL     1       4.895   4.760  18.079  0.00  0.00    +0.000 A 
ATOM     30  C   UNL     1       3.864   4.180  17.326  0.00  0.00    +0.000 A 
ATOM     31  C   UNL     1       2.531   4.334  17.715  0.00  0.00    +0.000 A 
ATOM     32  C   UNL     1       2.217   5.067  18.858  0.00  0.00    +0.000 A 
ATOM     33  C   UNL     1       3.234   5.628  19.627  0.00  0.00    +0.000 A 
ATOM     34  C   UNL     1       4.567   5.475  19.241  0.00  0.00    +0.000 A 
ENDBRANCH  28  29
ENDBRANCH  26  28
ENDBRANCH  21  24
ENDBRANCH   7  19
TORSDOF 6
ENDMDL
MODEL 8
REMARK VINA RESULT:      -7.4      6.805      9.184
REMARK  Name = 
REMARK  10 active torsions:
REMARK  status: ('A' for Active; 'I' for Inactive)
REMARK    1  A    between atoms: C_1  and  N_2
REMARK    2  A    between atoms: C_4  and  C_5
REMARK    3  A    between atoms: C_5  and  C_6
REMARK    4  A    between atoms: C_5  and  C_7
REMARK    5  A    between atoms: C_5  and  C_8
REMARK    6  A    between atoms: C_10  and  C_11
REMARK    7  A    between atoms: C_17  and  C_18
REMARK    8  A    between atoms: C_20  and  C_21
REMARK    9  A    between atoms: N_23  and  C_24
REMARK   10  A    between atoms: C_24  and  C_25
REMARK                            x       y       z     vdW  Elec       q    Type
REMARK                         _______ _______ _______ _____ _____    ______ ____
ROOT
ATOM      1  C   UNL     1       8.760  15.304  19.283  0.00  0.00    +0.000 C 
ATOM      2  O   UNL     1       9.339  16.366  19.141  0.00  0.00    +0.000 OA
ATOM      3  N   UNL     1       9.451  14.076  19.217  0.00  0.00    +0.000 N 
ATOM      4  C   UNL     1      10.913  14.090  19.163  0.00  0.00    +0.000 C 
ATOM      5  C   UNL     1      11.404  13.416  17.889  0.00  0.00    +0.000 C 
ATOM      6  C   UNL     1      10.869  11.992  17.778  0.00  0.00    +0.000 C 
ATOM      7  C   UNL     1       9.345  11.932  17.894  0.00  0.00    +0.000 C 
ATOM      8  C   UNL     1       8.837  12.748  19.087  0.00  0.00    +0.000 C 
ENDROOT
BRANCH   1  14
ATOM      9  C   UNL     1       7.231  15.275  22.112  0.00  0.00    +0.000 C 
ATOM     10  N   UNL     1       6.688  15.234  20.776  0.00  0.00    +0.000 N 
ATOM     11  N   UNL     1       5.342  15.260  20.672  0.00  0.00    +0.000 NA
ATOM     12  C   UNL     1       5.089  15.232  19.367  0.00  0.00    +0.000 A 
ATOM     13  C   UNL     1       6.288  15.160  18.642  0.00  0.00    +0.000 A 
ATOM     14  C   UNL     1       7.328  15.245  19.552  0.00  0.00    +0.000 A 
BRANCH  12  15
ATOM     15  C   UNL     1       3.666  15.303  18.848  0.00  0.00    +0.000 C 
ATOM     16  C   UNL     1       3.649  15.930  17.437  0.00  0.00    +0.000 C 
ATOM     17  C   UNL     1       3.027  13.899  18.762  0.00  0.00    +0.000 C 
ATOM     18  C   UNL     1       2.801  16.166  19.781  0.00  0.00    +0.000 C 
ENDBRANCH  12  15
ENDBRANCH   1  14
BRANCH   7  19
ATOM     19  C   UNL     1       8.885  10.516  18.026  0.00  0.00    +0.000 A 
ATOM     20  C   UNL     1       8.148   9.669  17.236  0.00  0.00    +0.000 A 
ATOM     21  C   UNL     1       8.103   8.443  17.959  0.00  0.00    +0.000 A 
ATOM     22  N   UNL     1       8.743   8.567  19.135  0.00  0.00    +0.000 NA
ATOM     23  O   UNL     1       9.240   9.858  19.163  0.00  0.00    +0.000 OA
BRANCH  21  24
ATOM     24  C   UNL     1       7.466   7.190  17.550  0.00  0.00    +0.000 C 
ATOM     25  O   UNL     1       6.783   7.111  16.531  0.00  0.00    +0.000 OA
ATOM     26  N   UNL     1       7.652   6.134  18.414  0.00  0.00    +0.000 N 
ATOM     27  H   UNL     1       8.226   6.279  19.236  0.00  0.00    +0.000 HD
BRANCH  26  28
ATOM     28  C   UNL     1       7.109   4.819  18.162  0.00  0.00    +0.000 C 
BRANCH  28  29
ATOM     29  C   UNL     1       5.608   4.844  18.275  0.00  0.00    +0.000 A 
ATOM     30  C   UNL     1       4.979   5.358  19.418  0.00  0.00    +0.000 A 
ATOM     31  C   UNL     1       3.591   5.285  19.555  0.00  0.00    +0.000 A 
ATOM     32  C   UNL     1       2.819   4.698  18.552  0.00  0.00    +0.000 A 
ATOM     33  C   UNL     1       3.431   4.205  17.402  0.00  0.00    +0.000 A 
ATOM     34  C   UNL     1       4.817   4.278  17.263  0.00  0.00    +0.000 A 
ENDBRANCH  28  29
ENDBRANCH  26  28
ENDBRANCH  21  24
ENDBRANCH   7  19
TORSDOF 6
ENDMDL
MODEL 9
REMARK VINA RESULT:      -7.4      3.644      6.583
REMARK  Name = 
REMARK  10 active torsions:
REMARK  status: ('A' for Active; 'I' for Inactive)
REMARK    1  A    between atoms: C_1  and  N_2
REMARK    2  A    between atoms: C_4  and  C_5
REMARK    3  A    between atoms: C_5  and  C_6
REMARK    4  A    between atoms: C_5  and  C_7
REMARK    5  A    between atoms: C_5  and  C_8
REMARK    6  A    between atoms: C_10  and  C_11
REMARK    7  A    between atoms: C_17  and  C_18
REMARK    8  A    between atoms: C_20  and  C_21
REMARK    9  A    between atoms: N_23  and  C_24
REMARK   10  A    between atoms: C_24  and  C_25
REMARK                            x       y       z     vdW  Elec       q    Type
REMARK                         _______ _______ _______ _____ _____    ______ ____
ROOT
ATOM      1  C   UNL     1       0.064  13.368  21.596  0.00  0.00    +0.000 C 
ATOM      2  O   UNL     1      -0.482  14.111  22.392  0.00  0.00    +0.000 OA
ATOM      3  N   UNL     1      -0.275  12.001  21.513  0.00  0.00    +0.000 N 
ATOM      4  C   UNL     1      -1.431  11.514  22.265  0.00  0.00    +0.000 C 
ATOM      5  C   UNL     1      -1.006  10.433  23.250  0.00  0.00    +0.000 C 
ATOM      6  C   UNL     1      -0.297   9.286  22.536  0.00  0.00    +0.000 C 
ATOM      7  C   UNL     1       0.881   9.767  21.687  0.00  0.00    +0.000 C 
ATOM      8  C   UNL     1       0.494  10.964  20.812  0.00  0.00    +0.000 C 
ENDROOT
BRANCH   1  14
ATOM      9  C   UNL     1      -0.141  13.824  18.420  0.00  0.00    +0.000 C 
ATOM     10  N   UNL     1       0.974  14.047  19.307  0.00  0.00    +0.000 N 
ATOM     11  N   UNL     1       2.081  14.594  18.759  0.00  0.00    +0.000 NA
ATOM     12  C   UNL     1       2.947  14.715  19.761  0.00  0.00    +0.000 A 
ATOM     13  C   UNL     1       2.389  14.213  20.946  0.00  0.00    +0.000 A 
ATOM     14  C   UNL     1       1.081  13.856  20.671  0.00  0.00    +0.000 A 
BRANCH  12  15
ATOM     15  C   UNL     1       4.306  15.349  19.541  0.00  0.00    +0.000 C 
ATOM     16  C   UNL     1       4.886  14.899  18.183  0.00  0.00    +0.000 C 
ATOM     17  C   UNL     1       4.215  16.892  19.540  0.00  0.00    +0.000 C 
ATOM     18  C   UNL     1       5.278  14.928  20.655  0.00  0.00    +0.000 C 
ENDBRANCH  12  15
ENDBRANCH   1  14
BRANCH   7  19
ATOM     19  C   UNL     1       1.389   8.660  20.821  0.00  0.00    +0.000 A 
ATOM     20  C   UNL     1       1.865   8.590  19.535  0.00  0.00    +0.000 A 
ATOM     21  C   UNL     1       2.204   7.219  19.346  0.00  0.00    +0.000 A 
ATOM     22  N   UNL     1       1.906   6.506  20.447  0.00  0.00    +0.000 NA
ATOM     23  O   UNL     1       1.412   7.413  21.366  0.00  0.00    +0.000 OA
BRANCH  21  24
ATOM     24  C   UNL     1       2.788   6.602  18.154  0.00  0.00    +0.000 C 
ATOM     25  O   UNL     1       2.468   5.476  17.783  0.00  0.00    +0.000 OA
ATOM     26  N   UNL     1       3.748   7.359  17.520  0.00  0.00    +0.000 N 
ATOM     27  H   UNL     1       3.959   8.279  17.888  0.00  0.00    +0.000 HD
BRANCH  26  28
ATOM     28  C   UNL     1       4.419   6.915  16.320  0.00  0.00    +0.000 C 
BRANCH  28  29
ATOM     29  C   UNL     1       5.641   6.110  16.673  0.00  0.00    +0.000 A 
ATOM     30  C   UNL     1       6.004   4.983  15.921  0.00  0.00    +0.000 A 
ATOM     31  C   UNL     1       7.081   4.186  16.316  0.00  0.00    +0.000 A 
ATOM     32  C   UNL     1       7.804   4.507  17.465  0.00  0.00    +0.000 A 
ATOM     33  C   UNL     1       7.467   5.637  18.206  0.00  0.00    +0.000 A 
ATOM     34  C   UNL     1       6.392   6.435  17.812  0.00  0.00    +0.000 A 
ENDBRANCH  28  29
ENDBRANCH  26  28
ENDBRANCH  21  24
ENDBRANCH   7  19
TORSDOF 6
ENDMDL
