MODEL 1
REMARK VINA RESULT:      -8.9      0.000      0.000
REMARK  Name = 
REMARK  10 active torsions:
REMARK  status: ('A' for Active; 'I' for Inactive)
REMARK    1  A    between atoms: C_1  and  O_2
REMARK    2  A    between atoms: O_2  and  C_3
REMARK    3  A    between atoms: C_6  and  N_7
REMARK    4  A    between atoms: C_8  and  C_10
REMARK    5  A    between atoms: C_10  and  C_11
REMARK    6  A    between atoms: N_14  and  C_15
REMARK    7  A    between atoms: C_15  and  C_16
REMARK    8  A    between atoms: C_23  and  C_24
REMARK    9  A    between atoms: C_27  and  O_28
REMARK   10  A    between atoms: O_28  and  C_29
REMARK                            x       y       z     vdW  Elec       q    Type
REMARK                         _______ _______ _______ _____ _____    ______ ____
ROOT
ATOM      1  C   UNL     1       6.745   6.261  16.818  0.00  0.00    +0.000 C 
ATOM      2  C   UNL     1       6.608   5.059  17.733  0.00  0.00    +0.000 C 
ATOM      3  O   UNL     1       7.537   4.547  18.336  0.00  0.00    +0.000 OA
ATOM      4  N   UNL     1       5.277   4.678  17.747  0.00  0.00    +0.000 N 
ATOM      5  C   UNL     1       4.499   5.378  16.748  0.00  0.00    +0.000 C 
ATOM      6  C   UNL     1       5.558   6.052  15.859  0.00  0.00    +0.000 C 
ENDROOT
BRANCH   6   7
ATOM      7  C   UNL     1       5.994   5.193  14.677  0.00  0.00    +0.000 A 
ATOM      8  C   UNL     1       5.125   4.235  14.139  0.00  0.00    +0.000 A 
ATOM      9  C   UNL     1       5.530   3.445  13.058  0.00  0.00    +0.000 A 
ATOM     10  C   UNL     1       6.786   3.625  12.475  0.00  0.00    +0.000 A 
ATOM     11  C   UNL     1       7.647   4.584  12.993  0.00  0.00    +0.000 A 
ATOM     12  C   UNL     1       7.250   5.361  14.074  0.00  0.00    +0.000 A 
BRANCH  10  13
ATOM     13  O   UNL     1       7.091   2.800  11.429  0.00  0.00    +0.000 OA
ATOM     14  C   UNL     1       6.216   1.684  11.274  0.00  0.00    +0.000 C 
ENDBRANCH  10  13
ENDBRANCH   6   7
BRANCH   1  15
ATOM     15  C   UNL     1       6.593   7.540  17.622  0.00  0.00    +0.000 C 
BRANCH  15  17
ATOM     16  N   UNL     1       7.999   9.552  17.975  0.00  0.00    +0.000 N 
ATOM     17  C   UNL     1       7.866   8.183  18.141  0.00  0.00    +0.000 C 
ATOM     18  O   UNL     1       8.640   7.444  18.744  0.00  0.00    +0.000 OA
ATOM     19  H   UNL     1       7.330  10.051  17.408  0.00  0.00    +0.000 HD
BRANCH  16  23
ATOM     20  C   UNL     1      11.274  11.896  19.297  0.00  0.00    +0.000 A 
ATOM     21  C   UNL     1      10.397  11.346  20.219  0.00  0.00    +0.000 A 
ATOM     22  C   UNL     1       9.334  10.562  19.798  0.00  0.00    +0.000 A 
ATOM     23  C   UNL     1       9.098  10.323  18.439  0.00  0.00    +0.000 A 
ATOM     24  C   UNL     1       9.981  10.881  17.505  0.00  0.00    +0.000 A 
ATOM     25  C   UNL     1      11.063  11.669  17.933  0.00  0.00    +0.000 A 
BRANCH  20  27
ATOM     26  C   UNL     1      12.154  14.052  19.627  0.00  0.00    +0.000 C 
ATOM     27  O   UNL     1      12.281  12.653  19.828  0.00  0.00    +0.000 OA
ENDBRANCH  20  27
ENDBRANCH  16  23
ENDBRANCH  15  17
ENDBRANCH   1  15
BRANCH   4  28
ATOM     28  C   UNL     1       4.763   3.506  18.434  0.00  0.00    +0.000 C 
BRANCH  28  29
ATOM     29  C   UNL     1       3.392   3.688  19.033  0.00  0.00    +0.000 A 
ATOM     30  C   UNL     1       2.318   2.883  18.620  0.00  0.00    +0.000 A 
ATOM     31  C   UNL     1       1.060   3.016  19.213  0.00  0.00    +0.000 A 
ATOM     32  C   UNL     1       0.866   3.936  20.240  0.00  0.00    +0.000 A 
ATOM     33  C   UNL     1       1.928   4.726  20.673  0.00  0.00    +0.000 A 
ATOM     34  C   UNL     1       3.180   4.610  20.068  0.00  0.00    +0.000 A 
ENDBRANCH  28  29
ENDBRANCH   4  28
TORSDOF 8
ENDMDL
MODEL 2
REMARK VINA RESULT:      -8.7      0.159      1.194
REMARK  Name = 
REMARK  10 active torsions:
REMARK  status: ('A' for Active; 'I' for Inactive)
REMARK    1  A    between atoms: C_1  and  O_2
REMARK    2  A    between atoms: O_2  and  C_3
REMARK    3  A    between atoms: C_6  and  N_7
REMARK    4  A    between atoms: C_8  and  C_10
REMARK    5  A    between atoms: C_10  and  C_11
REMARK    6  A    between atoms: N_14  and  C_15
REMARK    7  A    between atoms: C_15  and  C_16
REMARK    8  A    between atoms: C_23  and  C_24
REMARK    9  A    between atoms: C_27  and  O_28
REMARK   10  A    between atoms: O_28  and  C_29
REMARK                            x       y       z     vdW  Elec       q    Type
REMARK                         _______ _______ _______ _____ _____    ______ ____
ROOT
ATOM      1  C   UNL     1       6.750   6.228  16.749  0.00  0.00    +0.000 C 
ATOM      2  C   UNL     1       6.650   5.029  17.673  0.00  0.00    +0.000 C 
ATOM      3  O   UNL     1       7.598   4.537  18.263  0.00  0.00    +0.000 OA
ATOM      4  N   UNL     1       5.327   4.623  17.710  0.00  0.00    +0.000 N 
ATOM      5  C   UNL     1       4.520   5.303  16.720  0.00  0.00    +0.000 C 
ATOM      6  C   UNL     1       5.551   5.991  15.810  0.00  0.00    +0.000 C 
ENDROOT
BRANCH   6   7
ATOM      7  C   UNL     1       5.985   5.133  14.626  0.00  0.00    +0.000 A 
ATOM      8  C   UNL     1       7.297   5.207  14.142  0.00  0.00    +0.000 A 
ATOM      9  C   UNL     1       7.690   4.422  13.053  0.00  0.00    +0.000 A 
ATOM     10  C   UNL     1       6.797   3.528  12.460  0.00  0.00    +0.000 A 
ATOM     11  C   UNL     1       5.499   3.438  12.945  0.00  0.00    +0.000 A 
ATOM     12  C   UNL     1       5.104   4.226  14.020  0.00  0.00    +0.000 A 
BRANCH  10  13
ATOM     13  O   UNL     1       7.274   2.812  11.398  0.00  0.00    +0.000 OA
ATOM     14  C   UNL     1       6.634   1.555  11.190  0.00  0.00    +0.000 C 
ENDBRANCH  10  13
ENDBRANCH   6   7
BRANCH   1  15
ATOM     15  C   UNL     1       6.587   7.508  17.549  0.00  0.00    +0.000 C 
BRANCH  15  17
ATOM     16  N   UNL     1       7.990   9.521  17.908  0.00  0.00    +0.000 N 
ATOM     17  C   UNL     1       7.853   8.154  18.081  0.00  0.00    +0.000 C 
ATOM     18  O   UNL     1       8.618   7.419  18.700  0.00  0.00    +0.000 OA
ATOM     19  H   UNL     1       7.329  10.017  17.327  0.00  0.00    +0.000 HD
BRANCH  16  23
ATOM     20  C   UNL     1      11.241  11.879  19.264  0.00  0.00    +0.000 A 
ATOM     21  C   UNL     1      10.458  11.187  20.175  0.00  0.00    +0.000 A 
ATOM     22  C   UNL     1       9.404  10.397  19.740  0.00  0.00    +0.000 A 
ATOM     23  C   UNL     1       9.084  10.295  18.382  0.00  0.00    +0.000 A 
ATOM     24  C   UNL     1       9.871  10.997  17.460  0.00  0.00    +0.000 A 
ATOM     25  C   UNL     1      10.944  11.790  17.900  0.00  0.00    +0.000 A 
BRANCH  20  27
ATOM     26  C   UNL     1      12.082  14.031  19.700  0.00  0.00    +0.000 C 
ATOM     27  O   UNL     1      12.247  12.627  19.809  0.00  0.00    +0.000 OA
ENDBRANCH  20  27
ENDBRANCH  16  23
ENDBRANCH  15  17
ENDBRANCH   1  15
BRANCH   4  28
ATOM     28  C   UNL     1       4.846   3.446  18.412  0.00  0.00    +0.000 C 
BRANCH  28  29
ATOM     29  C   UNL     1       3.529   3.638  19.119  0.00  0.00    +0.000 A 
ATOM     30  C   UNL     1       3.369   4.661  20.068  0.00  0.00    +0.000 A 
ATOM     31  C   UNL     1       2.133   4.872  20.685  0.00  0.00    +0.000 A 
ATOM     32  C   UNL     1       1.039   4.082  20.344  0.00  0.00    +0.000 A 
ATOM     33  C   UNL     1       1.179   3.077  19.390  0.00  0.00    +0.000 A 
ATOM     34  C   UNL     1       2.418   2.850  18.788  0.00  0.00    +0.000 A 
ENDBRANCH  28  29
ENDBRANCH   4  28
TORSDOF 8
ENDMDL
MODEL 3
REMARK VINA RESULT:      -8.4      7.691     11.150
REMARK  Name = 
REMARK  10 active torsions:
REMARK  status: ('A' for Active; 'I' for Inactive)
REMARK    1  A    between atoms: C_1  and  O_2
REMARK    2  A    between atoms: O_2  and  C_3
REMARK    3  A    between atoms: C_6  and  N_7
REMARK    4  A    between atoms: C_8  and  C_10
REMARK    5  A    between atoms: C_10  and  C_11
REMARK    6  A    between atoms: N_14  and  C_15
REMARK    7  A    between atoms: C_15  and  C_16
REMARK    8  A    between atoms: C_23  and  C_24
REMARK    9  A    between atoms: C_27  and  O_28
REMARK   10  A    between atoms: O_28  and  C_29
REMARK                            x       y       z     vdW  Elec       q    Type
REMARK                         _______ _______ _______ _____ _____    ______ ____
ROOT
ATOM      1  C   UNL     1      -0.032   9.790  19.439  0.00  0.00    +0.000 C 
ATOM      2  C   UNL     1      -0.358   9.655  20.914  0.00  0.00    +0.000 C 
ATOM      3  O   UNL     1      -0.574   8.593  21.474  0.00  0.00    +0.000 OA
ATOM      4  N   UNL     1      -0.359  10.921  21.473  0.00  0.00    +0.000 N 
ATOM      5  C   UNL     1      -0.274  11.961  20.469  0.00  0.00    +0.000 C 
ATOM      6  C   UNL     1      -0.529  11.219  19.146  0.00  0.00    +0.000 C 
ENDROOT
BRANCH   6   7
ATOM      7  C   UNL     1      -2.000  11.182  18.745  0.00  0.00    +0.000 A 
ATOM      8  C   UNL     1      -2.913  12.074  19.321  0.00  0.00    +0.000 A 
ATOM      9  C   UNL     1      -4.263  12.034  18.954  0.00  0.00    +0.000 A 
ATOM     10  C   UNL     1      -4.711  11.136  17.983  0.00  0.00    +0.000 A 
ATOM     11  C   UNL     1      -3.807  10.259  17.396  0.00  0.00    +0.000 A 
ATOM     12  C   UNL     1      -2.469  10.290  17.768  0.00  0.00    +0.000 A 
BRANCH  10  13
ATOM     13  O   UNL     1      -6.048  11.169  17.700  0.00  0.00    +0.000 OA
ATOM     14  C   UNL     1      -6.891  10.682  18.741  0.00  0.00    +0.000 C 
ENDBRANCH  10  13
ENDBRANCH   6   7
BRANCH   1  15
ATOM     15  C   UNL     1       1.466   9.668  19.229  0.00  0.00    +0.000 C 
BRANCH  15  17
ATOM     16  N   UNL     1       2.115   7.402  20.000  0.00  0.00    +0.000 N 
ATOM     17  C   UNL     1       2.010   8.282  18.936  0.00  0.00    +0.000 C 
ATOM     18  O   UNL     1       2.235   8.026  17.755  0.00  0.00    +0.000 OA
ATOM     19  H   UNL     1       1.963   7.738  20.940  0.00  0.00    +0.000 HD
BRANCH  16  23
ATOM     20  C   UNL     1       3.510   3.409  19.713  0.00  0.00    +0.000 A 
ATOM     21  C   UNL     1       2.266   3.672  20.264  0.00  0.00    +0.000 A 
ATOM     22  C   UNL     1       1.792   4.972  20.345  0.00  0.00    +0.000 A 
ATOM     23  C   UNL     1       2.559   6.055  19.900  0.00  0.00    +0.000 A 
ATOM     24  C   UNL     1       3.818   5.793  19.346  0.00  0.00    +0.000 A 
ATOM     25  C   UNL     1       4.294   4.473  19.257  0.00  0.00    +0.000 A 
BRANCH  20  27
ATOM     26  C   UNL     1       3.595   1.410  18.477  0.00  0.00    +0.000 C 
ATOM     27  O   UNL     1       3.872   2.091  19.690  0.00  0.00    +0.000 OA
ENDBRANCH  20  27
ENDBRANCH  16  23
ENDBRANCH  15  17
ENDBRANCH   1  15
BRANCH   4  28
ATOM     28  C   UNL     1      -0.722  11.215  22.848  0.00  0.00    +0.000 C 
BRANCH  28  29
ATOM     29  C   UNL     1      -1.662  12.382  23.009  0.00  0.00    +0.000 A 
ATOM     30  C   UNL     1      -3.051  12.197  22.929  0.00  0.00    +0.000 A 
ATOM     31  C   UNL     1      -3.925  13.269  23.130  0.00  0.00    +0.000 A 
ATOM     32  C   UNL     1      -3.422  14.531  23.437  0.00  0.00    +0.000 A 
ATOM     33  C   UNL     1      -2.047  14.722  23.539  0.00  0.00    +0.000 A 
ATOM     34  C   UNL     1      -1.172  13.658  23.318  0.00  0.00    +0.000 A 
ENDBRANCH  28  29
ENDBRANCH   4  28
TORSDOF 8
ENDMDL
MODEL 4
REMARK VINA RESULT:      -8.3      7.757     11.265
REMARK  Name = 
REMARK  10 active torsions:
REMARK  status: ('A' for Active; 'I' for Inactive)
REMARK    1  A    between atoms: C_1  and  O_2
REMARK    2  A    between atoms: O_2  and  C_3
REMARK    3  A    between atoms: C_6  and  N_7
REMARK    4  A    between atoms: C_8  and  C_10
REMARK    5  A    between atoms: C_10  and  C_11
REMARK    6  A    between atoms: N_14  and  C_15
REMARK    7  A    between atoms: C_15  and  C_16
REMARK    8  A    between atoms: C_23  and  C_24
REMARK    9  A    between atoms: C_27  and  O_28
REMARK   10  A    between atoms: O_28  and  C_29
REMARK                            x       y       z     vdW  Elec       q    Type
REMARK                         _______ _______ _______ _____ _____    ______ ____
ROOT
ATOM      1  C   UNL     1      -0.094   9.915  19.310  0.00  0.00    +0.000 C 
ATOM      2  C   UNL     1      -0.356   9.736  20.793  0.00  0.00    +0.000 C 
ATOM      3  O   UNL     1      -0.562   8.659  21.328  0.00  0.00    +0.000 OA
ATOM      4  N   UNL     1      -0.315  10.983  21.392  0.00  0.00    +0.000 N 
ATOM      5  C   UNL     1      -0.259  12.054  20.418  0.00  0.00    +0.000 C 
ATOM      6  C   UNL     1      -0.583  11.359  19.085  0.00  0.00    +0.000 C 
ENDROOT
BRANCH   6   7
ATOM      7  C   UNL     1      -2.071  11.353  18.749  0.00  0.00    +0.000 A 
ATOM      8  C   UNL     1      -2.574  10.473  17.782  0.00  0.00    +0.000 A 
ATOM      9  C   UNL     1      -3.939  10.474  17.472  0.00  0.00    +0.000 A 
ATOM     10  C   UNL     1      -4.822  11.318  18.147  0.00  0.00    +0.000 A 
ATOM     11  C   UNL     1      -4.332  12.181  19.120  0.00  0.00    +0.000 A 
ATOM     12  C   UNL     1      -2.975  12.190  19.419  0.00  0.00    +0.000 A 
BRANCH  10  13
ATOM     13  O   UNL     1      -6.133  11.250  17.768  0.00  0.00    +0.000 OA
ATOM     14  C   UNL     1      -7.069  11.289  18.844  0.00  0.00    +0.000 C 
ENDBRANCH  10  13
ENDBRANCH   6   7
BRANCH   1  15
ATOM     15  C   UNL     1       1.392   9.780  19.030  0.00  0.00    +0.000 C 
BRANCH  15  17
ATOM     16  N   UNL     1       2.012   7.557  19.936  0.00  0.00    +0.000 N 
ATOM     17  C   UNL     1       1.930   8.376  18.823  0.00  0.00    +0.000 C 
ATOM     18  O   UNL     1       2.170   8.054  17.662  0.00  0.00    +0.000 OA
ATOM     19  H   UNL     1       1.848   7.946  20.853  0.00  0.00    +0.000 HD
BRANCH  16  23
ATOM     20  C   UNL     1       3.235   3.499  19.879  0.00  0.00    +0.000 A 
ATOM     21  C   UNL     1       4.035   4.472  19.302  0.00  0.00    +0.000 A 
ATOM     22  C   UNL     1       3.653   5.805  19.332  0.00  0.00    +0.000 A 
ATOM     23  C   UNL     1       2.447   6.204  19.919  0.00  0.00    +0.000 A 
ATOM     24  C   UNL     1       1.635   5.221  20.499  0.00  0.00    +0.000 A 
ATOM     25  C   UNL     1       2.026   3.871  20.475  0.00  0.00    +0.000 A 
BRANCH  20  27
ATOM     26  C   UNL     1       3.559   1.613  18.512  0.00  0.00    +0.000 C 
ATOM     27  O   UNL     1       3.712   2.220  19.784  0.00  0.00    +0.000 OA
ENDBRANCH  20  27
ENDBRANCH  16  23
ENDBRANCH  15  17
ENDBRANCH   1  15
BRANCH   4  28
ATOM     28  C   UNL     1      -0.612  11.237  22.791  0.00  0.00    +0.000 C 
BRANCH  28  29
ATOM     29  C   UNL     1      -1.582  12.366  23.027  0.00  0.00    +0.000 A 
ATOM     30  C   UNL     1      -1.119  13.674  23.239  0.00  0.00    +0.000 A 
ATOM     31  C   UNL     1      -2.019  14.730  23.406  0.00  0.00    +0.000 A 
ATOM     32  C   UNL     1      -3.390  14.495  23.337  0.00  0.00    +0.000 A 
ATOM     33  C   UNL     1      -3.862  13.205  23.106  0.00  0.00    +0.000 A 
ATOM     34  C   UNL     1      -2.965  12.146  22.961  0.00  0.00    +0.000 A 
ENDBRANCH  28  29
ENDBRANCH   4  28
TORSDOF 8
ENDMDL
MODEL 5
REMARK VINA RESULT:      -8.2      7.266     10.338
REMARK  Name = 
REMARK  10 active torsions:
REMARK  status: ('A' for Active; 'I' for Inactive)
REMARK    1  A    between atoms: C_1  and  O_2
REMARK    2  A    between atoms: O_2  and  C_3
REMARK    3  A    between atoms: C_6  and  N_7
REMARK    4  A    between atoms: C_8  and  C_10
REMARK    5  A    between atoms: C_10  and  C_11
REMARK    6  A    between atoms: N_14  and  C_15
REMARK    7  A    between atoms: C_15  and  C_16
REMARK    8  A    between atoms: C_23  and  C_24
REMARK    9  A    between atoms: C_27  and  O_28
REMARK   10  A    between atoms: O_28  and  C_29
REMARK                            x       y       z     vdW  Elec       q    Type
REMARK                         _______ _______ _______ _____ _____    ______ ____
ROOT
ATOM      1  C   UNL     1       0.289   8.983  19.910  0.00  0.00    +0.000 C 
ATOM      2  C   UNL     1      -0.317   9.077  21.298  0.00  0.00    +0.000 C 
ATOM      3  O   UNL     1      -0.894   8.159  21.857  0.00  0.00    +0.000 OA
ATOM      4  N   UNL     1      -0.093  10.355  21.780  0.00  0.00    +0.000 N 
ATOM      5  C   UNL     1       0.432  11.238  20.761  0.00  0.00    +0.000 C 
ATOM      6  C   UNL     1       0.234  10.454  19.453  0.00  0.00    +0.000 C 
ENDROOT
BRANCH   6   7
ATOM      7  C   UNL     1      -1.102  10.734  18.773  0.00  0.00    +0.000 A 
ATOM      8  C   UNL     1      -1.485  10.005  17.639  0.00  0.00    +0.000 A 
ATOM      9  C   UNL     1      -2.710  10.268  17.015  0.00  0.00    +0.000 A 
ATOM     10  C   UNL     1      -3.582  11.227  17.534  0.00  0.00    +0.000 A 
ATOM     11  C   UNL     1      -3.216  11.941  18.667  0.00  0.00    +0.000 A 
ATOM     12  C   UNL     1      -1.995  11.689  19.281  0.00  0.00    +0.000 A 
BRANCH  10  13
ATOM     13  O   UNL     1      -4.750  11.415  16.848  0.00  0.00    +0.000 OA
ATOM     14  C   UNL     1      -5.918  11.473  17.664  0.00  0.00    +0.000 C 
ENDBRANCH  10  13
ENDBRANCH   6   7
BRANCH   1  15
ATOM     15  C   UNL     1       1.718   8.482  20.005  0.00  0.00    +0.000 C 
BRANCH  15  17
ATOM     16  N   UNL     1       3.231   6.827  18.946  0.00  0.00    +0.000 N 
ATOM     17  C   UNL     1       2.310   7.844  18.762  0.00  0.00    +0.000 C 
ATOM     18  O   UNL     1       1.856   8.229  17.687  0.00  0.00    +0.000 OA
ATOM     19  H   UNL     1       3.580   6.635  19.874  0.00  0.00    +0.000 HD
BRANCH  16  23
ATOM     20  C   UNL     1       5.134   4.676  15.828  0.00  0.00    +0.000 A 
ATOM     21  C   UNL     1       4.295   4.018  16.713  0.00  0.00    +0.000 A 
ATOM     22  C   UNL     1       3.652   4.716  17.725  0.00  0.00    +0.000 A 
ATOM     23  C   UNL     1       3.849   6.091  17.899  0.00  0.00    +0.000 A 
ATOM     24  C   UNL     1       4.699   6.757  17.008  0.00  0.00    +0.000 A 
ATOM     25  C   UNL     1       5.344   6.051  15.978  0.00  0.00    +0.000 A 
BRANCH  20  27
ATOM     26  C   UNL     1       6.760   4.497  14.139  0.00  0.00    +0.000 C 
ATOM     27  O   UNL     1       5.714   3.885  14.876  0.00  0.00    +0.000 OA
ENDBRANCH  20  27
ENDBRANCH  16  23
ENDBRANCH  15  17
ENDBRANCH   1  15
BRANCH   4  28
ATOM     28  C   UNL     1      -0.606  10.862  23.041  0.00  0.00    +0.000 C 
BRANCH  28  29
ATOM     29  C   UNL     1      -1.438  12.112  22.917  0.00  0.00    +0.000 A 
ATOM     30  C   UNL     1      -2.838  12.034  22.842  0.00  0.00    +0.000 A 
ATOM     31  C   UNL     1      -3.613  13.195  22.779  0.00  0.00    +0.000 A 
ATOM     32  C   UNL     1      -3.001  14.446  22.817  0.00  0.00    +0.000 A 
ATOM     33  C   UNL     1      -1.614  14.536  22.912  0.00  0.00    +0.000 A 
ATOM     34  C   UNL     1      -0.837  13.378  22.953  0.00  0.00    +0.000 A 
ENDBRANCH  28  29
ENDBRANCH   4  28
TORSDOF 8
ENDMDL
MODEL 6
REMARK VINA RESULT:      -8.2      7.179     10.301
REMARK  Name = 
REMARK  10 active torsions:
REMARK  status: ('A' for Active; 'I' for Inactive)
REMARK    1  A    between atoms: C_1  and  O_2
REMARK    2  A    between atoms: O_2  and  C_3
REMARK    3  A    between atoms: C_6  and  N_7
REMARK    4  A    between atoms: C_8  and  C_10
REMARK    5  A    between atoms: C_10  and  C_11
REMARK    6  A    between atoms: N_14  and  C_15
REMARK    7  A    between atoms: C_15  and  C_16
REMARK    8  A    between atoms: C_23  and  C_24
REMARK    9  A    between atoms: C_27  and  O_28
REMARK   10  A    between atoms: O_28  and  C_29
REMARK                            x       y       z     vdW  Elec       q    Type
REMARK                         _______ _______ _______ _____ _____    ______ ____
ROOT
ATOM      1  C   UNL     1       0.342   8.891  19.958  0.00  0.00    +0.000 C 
ATOM      2  C   UNL     1      -0.279   9.005  21.337  0.00  0.00    +0.000 C 
ATOM      3  O   UNL     1      -0.902   8.110  21.884  0.00  0.00    +0.000 OA
ATOM      4  N   UNL     1      -0.008  10.270  21.828  0.00  0.00    +0.000 N 
ATOM      5  C   UNL     1       0.569  11.135  20.821  0.00  0.00    +0.000 C 
ATOM      6  C   UNL     1       0.357  10.364  19.507  0.00  0.00    +0.000 C 
ENDROOT
BRANCH   6   7
ATOM      7  C   UNL     1      -0.956  10.703  18.809  0.00  0.00    +0.000 A 
ATOM      8  C   UNL     1      -1.343  10.012  17.653  0.00  0.00    +0.000 A 
ATOM      9  C   UNL     1      -2.546  10.329  17.013  0.00  0.00    +0.000 A 
ATOM     10  C   UNL     1      -3.395  11.306  17.536  0.00  0.00    +0.000 A 
ATOM     11  C   UNL     1      -3.026  11.984  18.690  0.00  0.00    +0.000 A 
ATOM     12  C   UNL     1      -1.826  11.678  19.320  0.00  0.00    +0.000 A 
BRANCH  10  13
ATOM     13  O   UNL     1      -4.543  11.547  16.833  0.00  0.00    +0.000 OA
ATOM     14  C   UNL     1      -5.738  11.505  17.610  0.00  0.00    +0.000 C 
ENDBRANCH  10  13
ENDBRANCH   6   7
BRANCH   1  15
ATOM     15  C   UNL     1       1.747   8.329  20.071  0.00  0.00    +0.000 C 
BRANCH  15  17
ATOM     16  N   UNL     1       3.286   6.725  18.971  0.00  0.00    +0.000 N 
ATOM     17  C   UNL     1       2.359   7.742  18.813  0.00  0.00    +0.000 C 
ATOM     18  O   UNL     1       1.916   8.163  17.747  0.00  0.00    +0.000 OA
ATOM     19  H   UNL     1       3.625   6.502  19.896  0.00  0.00    +0.000 HD
BRANCH  16  23
ATOM     20  C   UNL     1       5.125   4.608  15.793  0.00  0.00    +0.000 A 
ATOM     21  C   UNL     1       5.282   5.981  15.894  0.00  0.00    +0.000 A 
ATOM     22  C   UNL     1       4.701   6.681  16.941  0.00  0.00    +0.000 A 
ATOM     23  C   UNL     1       3.922   6.032  17.906  0.00  0.00    +0.000 A 
ATOM     24  C   UNL     1       3.758   4.645  17.804  0.00  0.00    +0.000 A 
ATOM     25  C   UNL     1       4.355   3.935  16.747  0.00  0.00    +0.000 A 
BRANCH  20  27
ATOM     26  C   UNL     1       6.871   4.724  14.221  0.00  0.00    +0.000 C 
ATOM     27  O   UNL     1       5.739   4.027  14.718  0.00  0.00    +0.000 OA
ENDBRANCH  20  27
ENDBRANCH  16  23
ENDBRANCH  15  17
ENDBRANCH   1  15
BRANCH   4  28
ATOM     28  C   UNL     1      -0.518  10.793  23.084  0.00  0.00    +0.000 C 
BRANCH  28  29
ATOM     29  C   UNL     1      -1.362  12.033  22.945  0.00  0.00    +0.000 A 
ATOM     30  C   UNL     1      -0.764  13.287  22.745  0.00  0.00    +0.000 A 
ATOM     31  C   UNL     1      -1.548  14.430  22.564  0.00  0.00    +0.000 A 
ATOM     32  C   UNL     1      -2.937  14.328  22.555  0.00  0.00    +0.000 A 
ATOM     33  C   UNL     1      -3.543  13.086  22.732  0.00  0.00    +0.000 A 
ATOM     34  C   UNL     1      -2.762  11.948  22.935  0.00  0.00    +0.000 A 
ENDBRANCH  28  29
ENDBRANCH   4  28
TORSDOF 8
ENDMDL
MODEL 7
REMARK VINA RESULT:      -8.1      7.772     11.185
REMARK  Name = 
REMARK  10 active torsions:
REMARK  status: ('A' for Active; 'I' for Inactive)
REMARK    1  A    between atoms: C_1  and  O_2
REMARK    2  A    between atoms: O_2  and  C_3
REMARK    3  A    between atoms: C_6  and  N_7
REMARK    4  A    between atoms: C_8  and  C_10
REMARK    5  A    between atoms: C_10  and  C_11
REMARK    6  A    between atoms: N_14  and  C_15
REMARK    7  A    between atoms: C_15  and  C_16
REMARK    8  A    between atoms: C_23  and  C_24
REMARK    9  A    between atoms: C_27  and  O_28
REMARK   10  A    between atoms: O_28  and  C_29
REMARK                            x       y       z     vdW  Elec       q    Type
REMARK                         _______ _______ _______ _____ _____    ______ ____
ROOT
ATOM      1  C   UNL     1      -0.013   9.893  19.611  0.00  0.00    +0.000 C 
ATOM      2  C   UNL     1      -0.209  10.422  21.019  0.00  0.00    +0.000 C 
ATOM      3  O   UNL     1      -0.427   9.719  21.992  0.00  0.00    +0.000 OA
ATOM      4  N   UNL     1      -0.097  11.801  20.981  0.00  0.00    +0.000 N 
ATOM      5  C   UNL     1      -0.051  12.308  19.625  0.00  0.00    +0.000 C 
ATOM      6  C   UNL     1      -0.462  11.100  18.766  0.00  0.00    +0.000 C 
ENDROOT
BRANCH   6   7
ATOM      7  C   UNL     1      -1.964  11.020  18.509  0.00  0.00    +0.000 A 
ATOM      8  C   UNL     1      -2.825  11.989  19.041  0.00  0.00    +0.000 A 
ATOM      9  C   UNL     1      -4.202  11.911  18.808  0.00  0.00    +0.000 A 
ATOM     10  C   UNL     1      -4.733  10.893  18.013  0.00  0.00    +0.000 A 
ATOM     11  C   UNL     1      -3.883   9.939  17.469  0.00  0.00    +0.000 A 
ATOM     12  C   UNL     1      -2.517  10.009  17.710  0.00  0.00    +0.000 A 
BRANCH  10  13
ATOM     13  O   UNL     1      -6.090  10.899  17.851  0.00  0.00    +0.000 OA
ATOM     14  C   UNL     1      -6.828  11.293  19.006  0.00  0.00    +0.000 C 
ENDBRANCH  10  13
ENDBRANCH   6   7
BRANCH   1  15
ATOM     15  C   UNL     1       1.452   9.568  19.384  0.00  0.00    +0.000 C 
BRANCH  15  17
ATOM     16  N   UNL     1       2.264   7.563  18.171  0.00  0.00    +0.000 N 
ATOM     17  C   UNL     1       1.840   8.101  19.375  0.00  0.00    +0.000 C 
ATOM     18  O   UNL     1       1.825   7.530  20.463  0.00  0.00    +0.000 OA
ATOM     19  H   UNL     1       2.176   8.107  17.326  0.00  0.00    +0.000 HD
BRANCH  16  23
ATOM     20  C   UNL     1       3.649   3.588  17.673  0.00  0.00    +0.000 A 
ATOM     21  C   UNL     1       2.290   3.841  17.777  0.00  0.00    +0.000 A 
ATOM     22  C   UNL     1       1.826   5.140  17.920  0.00  0.00    +0.000 A 
ATOM     23  C   UNL     1       2.707   6.225  17.991  0.00  0.00    +0.000 A 
ATOM     24  C   UNL     1       4.081   5.970  17.891  0.00  0.00    +0.000 A 
ATOM     25  C   UNL     1       4.551   4.655  17.737  0.00  0.00    +0.000 A 
BRANCH  20  27
ATOM     26  C   UNL     1       3.600   1.435  18.618  0.00  0.00    +0.000 C 
ATOM     27  O   UNL     1       3.988   2.270  17.539  0.00  0.00    +0.000 OA
ENDBRANCH  20  27
ENDBRANCH  16  23
ENDBRANCH  15  17
ENDBRANCH   1  15
BRANCH   4  28
ATOM     28  C   UNL     1      -0.317  12.678  22.117  0.00  0.00    +0.000 C 
BRANCH  28  29
ATOM     29  C   UNL     1      -1.743  13.137  22.282  0.00  0.00    +0.000 A 
ATOM     30  C   UNL     1      -2.162  14.371  21.759  0.00  0.00    +0.000 A 
ATOM     31  C   UNL     1      -3.497  14.773  21.865  0.00  0.00    +0.000 A 
ATOM     32  C   UNL     1      -4.431  13.938  22.473  0.00  0.00    +0.000 A 
ATOM     33  C   UNL     1      -4.031  12.703  22.978  0.00  0.00    +0.000 A 
ATOM     34  C   UNL     1      -2.695  12.308  22.892  0.00  0.00    +0.000 A 
ENDBRANCH  28  29
ENDBRANCH   4  28
TORSDOF 8
ENDMDL
MODEL 8
REMARK VINA RESULT:      -8.1      7.842     11.242
REMARK  Name = 
REMARK  10 active torsions:
REMARK  status: ('A' for Active; 'I' for Inactive)
REMARK    1  A    between atoms: C_1  and  O_2
REMARK    2  A    between atoms: O_2  and  C_3
REMARK    3  A    between atoms: C_6  and  N_7
REMARK    4  A    between atoms: C_8  and  C_10
REMARK    5  A    between atoms: C_10  and  C_11
REMARK    6  A    between atoms: N_14  and  C_15
REMARK    7  A    between atoms: C_15  and  C_16
REMARK    8  A    between atoms: C_23  and  C_24
REMARK    9  A    between atoms: C_27  and  O_28
REMARK   10  A    between atoms: O_28  and  C_29
REMARK                            x       y       z     vdW  Elec       q    Type
REMARK                         _______ _______ _______ _____ _____    ______ ____
ROOT
ATOM      1  C   UNL     1      -0.083  10.045  19.569  0.00  0.00    +0.000 C 
ATOM      2  C   UNL     1      -0.245  10.526  20.999  0.00  0.00    +0.000 C 
ATOM      3  O   UNL     1      -0.428   9.788  21.953  0.00  0.00    +0.000 OA
ATOM      4  N   UNL     1      -0.146  11.906  21.003  0.00  0.00    +0.000 N 
ATOM      5  C   UNL     1      -0.143  12.457  19.665  0.00  0.00    +0.000 C 
ATOM      6  C   UNL     1      -0.567  11.275  18.777  0.00  0.00    +0.000 C 
ENDROOT
BRANCH   6   7
ATOM      7  C   UNL     1      -2.074  11.188  18.560  0.00  0.00    +0.000 A 
ATOM      8  C   UNL     1      -2.619  10.157  17.784  0.00  0.00    +0.000 A 
ATOM      9  C   UNL     1      -4.002  10.083  17.583  0.00  0.00    +0.000 A 
ATOM     10  C   UNL     1      -4.859  11.007  18.182  0.00  0.00    +0.000 A 
ATOM     11  C   UNL     1      -4.326  12.024  18.966  0.00  0.00    +0.000 A 
ATOM     12  C   UNL     1      -2.953  12.105  19.156  0.00  0.00    +0.000 A 
BRANCH  10  13
ATOM     13  O   UNL     1      -6.192  10.855  17.919  0.00  0.00    +0.000 OA
ATOM     14  C   UNL     1      -6.967  10.385  19.019  0.00  0.00    +0.000 C 
ENDBRANCH  10  13
ENDBRANCH   6   7
BRANCH   1  15
ATOM     15  C   UNL     1       1.378   9.742  19.291  0.00  0.00    +0.000 C 
BRANCH  15  17
ATOM     16  N   UNL     1       2.239   7.718  18.145  0.00  0.00    +0.000 N 
ATOM     17  C   UNL     1       1.800   8.285  19.331  0.00  0.00    +0.000 C 
ATOM     18  O   UNL     1       1.798   7.750  20.437  0.00  0.00    +0.000 OA
ATOM     19  H   UNL     1       2.138   8.232  17.282  0.00  0.00    +0.000 HD
BRANCH  16  23
ATOM     20  C   UNL     1       3.589   3.724  17.706  0.00  0.00    +0.000 A 
ATOM     21  C   UNL     1       4.493   4.773  17.643  0.00  0.00    +0.000 A 
ATOM     22  C   UNL     1       4.064   6.082  17.805  0.00  0.00    +0.000 A 
ATOM     23  C   UNL     1       2.713   6.386  18.009  0.00  0.00    +0.000 A 
ATOM     24  C   UNL     1       1.798   5.328  18.069  0.00  0.00    +0.000 A 
ATOM     25  C   UNL     1       2.233   4.000  17.913  0.00  0.00    +0.000 A 
BRANCH  20  27
ATOM     26  C   UNL     1       3.584   1.465  18.358  0.00  0.00    +0.000 C 
ATOM     27  O   UNL     1       4.126   2.479  17.528  0.00  0.00    +0.000 OA
ENDBRANCH  20  27
ENDBRANCH  16  23
ENDBRANCH  15  17
ENDBRANCH   1  15
BRANCH   4  28
ATOM     28  C   UNL     1      -0.343  12.743  22.174  0.00  0.00    +0.000 C 
BRANCH  28  29
ATOM     29  C   UNL     1      -1.760  13.219  22.368  0.00  0.00    +0.000 A 
ATOM     30  C   UNL     1      -2.154  14.490  21.922  0.00  0.00    +0.000 A 
ATOM     31  C   UNL     1      -3.480  14.911  22.054  0.00  0.00    +0.000 A 
ATOM     32  C   UNL     1      -4.431  14.059  22.610  0.00  0.00    +0.000 A 
ATOM     33  C   UNL     1      -4.056  12.787  23.038  0.00  0.00    +0.000 A 
ATOM     34  C   UNL     1      -2.728  12.373  22.926  0.00  0.00    +0.000 A 
ENDBRANCH  28  29
ENDBRANCH   4  28
TORSDOF 8
ENDMDL
MODEL 9
REMARK VINA RESULT:      -8.0      7.949     11.528
REMARK  Name = 
REMARK  10 active torsions:
REMARK  status: ('A' for Active; 'I' for Inactive)
REMARK    1  A    between atoms: C_1  and  O_2
REMARK    2  A    between atoms: O_2  and  C_3
REMARK    3  A    between atoms: C_6  and  N_7
REMARK    4  A    between atoms: C_8  and  C_10
REMARK    5  A    between atoms: C_10  and  C_11
REMARK    6  A    between atoms: N_14  and  C_15
REMARK    7  A    between atoms: C_15  and  C_16
REMARK    8  A    between atoms: C_23  and  C_24
REMARK    9  A    between atoms: C_27  and  O_28
REMARK   10  A    between atoms: O_28  and  C_29
REMARK                            x       y       z     vdW  Elec       q    Type
REMARK                         _______ _______ _______ _____ _____    ______ ____
ROOT
ATOM      1  C   UNL     1      -0.128   9.907  20.622  0.00  0.00    +0.000 C 
ATOM      2  C   UNL     1      -0.575  10.520  21.935  0.00  0.00    +0.000 C 
ATOM      3  O   UNL     1      -1.053   9.884  22.860  0.00  0.00    +0.000 OA
ATOM      4  N   UNL     1      -0.341  11.883  21.877  0.00  0.00    +0.000 N 
ATOM      5  C   UNL     1       0.036  12.315  20.548  0.00  0.00    +0.000 C 
ATOM      6  C   UNL     1      -0.283  11.101  19.660  0.00  0.00    +0.000 C 
ENDROOT
BRANCH   6   7
ATOM      7  C   UNL     1      -1.696  11.121  19.087  0.00  0.00    +0.000 A 
ATOM      8  C   UNL     1      -2.104  10.140  18.174  0.00  0.00    +0.000 A 
ATOM      9  C   UNL     1      -3.400  10.164  17.647  0.00  0.00    +0.000 A 
ATOM     10  C   UNL     1      -4.314  11.139  18.050  0.00  0.00    +0.000 A 
ATOM     11  C   UNL     1      -3.922  12.105  18.967  0.00  0.00    +0.000 A 
ATOM     12  C   UNL     1      -2.632  12.089  19.483  0.00  0.00    +0.000 A 
BRANCH  10  13
ATOM     13  O   UNL     1      -5.552  11.082  17.472  0.00  0.00    +0.000 OA
ATOM     14  C   UNL     1      -6.140  12.351  17.194  0.00  0.00    +0.000 C 
ENDBRANCH  10  13
ENDBRANCH   6   7
BRANCH   1  15
ATOM     15  C   UNL     1       1.319   9.462  20.728  0.00  0.00    +0.000 C 
BRANCH  15  17
ATOM     16  N   UNL     1       1.671   7.011  20.872  0.00  0.00    +0.000 N 
ATOM     17  C   UNL     1       1.685   8.143  20.073  0.00  0.00    +0.000 C 
ATOM     18  O   UNL     1       1.882   8.175  18.861  0.00  0.00    +0.000 OA
ATOM     19  H   UNL     1       1.557   7.109  21.870  0.00  0.00    +0.000 HD
BRANCH  16  23
ATOM     20  C   UNL     1       2.547   3.084  19.538  0.00  0.00    +0.000 A 
ATOM     21  C   UNL     1       1.287   3.384  20.033  0.00  0.00    +0.000 A 
ATOM     22  C   UNL     1       0.984   4.670  20.453  0.00  0.00    +0.000 A 
ATOM     23  C   UNL     1       1.940   5.692  20.417  0.00  0.00    +0.000 A 
ATOM     24  C   UNL     1       3.215   5.390  19.921  0.00  0.00    +0.000 A 
ATOM     25  C   UNL     1       3.519   4.088  19.486  0.00  0.00    +0.000 A 
BRANCH  20  27
ATOM     26  C   UNL     1       3.665   1.588  18.109  0.00  0.00    +0.000 C 
ATOM     27  O   UNL     1       2.730   1.784  19.157  0.00  0.00    +0.000 OA
ENDBRANCH  20  27
ENDBRANCH  16  23
ENDBRANCH  15  17
ENDBRANCH   1  15
BRANCH   4  28
ATOM     28  C   UNL     1      -0.724  12.830  22.910  0.00  0.00    +0.000 C 
BRANCH  28  29
ATOM     29  C   UNL     1      -2.154  13.299  22.824  0.00  0.00    +0.000 A 
ATOM     30  C   UNL     1      -3.191  12.540  23.389  0.00  0.00    +0.000 A 
ATOM     31  C   UNL     1      -4.510  13.000  23.355  0.00  0.00    +0.000 A 
ATOM     32  C   UNL     1      -4.804  14.234  22.780  0.00  0.00    +0.000 A 
ATOM     33  C   UNL     1      -3.781  15.005  22.235  0.00  0.00    +0.000 A 
ATOM     34  C   UNL     1      -2.466  14.538  22.247  0.00  0.00    +0.000 A 
ENDBRANCH  28  29
ENDBRANCH   4  28
TORSDOF 8
ENDMDL
