MODEL 1
REMARK VINA RESULT:      -7.0      0.000      0.000
REMARK  Name = 
REMARK  2 active torsions:
REMARK  status: ('A' for Active; 'I' for Inactive)
REMARK    1  A    between atoms: C_2  and  C_14
REMARK    2  A    between atoms: N_3  and  C_4
REMARK                            x       y       z     vdW  Elec       q    Type
REMARK                         _______ _______ _______ _____ _____    ______ ____
ROOT
ATOM      1  C   UNL     1       5.444   4.163  17.184  0.00  0.00    +0.000 A 
ATOM      2  C   UNL     1       6.362   5.227  17.371  0.00  0.00    +0.000 A 
ATOM      3  C   UNL     1       7.161   5.716  16.332  0.00  0.00    +0.000 A 
ATOM      4  C   UNL     1       7.019   5.105  15.116  0.00  0.00    +0.000 A 
ATOM      5  N   UNL     1       7.656   5.378  13.914  0.00  0.00    +0.000 N 
ATOM      6  C   UNL     1       7.178   4.490  12.941  0.00  0.00    +0.000 A 
ATOM      7  O   UNL     1       7.513   4.445  11.772  0.00  0.00    +0.000 OA
ATOM      8  N   UNL     1       6.238   3.665  13.579  0.00  0.00    +0.000 N 
ATOM      9  C   UNL     1       6.139   4.044  14.917  0.00  0.00    +0.000 A 
ATOM     10  C   UNL     1       5.347   3.540  15.928  0.00  0.00    +0.000 A 
ATOM     11  H   UNL     1       8.344   6.093  13.738  0.00  0.00    +0.000 HD
ATOM     12  H   UNL     1       5.728   2.937  13.106  0.00  0.00    +0.000 HD
ENDROOT
BRANCH   1  15
ATOM     13  O   UNL     1       2.773   5.030  17.913  0.00  0.00    +0.000 OA
ATOM     14  C   UNL     1       3.368   4.182  18.573  0.00  0.00    +0.000 C 
ATOM     15  N   UNL     1       4.623   3.685  18.236  0.00  0.00    +0.000 N 
ATOM     16  H   UNL     1       4.925   2.855  18.732  0.00  0.00    +0.000 HD
BRANCH  14  17
ATOM     17  C   UNL     1       2.738   3.616  19.762  0.00  0.00    +0.000 A 
ATOM     18  C   UNL     1       3.353   2.745  20.646  0.00  0.00    +0.000 A 
ATOM     19  C   UNL     1       2.486   2.306  21.682  0.00  0.00    +0.000 A 
ATOM     20  C   UNL     1       1.231   2.858  21.562  0.00  0.00    +0.000 A 
ATOM     21  S   UNL     1       1.118   3.914  20.215  0.00  0.00    +0.000 S 
ENDBRANCH  14  17
ENDBRANCH   1  15
TORSDOF 2
ENDMDL
MODEL 2
REMARK VINA RESULT:      -6.9      1.031      1.033
REMARK  Name = 
REMARK  2 active torsions:
REMARK  status: ('A' for Active; 'I' for Inactive)
REMARK    1  A    between atoms: C_2  and  C_14
REMARK    2  A    between atoms: N_3  and  C_4
REMARK                            x       y       z     vdW  Elec       q    Type
REMARK                         _______ _______ _______ _____ _____    ______ ____
ROOT
ATOM      1  C   UNL     1       5.019   4.676  17.137  0.00  0.00    +0.000 A 
ATOM      2  C   UNL     1       6.106   5.547  17.402  0.00  0.00    +0.000 A 
ATOM      3  C   UNL     1       7.070   5.853  16.436  0.00  0.00    +0.000 A 
ATOM      4  C   UNL     1       6.917   5.258  15.213  0.00  0.00    +0.000 A 
ATOM      5  N   UNL     1       7.695   5.380  14.071  0.00  0.00    +0.000 N 
ATOM      6  C   UNL     1       7.139   4.583  13.062  0.00  0.00    +0.000 A 
ATOM      7  O   UNL     1       7.558   4.451  11.926  0.00  0.00    +0.000 OA
ATOM      8  N   UNL     1       6.006   3.966  13.617  0.00  0.00    +0.000 N 
ATOM      9  C   UNL     1       5.869   4.382  14.940  0.00  0.00    +0.000 A 
ATOM     10  C   UNL     1       4.911   4.060  15.879  0.00  0.00    +0.000 A 
ATOM     11  H   UNL     1       8.521   5.946  13.954  0.00  0.00    +0.000 HD
ATOM     12  H   UNL     1       5.408   3.341  13.102  0.00  0.00    +0.000 HD
ENDROOT
BRANCH   1  15
ATOM     13  O   UNL     1       5.298   3.093  19.553  0.00  0.00    +0.000 OA
ATOM     14  C   UNL     1       4.213   3.571  19.227  0.00  0.00    +0.000 C 
ATOM     15  N   UNL     1       4.034   4.385  18.115  0.00  0.00    +0.000 N 
ATOM     16  H   UNL     1       3.151   4.880  18.058  0.00  0.00    +0.000 HD
BRANCH  14  17
ATOM     17  C   UNL     1       3.035   3.318  20.051  0.00  0.00    +0.000 A 
ATOM     18  C   UNL     1       3.050   2.689  21.285  0.00  0.00    +0.000 A 
ATOM     19  C   UNL     1       1.752   2.523  21.837  0.00  0.00    +0.000 A 
ATOM     20  C   UNL     1       0.779   3.034  21.008  0.00  0.00    +0.000 A 
ATOM     21  S   UNL     1       1.442   3.725  19.586  0.00  0.00    +0.000 S 
ENDBRANCH  14  17
ENDBRANCH   1  15
TORSDOF 2
ENDMDL
MODEL 3
REMARK VINA RESULT:      -6.9      3.172      7.282
REMARK  Name = 
REMARK  2 active torsions:
REMARK  status: ('A' for Active; 'I' for Inactive)
REMARK    1  A    between atoms: C_2  and  C_14
REMARK    2  A    between atoms: N_3  and  C_4
REMARK                            x       y       z     vdW  Elec       q    Type
REMARK                         _______ _______ _______ _____ _____    ______ ____
ROOT
ATOM      1  C   UNL     1       4.042   4.493  17.346  0.00  0.00    +0.000 A 
ATOM      2  C   UNL     1       3.933   5.773  17.948  0.00  0.00    +0.000 A 
ATOM      3  C   UNL     1       3.417   5.950  19.236  0.00  0.00    +0.000 A 
ATOM      4  C   UNL     1       3.009   4.820  19.890  0.00  0.00    +0.000 A 
ATOM      5  N   UNL     1       2.476   4.684  21.163  0.00  0.00    +0.000 N 
ATOM      6  C   UNL     1       2.217   3.327  21.398  0.00  0.00    +0.000 A 
ATOM      7  O   UNL     1       1.752   2.841  22.413  0.00  0.00    +0.000 OA
ATOM      8  N   UNL     1       2.598   2.639  20.235  0.00  0.00    +0.000 N 
ATOM      9  C   UNL     1       3.087   3.557  19.307  0.00  0.00    +0.000 A 
ATOM     10  C   UNL     1       3.585   3.358  18.037  0.00  0.00    +0.000 A 
ATOM     11  H   UNL     1       2.302   5.417  21.832  0.00  0.00    +0.000 HD
ATOM     12  H   UNL     1       2.527   1.640  20.135  0.00  0.00    +0.000 HD
ENDROOT
BRANCH   1  15
ATOM     13  O   UNL     1       6.835   4.367  16.570  0.00  0.00    +0.000 OA
ATOM     14  C   UNL     1       5.939   4.322  15.730  0.00  0.00    +0.000 C 
ATOM     15  N   UNL     1       4.586   4.317  16.048  0.00  0.00    +0.000 N 
ATOM     16  H   UNL     1       3.949   4.076  15.298  0.00  0.00    +0.000 HD
BRANCH  14  17
ATOM     17  C   UNL     1       6.279   4.231  14.314  0.00  0.00    +0.000 A 
ATOM     18  C   UNL     1       5.597   3.465  13.383  0.00  0.00    +0.000 A 
ATOM     19  C   UNL     1       6.181   3.517  12.089  0.00  0.00    +0.000 A 
ATOM     20  C   UNL     1       7.293   4.327  12.067  0.00  0.00    +0.000 A 
ATOM     21  S   UNL     1       7.609   5.031  13.598  0.00  0.00    +0.000 S 
ENDBRANCH  14  17
ENDBRANCH   1  15
TORSDOF 2
ENDMDL
MODEL 4
REMARK VINA RESULT:      -6.8      3.018      7.272
REMARK  Name = 
REMARK  2 active torsions:
REMARK  status: ('A' for Active; 'I' for Inactive)
REMARK    1  A    between atoms: C_2  and  C_14
REMARK    2  A    between atoms: N_3  and  C_4
REMARK                            x       y       z     vdW  Elec       q    Type
REMARK                         _______ _______ _______ _____ _____    ______ ____
ROOT
ATOM      1  C   UNL     1       4.197   4.692  17.326  0.00  0.00    +0.000 A 
ATOM      2  C   UNL     1       3.908   5.956  17.901  0.00  0.00    +0.000 A 
ATOM      3  C   UNL     1       3.308   6.084  19.158  0.00  0.00    +0.000 A 
ATOM      4  C   UNL     1       3.000   4.920  19.808  0.00  0.00    +0.000 A 
ATOM      5  N   UNL     1       2.421   4.734  21.055  0.00  0.00    +0.000 N 
ATOM      6  C   UNL     1       2.310   3.359  21.297  0.00  0.00    +0.000 A 
ATOM      7  O   UNL     1       1.852   2.831  22.294  0.00  0.00    +0.000 OA
ATOM      8  N   UNL     1       2.829   2.709  20.166  0.00  0.00    +0.000 N 
ATOM      9  C   UNL     1       3.255   3.669  19.250  0.00  0.00    +0.000 A 
ATOM     10  C   UNL     1       3.839   3.518  18.010  0.00  0.00    +0.000 A 
ATOM     11  H   UNL     1       2.128   5.448  21.703  0.00  0.00    +0.000 HD
ATOM     12  H   UNL     1       2.880   1.707  20.077  0.00  0.00    +0.000 HD
ENDROOT
BRANCH   1  15
ATOM     13  O   UNL     1       7.033   4.525  16.736  0.00  0.00    +0.000 OA
ATOM     14  C   UNL     1       6.196   4.550  15.836  0.00  0.00    +0.000 C 
ATOM     15  N   UNL     1       4.824   4.569  16.060  0.00  0.00    +0.000 N 
ATOM     16  H   UNL     1       4.235   4.387  15.256  0.00  0.00    +0.000 HD
BRANCH  14  17
ATOM     17  C   UNL     1       6.631   4.524  14.443  0.00  0.00    +0.000 A 
ATOM     18  C   UNL     1       7.614   5.338  13.904  0.00  0.00    +0.000 A 
ATOM     19  C   UNL     1       7.792   5.141  12.509  0.00  0.00    +0.000 A 
ATOM     20  C   UNL     1       6.941   4.177  12.020  0.00  0.00    +0.000 A 
ATOM     21  S   UNL     1       5.952   3.507  13.250  0.00  0.00    +0.000 S 
ENDBRANCH  14  17
ENDBRANCH   1  15
TORSDOF 2
ENDMDL
MODEL 5
REMARK VINA RESULT:      -6.7      3.896      4.458
REMARK  Name = 
REMARK  2 active torsions:
REMARK  status: ('A' for Active; 'I' for Inactive)
REMARK    1  A    between atoms: C_2  and  C_14
REMARK    2  A    between atoms: N_3  and  C_4
REMARK                            x       y       z     vdW  Elec       q    Type
REMARK                         _______ _______ _______ _____ _____    ______ ____
ROOT
ATOM      1  C   UNL     1       3.357   6.156  18.209  0.00  0.00    +0.000 A 
ATOM      2  C   UNL     1       3.062   4.797  17.930  0.00  0.00    +0.000 A 
ATOM      3  C   UNL     1       3.831   4.032  17.047  0.00  0.00    +0.000 A 
ATOM      4  C   UNL     1       4.886   4.666  16.451  0.00  0.00    +0.000 A 
ATOM      5  N   UNL     1       5.821   4.169  15.555  0.00  0.00    +0.000 N 
ATOM      6  C   UNL     1       6.718   5.193  15.227  0.00  0.00    +0.000 A 
ATOM      7  O   UNL     1       7.670   5.112  14.472  0.00  0.00    +0.000 OA
ATOM      8  N   UNL     1       6.306   6.331  15.941  0.00  0.00    +0.000 N 
ATOM      9  C   UNL     1       5.180   6.007  16.694  0.00  0.00    +0.000 A 
ATOM     10  C   UNL     1       4.432   6.783  17.555  0.00  0.00    +0.000 A 
ATOM     11  H   UNL     1       5.876   3.231  15.190  0.00  0.00    +0.000 HD
ATOM     12  H   UNL     1       6.785   7.215  15.897  0.00  0.00    +0.000 HD
ENDROOT
BRANCH   1  15
ATOM     13  O   UNL     1       1.901   8.616  17.708  0.00  0.00    +0.000 OA
ATOM     14  C   UNL     1       1.955   8.126  18.834  0.00  0.00    +0.000 C 
ATOM     15  N   UNL     1       2.586   6.921  19.121  0.00  0.00    +0.000 N 
ATOM     16  H   UNL     1       2.397   6.519  20.031  0.00  0.00    +0.000 HD
BRANCH  14  17
ATOM     17  C   UNL     1       1.301   8.803  19.950  0.00  0.00    +0.000 A 
ATOM     18  C   UNL     1       1.227   8.310  21.242  0.00  0.00    +0.000 A 
ATOM     19  C   UNL     1       0.479   9.149  22.112  0.00  0.00    +0.000 A 
ATOM     20  C   UNL     1       0.006  10.264  21.458  0.00  0.00    +0.000 A 
ATOM     21  S   UNL     1       0.484  10.297  19.812  0.00  0.00    +0.000 S 
ENDBRANCH  14  17
ENDBRANCH   1  15
TORSDOF 2
ENDMDL
MODEL 6
REMARK VINA RESULT:      -6.6      4.225      4.906
REMARK  Name = 
REMARK  2 active torsions:
REMARK  status: ('A' for Active; 'I' for Inactive)
REMARK    1  A    between atoms: C_2  and  C_14
REMARK    2  A    between atoms: N_3  and  C_4
REMARK                            x       y       z     vdW  Elec       q    Type
REMARK                         _______ _______ _______ _____ _____    ______ ____
ROOT
ATOM      1  C   UNL     1       3.202   6.469  18.101  0.00  0.00    +0.000 A 
ATOM      2  C   UNL     1       2.912   5.093  17.919  0.00  0.00    +0.000 A 
ATOM      3  C   UNL     1       3.724   4.255  17.147  0.00  0.00    +0.000 A 
ATOM      4  C   UNL     1       4.816   4.835  16.562  0.00  0.00    +0.000 A 
ATOM      5  N   UNL     1       5.796   4.262  15.764  0.00  0.00    +0.000 N 
ATOM      6  C   UNL     1       6.718   5.253  15.405  0.00  0.00    +0.000 A 
ATOM      7  O   UNL     1       7.710   5.107  14.714  0.00  0.00    +0.000 OA
ATOM      8  N   UNL     1       6.275   6.447  15.998  0.00  0.00    +0.000 N 
ATOM      9  C   UNL     1       5.106   6.189  16.710  0.00  0.00    +0.000 A 
ATOM     10  C   UNL     1       4.316   7.036  17.460  0.00  0.00    +0.000 A 
ATOM     11  H   UNL     1       5.864   3.297  15.481  0.00  0.00    +0.000 HD
ATOM     12  H   UNL     1       6.762   7.323  15.908  0.00  0.00    +0.000 HD
ENDROOT
BRANCH   1  15
ATOM     13  O   UNL     1       1.986   9.004  17.385  0.00  0.00    +0.000 OA
ATOM     14  C   UNL     1       1.877   8.544  18.520  0.00  0.00    +0.000 C 
ATOM     15  N   UNL     1       2.386   7.308  18.902  0.00  0.00    +0.000 N 
ATOM     16  H   UNL     1       2.066   6.946  19.792  0.00  0.00    +0.000 HD
BRANCH  14  17
ATOM     17  C   UNL     1       1.148   9.295  19.538  0.00  0.00    +0.000 A 
ATOM     18  C   UNL     1       0.499  10.499  19.321  0.00  0.00    +0.000 A 
ATOM     19  C   UNL     1      -0.078  11.037  20.503  0.00  0.00    +0.000 A 
ATOM     20  C   UNL     1       0.145  10.224  21.591  0.00  0.00    +0.000 A 
ATOM     21  S   UNL     1       1.027   8.814  21.173  0.00  0.00    +0.000 S 
ENDBRANCH  14  17
ENDBRANCH   1  15
TORSDOF 2
ENDMDL
MODEL 7
REMARK VINA RESULT:      -6.5      5.420      7.229
REMARK  Name = 
REMARK  2 active torsions:
REMARK  status: ('A' for Active; 'I' for Inactive)
REMARK    1  A    between atoms: C_2  and  C_14
REMARK    2  A    between atoms: N_3  and  C_4
REMARK                            x       y       z     vdW  Elec       q    Type
REMARK                         _______ _______ _______ _____ _____    ______ ____
ROOT
ATOM      1  C   UNL     1       8.092   7.154  18.439  0.00  0.00    +0.000 A 
ATOM      2  C   UNL     1       7.948   5.944  19.164  0.00  0.00    +0.000 A 
ATOM      3  C   UNL     1       7.335   4.813  18.615  0.00  0.00    +0.000 A 
ATOM      4  C   UNL     1       6.867   4.935  17.335  0.00  0.00    +0.000 A 
ATOM      5  N   UNL     1       6.235   3.993  16.535  0.00  0.00    +0.000 N 
ATOM      6  C   UNL     1       5.947   4.579  15.296  0.00  0.00    +0.000 A 
ATOM      7  O   UNL     1       5.400   4.044  14.349  0.00  0.00    +0.000 OA
ATOM      8  N   UNL     1       6.412   5.903  15.360  0.00  0.00    +0.000 N 
ATOM      9  C   UNL     1       6.979   6.121  16.614  0.00  0.00    +0.000 A 
ATOM     10  C   UNL     1       7.573   7.251  17.137  0.00  0.00    +0.000 A 
ATOM     11  H   UNL     1       6.016   3.039  16.775  0.00  0.00    +0.000 HD
ATOM     12  H   UNL     1       6.340   6.552  14.594  0.00  0.00    +0.000 HD
ENDROOT
BRANCH   1  15
ATOM     13  O   UNL     1       7.883   9.924  17.599  0.00  0.00    +0.000 OA
ATOM     14  C   UNL     1       8.637   9.590  18.510  0.00  0.00    +0.000 C 
ATOM     15  N   UNL     1       8.734   8.291  18.994  0.00  0.00    +0.000 N 
ATOM     16  H   UNL     1       9.231   8.172  19.869  0.00  0.00    +0.000 HD
BRANCH  14  17
ATOM     17  C   UNL     1       9.466  10.596  19.167  0.00  0.00    +0.000 A 
ATOM     18  C   UNL     1       9.442  10.880  20.523  0.00  0.00    +0.000 A 
ATOM     19  C   UNL     1      10.309  11.947  20.880  0.00  0.00    +0.000 A 
ATOM     20  C   UNL     1      10.977  12.446  19.785  0.00  0.00    +0.000 A 
ATOM     21  S   UNL     1      10.567  11.612  18.344  0.00  0.00    +0.000 S 
ENDBRANCH  14  17
ENDBRANCH   1  15
TORSDOF 2
ENDMDL
MODEL 8
REMARK VINA RESULT:      -6.5      4.719      5.692
REMARK  Name = 
REMARK  2 active torsions:
REMARK  status: ('A' for Active; 'I' for Inactive)
REMARK    1  A    between atoms: C_2  and  C_14
REMARK    2  A    between atoms: N_3  and  C_4
REMARK                            x       y       z     vdW  Elec       q    Type
REMARK                         _______ _______ _______ _____ _____    ______ ____
ROOT
ATOM      1  C   UNL     1       3.005   7.001  17.973  0.00  0.00    +0.000 A 
ATOM      2  C   UNL     1       2.504   5.676  18.057  0.00  0.00    +0.000 A 
ATOM      3  C   UNL     1       3.324   4.556  17.888  0.00  0.00    +0.000 A 
ATOM      4  C   UNL     1       4.644   4.801  17.627  0.00  0.00    +0.000 A 
ATOM      5  N   UNL     1       5.684   3.904  17.430  0.00  0.00    +0.000 N 
ATOM      6  C   UNL     1       6.862   4.626  17.200  0.00  0.00    +0.000 A 
ATOM      7  O   UNL     1       7.969   4.165  16.993  0.00  0.00    +0.000 OA
ATOM      8  N   UNL     1       6.516   5.987  17.255  0.00  0.00    +0.000 N 
ATOM      9  C   UNL     1       5.152   6.094  17.519  0.00  0.00    +0.000 A 
ATOM     10  C   UNL     1       4.361   7.214  17.673  0.00  0.00    +0.000 A 
ATOM     11  H   UNL     1       5.633   2.898  17.451  0.00  0.00    +0.000 HD
ATOM     12  H   UNL     1       7.181   6.732  17.133  0.00  0.00    +0.000 HD
ENDROOT
BRANCH   1  15
ATOM     13  O   UNL     1       1.915   8.027  20.459  0.00  0.00    +0.000 OA
ATOM     14  C   UNL     1       1.633   8.543  19.380  0.00  0.00    +0.000 C 
ATOM     15  N   UNL     1       2.172   8.132  18.166  0.00  0.00    +0.000 N 
ATOM     16  H   UNL     1       2.027   8.751  17.377  0.00  0.00    +0.000 HD
BRANCH  14  17
ATOM     17  C   UNL     1       0.713   9.675  19.337  0.00  0.00    +0.000 A 
ATOM     18  C   UNL     1      -0.091  10.003  18.258  0.00  0.00    +0.000 A 
ATOM     19  C   UNL     1      -0.843  11.190  18.468  0.00  0.00    +0.000 A 
ATOM     20  C   UNL     1      -0.594  11.734  19.707  0.00  0.00    +0.000 A 
ATOM     21  S   UNL     1       0.526  10.800  20.609  0.00  0.00    +0.000 S 
ENDBRANCH  14  17
ENDBRANCH   1  15
TORSDOF 2
ENDMDL
MODEL 9
REMARK VINA RESULT:      -6.4      4.232      5.106
REMARK  Name = 
REMARK  2 active torsions:
REMARK  status: ('A' for Active; 'I' for Inactive)
REMARK    1  A    between atoms: C_2  and  C_14
REMARK    2  A    between atoms: N_3  and  C_4
REMARK                            x       y       z     vdW  Elec       q    Type
REMARK                         _______ _______ _______ _____ _____    ______ ____
ROOT
ATOM      1  C   UNL     1       3.070   6.137  19.114  0.00  0.00    +0.000 A 
ATOM      2  C   UNL     1       2.557   5.117  18.272  0.00  0.00    +0.000 A 
ATOM      3  C   UNL     1       3.387   4.302  17.496  0.00  0.00    +0.000 A 
ATOM      4  C   UNL     1       4.731   4.544  17.581  0.00  0.00    +0.000 A 
ATOM      5  N   UNL     1       5.784   3.899  16.949  0.00  0.00    +0.000 N 
ATOM      6  C   UNL     1       6.984   4.497  17.354  0.00  0.00    +0.000 A 
ATOM      7  O   UNL     1       8.107   4.184  17.003  0.00  0.00    +0.000 OA
ATOM      8  N   UNL     1       6.639   5.527  18.244  0.00  0.00    +0.000 N 
ATOM      9  C   UNL     1       5.253   5.556  18.385  0.00  0.00    +0.000 A 
ATOM     10  C   UNL     1       4.453   6.376  19.153  0.00  0.00    +0.000 A 
ATOM     11  H   UNL     1       5.727   3.123  16.309  0.00  0.00    +0.000 HD
ATOM     12  H   UNL     1       7.317   6.117  18.697  0.00  0.00    +0.000 HD
ENDROOT
BRANCH   1  15
ATOM     13  O   UNL     1       2.015   8.773  18.516  0.00  0.00    +0.000 OA
ATOM     14  C   UNL     1       1.796   8.230  19.596  0.00  0.00    +0.000 C 
ATOM     15  N   UNL     1       2.224   6.946  19.914  0.00  0.00    +0.000 N 
ATOM     16  H   UNL     1       1.818   6.529  20.744  0.00  0.00    +0.000 HD
BRANCH  14  17
ATOM     17  C   UNL     1       1.015   8.929  20.612  0.00  0.00    +0.000 A 
ATOM     18  C   UNL     1       0.434   8.329  21.718  0.00  0.00    +0.000 A 
ATOM     19  C   UNL     1      -0.319   9.238  22.508  0.00  0.00    +0.000 A 
ATOM     20  C   UNL     1      -0.290  10.510  21.985  0.00  0.00    +0.000 A 
ATOM     21  S   UNL     1       0.660  10.600  20.560  0.00  0.00    +0.000 S 
ENDBRANCH  14  17
ENDBRANCH   1  15
TORSDOF 2
ENDMDL
