MODEL 1
REMARK VINA RESULT:      -8.3      0.000      0.000
REMARK  Name = 
REMARK  7 active torsions:
REMARK  status: ('A' for Active; 'I' for Inactive)
REMARK    1  A    between atoms: C_1  and  N_2
REMARK    2  A    between atoms: N_2  and  C_3
REMARK    3  A    between atoms: C_3  and  C_4
REMARK    4  A    between atoms: C_10  and  C_12
REMARK    5  A    between atoms: C_14  and  C_15
REMARK    6  A    between atoms: C_22  and  O_23
REMARK    7  A    between atoms: C_24  and  O_25
REMARK                            x       y       z     vdW  Elec       q    Type
REMARK                         _______ _______ _______ _____ _____    ______ ____
ROOT
ATOM      1  C   UNL     1       5.409   5.776  17.413  0.00  0.00    +0.000 A 
ATOM      2  N   UNL     1       5.560   5.516  16.088  0.00  0.00    +0.000 NA
ATOM      3  C   UNL     1       6.701   4.907  15.704  0.00  0.00    +0.000 A 
ATOM      4  N   UNL     1       7.672   4.530  16.560  0.00  0.00    +0.000 NA
ATOM      5  C   UNL     1       7.439   4.787  17.845  0.00  0.00    +0.000 A 
ATOM      6  C   UNL     1       6.327   5.406  18.366  0.00  0.00    +0.000 A 
ENDROOT
BRANCH   3   7
ATOM      7  C   UNL     1       6.896   4.689  14.246  0.00  0.00    +0.000 A 
ATOM      8  C   UNL     1       6.184   3.704  13.552  0.00  0.00    +0.000 A 
ATOM      9  C   UNL     1       6.380   3.542  12.182  0.00  0.00    +0.000 A 
ATOM     10  C   UNL     1       7.286   4.363  11.525  0.00  0.00    +0.000 A 
ATOM     11  C   UNL     1       7.957   5.315  12.271  0.00  0.00    +0.000 A 
ATOM     12  N   UNL     1       7.784   5.497  13.600  0.00  0.00    +0.000 NA
ENDBRANCH   3   7
BRANCH   1  15
ATOM     13  C   UNL     1       1.816   6.645  18.319  0.00  0.00    +0.000 C 
ATOM     14  N   UNL     1       2.926   5.820  17.877  0.00  0.00    +0.000 N 
ATOM     15  C   UNL     1       4.166   6.504  17.805  0.00  0.00    +0.000 C 
ATOM     16  O   UNL     1       4.252   7.710  18.067  0.00  0.00    +0.000 OA
BRANCH  14  17
ATOM     17  C   UNL     1       2.794   4.364  17.673  0.00  0.00    +0.000 C 
BRANCH  17  18
ATOM     18  C   UNL     1       3.229   3.356  18.768  0.00  0.00    +0.000 C 
ATOM     19  C   UNL     1       3.234   3.917  20.200  0.00  0.00    +0.000 C 
ATOM     20  C   UNL     1       1.842   4.215  20.740  0.00  0.00    +0.000 C 
ATOM     21  C   UNL     1       0.915   3.006  20.656  0.00  0.00    +0.000 C 
ATOM     22  C   UNL     1       0.898   2.395  19.258  0.00  0.00    +0.000 C 
ATOM     23  C   UNL     1       2.316   2.104  18.757  0.00  0.00    +0.000 C 
ENDBRANCH  17  18
ENDBRANCH  14  17
ENDBRANCH   1  15
BRANCH   5  24
ATOM     24  O   UNL     1       8.451   4.422  18.685  0.00  0.00    +0.000 OA
ATOM     25  H   UNL     1       7.988   3.756  19.233  0.00  0.00    +0.000 HD
ENDBRANCH   5  24
BRANCH   6  26
ATOM     26  O   UNL     1       6.222   5.647  19.697  0.00  0.00    +0.000 OA
ATOM     27  H   UNL     1       5.590   4.991  20.053  0.00  0.00    +0.000 HD
ENDBRANCH   6  26
TORSDOF 6
ENDMDL
MODEL 2
REMARK VINA RESULT:      -8.1      0.746      1.065
REMARK  Name = 
REMARK  7 active torsions:
REMARK  status: ('A' for Active; 'I' for Inactive)
REMARK    1  A    between atoms: C_1  and  N_2
REMARK    2  A    between atoms: N_2  and  C_3
REMARK    3  A    between atoms: C_3  and  C_4
REMARK    4  A    between atoms: C_10  and  C_12
REMARK    5  A    between atoms: C_14  and  C_15
REMARK    6  A    between atoms: C_22  and  O_23
REMARK    7  A    between atoms: C_24  and  O_25
REMARK                            x       y       z     vdW  Elec       q    Type
REMARK                         _______ _______ _______ _____ _____    ______ ____
ROOT
ATOM      1  C   UNL     1       5.609   5.810  17.610  0.00  0.00    +0.000 A 
ATOM      2  N   UNL     1       5.675   5.533  16.281  0.00  0.00    +0.000 NA
ATOM      3  C   UNL     1       6.774   4.889  15.837  0.00  0.00    +0.000 A 
ATOM      4  N   UNL     1       7.784   4.495  16.639  0.00  0.00    +0.000 NA
ATOM      5  C   UNL     1       7.634   4.770  17.932  0.00  0.00    +0.000 A 
ATOM      6  C   UNL     1       6.572   5.424  18.510  0.00  0.00    +0.000 A 
ENDROOT
BRANCH   3   7
ATOM      7  C   UNL     1       6.877   4.652  14.373  0.00  0.00    +0.000 A 
ATOM      8  C   UNL     1       6.103   3.677  13.734  0.00  0.00    +0.000 A 
ATOM      9  C   UNL     1       6.212   3.496  12.357  0.00  0.00    +0.000 A 
ATOM     10  C   UNL     1       7.096   4.289  11.637  0.00  0.00    +0.000 A 
ATOM     11  C   UNL     1       7.832   5.232  12.331  0.00  0.00    +0.000 A 
ATOM     12  N   UNL     1       7.743   5.432  13.666  0.00  0.00    +0.000 NA
ENDBRANCH   3   7
BRANCH   1  15
ATOM     13  C   UNL     1       2.385   6.858  19.338  0.00  0.00    +0.000 C 
ATOM     14  N   UNL     1       3.469   5.978  18.942  0.00  0.00    +0.000 N 
ATOM     15  C   UNL     1       4.411   6.576  18.066  0.00  0.00    +0.000 C 
ATOM     16  O   UNL     1       4.270   7.737  17.662  0.00  0.00    +0.000 OA
BRANCH  14  17
ATOM     17  C   UNL     1       3.649   4.635  19.527  0.00  0.00    +0.000 C 
BRANCH  17  18
ATOM     18  C   UNL     1       3.531   3.357  18.657  0.00  0.00    +0.000 C 
ATOM     19  C   UNL     1       3.089   2.095  19.416  0.00  0.00    +0.000 C 
ATOM     20  C   UNL     1       1.643   2.149  19.893  0.00  0.00    +0.000 C 
ATOM     21  C   UNL     1       0.667   2.446  18.759  0.00  0.00    +0.000 C 
ATOM     22  C   UNL     1       1.081   3.676  17.956  0.00  0.00    +0.000 C 
ATOM     23  C   UNL     1       2.536   3.577  17.489  0.00  0.00    +0.000 C 
ENDBRANCH  17  18
ENDBRANCH  14  17
ENDBRANCH   1  15
BRANCH   5  24
ATOM     24  O   UNL     1       8.684   4.386  18.716  0.00  0.00    +0.000 OA
ATOM     25  H   UNL     1       8.331   3.548  19.077  0.00  0.00    +0.000 HD
ENDBRANCH   5  24
BRANCH   6  26
ATOM     26  O   UNL     1       6.552   5.681  19.843  0.00  0.00    +0.000 OA
ATOM     27  H   UNL     1       5.614   5.797  20.094  0.00  0.00    +0.000 HD
ENDBRANCH   6  26
TORSDOF 6
ENDMDL
MODEL 3
REMARK VINA RESULT:      -7.9      1.536      2.940
REMARK  Name = 
REMARK  7 active torsions:
REMARK  status: ('A' for Active; 'I' for Inactive)
REMARK    1  A    between atoms: C_1  and  N_2
REMARK    2  A    between atoms: N_2  and  C_3
REMARK    3  A    between atoms: C_3  and  C_4
REMARK    4  A    between atoms: C_10  and  C_12
REMARK    5  A    between atoms: C_14  and  C_15
REMARK    6  A    between atoms: C_22  and  O_23
REMARK    7  A    between atoms: C_24  and  O_25
REMARK                            x       y       z     vdW  Elec       q    Type
REMARK                         _______ _______ _______ _____ _____    ______ ____
ROOT
ATOM      1  C   UNL     1       5.132   3.993  17.757  0.00  0.00    +0.000 A 
ATOM      2  N   UNL     1       5.399   3.922  16.426  0.00  0.00    +0.000 NA
ATOM      3  C   UNL     1       6.527   4.520  15.989  0.00  0.00    +0.000 A 
ATOM      4  N   UNL     1       7.399   5.154  16.799  0.00  0.00    +0.000 NA
ATOM      5  C   UNL     1       7.089   5.153  18.093  0.00  0.00    +0.000 A 
ATOM      6  C   UNL     1       5.972   4.590  18.665  0.00  0.00    +0.000 A 
ENDROOT
BRANCH   3   7
ATOM      7  C   UNL     1       6.779   4.504  14.523  0.00  0.00    +0.000 A 
ATOM      8  C   UNL     1       6.073   3.649  13.669  0.00  0.00    +0.000 A 
ATOM      9  C   UNL     1       6.324   3.676  12.299  0.00  0.00    +0.000 A 
ATOM     10  C   UNL     1       7.278   4.553  11.801  0.00  0.00    +0.000 A 
ATOM     11  C   UNL     1       7.940   5.369  12.701  0.00  0.00    +0.000 A 
ATOM     12  N   UNL     1       7.715   5.366  14.035  0.00  0.00    +0.000 NA
ENDBRANCH   3   7
BRANCH   1  15
ATOM     13  C   UNL     1       1.476   3.392  18.624  0.00  0.00    +0.000 C 
ATOM     14  N   UNL     1       2.651   4.136  18.210  0.00  0.00    +0.000 N 
ATOM     15  C   UNL     1       3.849   3.377  18.207  0.00  0.00    +0.000 C 
ATOM     16  O   UNL     1       3.863   2.194  18.569  0.00  0.00    +0.000 OA
BRANCH  14  17
ATOM     17  C   UNL     1       2.569   5.516  17.692  0.00  0.00    +0.000 C 
BRANCH  17  18
ATOM     18  C   UNL     1       3.379   6.668  18.340  0.00  0.00    +0.000 C 
ATOM     19  C   UNL     1       3.218   8.037  17.660  0.00  0.00    +0.000 C 
ATOM     20  C   UNL     1       1.830   8.642  17.835  0.00  0.00    +0.000 C 
ATOM     21  C   UNL     1       1.417   8.735  19.300  0.00  0.00    +0.000 C 
ATOM     22  C   UNL     1       1.588   7.405  20.028  0.00  0.00    +0.000 C 
ATOM     23  C   UNL     1       2.996   6.836  19.833  0.00  0.00    +0.000 C 
ENDBRANCH  17  18
ENDBRANCH  14  17
ENDBRANCH   1  15
BRANCH   5  24
ATOM     24  O   UNL     1       7.973   5.827  18.885  0.00  0.00    +0.000 OA
ATOM     25  H   UNL     1       8.673   5.150  18.976  0.00  0.00    +0.000 HD
ENDBRANCH   5  24
BRANCH   6  26
ATOM     26  O   UNL     1       5.747   4.689  20.000  0.00  0.00    +0.000 OA
ATOM     27  H   UNL     1       5.905   5.623  20.244  0.00  0.00    +0.000 HD
ENDBRANCH   6  26
TORSDOF 6
ENDMDL
MODEL 4
REMARK VINA RESULT:      -7.8      0.738      1.274
REMARK  Name = 
REMARK  7 active torsions:
REMARK  status: ('A' for Active; 'I' for Inactive)
REMARK    1  A    between atoms: C_1  and  N_2
REMARK    2  A    between atoms: N_2  and  C_3
REMARK    3  A    between atoms: C_3  and  C_4
REMARK    4  A    between atoms: C_10  and  C_12
REMARK    5  A    between atoms: C_14  and  C_15
REMARK    6  A    between atoms: C_22  and  O_23
REMARK    7  A    between atoms: C_24  and  O_25
REMARK                            x       y       z     vdW  Elec       q    Type
REMARK                         _______ _______ _______ _____ _____    ______ ____
ROOT
ATOM      1  C   UNL     1       5.381   6.075  17.320  0.00  0.00    +0.000 A 
ATOM      2  N   UNL     1       5.498   5.732  16.010  0.00  0.00    +0.000 NA
ATOM      3  C   UNL     1       6.560   4.976  15.662  0.00  0.00    +0.000 A 
ATOM      4  N   UNL     1       7.483   4.533  16.539  0.00  0.00    +0.000 NA
ATOM      5  C   UNL     1       7.284   4.881  17.809  0.00  0.00    +0.000 A 
ATOM      6  C   UNL     1       6.253   5.650  18.293  0.00  0.00    +0.000 A 
ENDROOT
BRANCH   3   7
ATOM      7  C   UNL     1       6.725   4.663  14.217  0.00  0.00    +0.000 A 
ATOM      8  C   UNL     1       5.987   3.647  13.600  0.00  0.00    +0.000 A 
ATOM      9  C   UNL     1       6.155   3.395  12.240  0.00  0.00    +0.000 A 
ATOM     10  C   UNL     1       7.060   4.159  11.516  0.00  0.00    +0.000 A 
ATOM     11  C   UNL     1       7.758   5.146  12.188  0.00  0.00    +0.000 A 
ATOM     12  N   UNL     1       7.613   5.414  13.506  0.00  0.00    +0.000 NA
ENDBRANCH   3   7
BRANCH   1  15
ATOM     13  C   UNL     1       2.040   7.402  18.566  0.00  0.00    +0.000 C 
ATOM     14  N   UNL     1       3.050   6.415  18.232  0.00  0.00    +0.000 N 
ATOM     15  C   UNL     1       4.233   6.961  17.670  0.00  0.00    +0.000 C 
ATOM     16  O   UNL     1       4.344   8.175  17.460  0.00  0.00    +0.000 OA
BRANCH  14  17
ATOM     17  C   UNL     1       2.911   4.990  18.593  0.00  0.00    +0.000 C 
BRANCH  17  18
ATOM     18  C   UNL     1       1.520   4.363  18.869  0.00  0.00    +0.000 C 
ATOM     19  C   UNL     1       1.415   2.860  18.566  0.00  0.00    +0.000 C 
ATOM     20  C   UNL     1       2.223   1.990  19.521  0.00  0.00    +0.000 C 
ATOM     21  C   UNL     1       1.876   2.253  20.982  0.00  0.00    +0.000 C 
ATOM     22  C   UNL     1       1.938   3.738  21.326  0.00  0.00    +0.000 C 
ATOM     23  C   UNL     1       1.107   4.575  20.348  0.00  0.00    +0.000 C 
ENDBRANCH  17  18
ENDBRANCH  14  17
ENDBRANCH   1  15
BRANCH   5  24
ATOM     24  O   UNL     1       8.249   4.445  18.670  0.00  0.00    +0.000 OA
ATOM     25  H   UNL     1       9.026   4.450  18.074  0.00  0.00    +0.000 HD
ENDBRANCH   5  24
BRANCH   6  26
ATOM     26  O   UNL     1       6.180   5.969  19.610  0.00  0.00    +0.000 OA
ATOM     27  H   UNL     1       6.468   5.178  20.108  0.00  0.00    +0.000 HD
ENDBRANCH   6  26
TORSDOF 6
ENDMDL
MODEL 5
REMARK VINA RESULT:      -7.7      0.893      1.527
REMARK  Name = 
REMARK  7 active torsions:
REMARK  status: ('A' for Active; 'I' for Inactive)
REMARK    1  A    between atoms: C_1  and  N_2
REMARK    2  A    between atoms: N_2  and  C_3
REMARK    3  A    between atoms: C_3  and  C_4
REMARK    4  A    between atoms: C_10  and  C_12
REMARK    5  A    between atoms: C_14  and  C_15
REMARK    6  A    between atoms: C_22  and  O_23
REMARK    7  A    between atoms: C_24  and  O_25
REMARK                            x       y       z     vdW  Elec       q    Type
REMARK                         _______ _______ _______ _____ _____    ______ ____
ROOT
ATOM      1  C   UNL     1       5.408   5.976  17.557  0.00  0.00    +0.000 A 
ATOM      2  N   UNL     1       5.498   5.642  16.242  0.00  0.00    +0.000 NA
ATOM      3  C   UNL     1       6.590   4.951  15.854  0.00  0.00    +0.000 A 
ATOM      4  N   UNL     1       7.569   4.563  16.696  0.00  0.00    +0.000 NA
ATOM      5  C   UNL     1       7.395   4.897  17.973  0.00  0.00    +0.000 A 
ATOM      6  C   UNL     1       6.338   5.603  18.496  0.00  0.00    +0.000 A 
ENDROOT
BRANCH   3   7
ATOM      7  C   UNL     1       6.721   4.649  14.403  0.00  0.00    +0.000 A 
ATOM      8  C   UNL     1       5.912   3.693  13.779  0.00  0.00    +0.000 A 
ATOM      9  C   UNL     1       6.051   3.452  12.414  0.00  0.00    +0.000 A 
ATOM     10  C   UNL     1       6.998   4.165  11.692  0.00  0.00    +0.000 A 
ATOM     11  C   UNL     1       7.765   5.094  12.371  0.00  0.00    +0.000 A 
ATOM     12  N   UNL     1       7.650   5.351  13.694  0.00  0.00    +0.000 NA
ENDBRANCH   3   7
BRANCH   1  15
ATOM     13  C   UNL     1       2.228   7.225  19.232  0.00  0.00    +0.000 C 
ATOM     14  N   UNL     1       3.302   6.303  18.913  0.00  0.00    +0.000 N 
ATOM     15  C   UNL     1       4.222   6.792  17.950  0.00  0.00    +0.000 C 
ATOM     16  O   UNL     1       4.070   7.899  17.418  0.00  0.00    +0.000 OA
BRANCH  14  17
ATOM     17  C   UNL     1       3.498   5.037  19.646  0.00  0.00    +0.000 C 
BRANCH  17  18
ATOM     18  C   UNL     1       2.398   3.944  19.670  0.00  0.00    +0.000 C 
ATOM     19  C   UNL     1       1.749   3.648  18.309  0.00  0.00    +0.000 C 
ATOM     20  C   UNL     1       2.689   2.967  17.322  0.00  0.00    +0.000 C 
ATOM     21  C   UNL     1       3.309   1.695  17.892  0.00  0.00    +0.000 C 
ATOM     22  C   UNL     1       3.942   1.932  19.260  0.00  0.00    +0.000 C 
ATOM     23  C   UNL     1       2.962   2.609  20.222  0.00  0.00    +0.000 C 
ENDBRANCH  17  18
ENDBRANCH  14  17
ENDBRANCH   1  15
BRANCH   5  24
ATOM     24  O   UNL     1       8.415   4.518  18.798  0.00  0.00    +0.000 OA
ATOM     25  H   UNL     1       8.001   3.750  19.241  0.00  0.00    +0.000 HD
ENDBRANCH   5  24
BRANCH   6  26
ATOM     26  O   UNL     1       6.294   5.916  19.816  0.00  0.00    +0.000 OA
ATOM     27  H   UNL     1       5.384   6.224  20.002  0.00  0.00    +0.000 HD
ENDBRANCH   6  26
TORSDOF 6
ENDMDL
MODEL 6
REMARK VINA RESULT:      -7.6      0.878      1.405
REMARK  Name = 
REMARK  7 active torsions:
REMARK  status: ('A' for Active; 'I' for Inactive)
REMARK    1  A    between atoms: C_1  and  N_2
REMARK    2  A    between atoms: N_2  and  C_3
REMARK    3  A    between atoms: C_3  and  C_4
REMARK    4  A    between atoms: C_10  and  C_12
REMARK    5  A    between atoms: C_14  and  C_15
REMARK    6  A    between atoms: C_22  and  O_23
REMARK    7  A    between atoms: C_24  and  O_25
REMARK                            x       y       z     vdW  Elec       q    Type
REMARK                         _______ _______ _______ _____ _____    ______ ____
ROOT
ATOM      1  C   UNL     1       5.025   5.308  17.520  0.00  0.00    +0.000 A 
ATOM      2  N   UNL     1       5.271   5.106  16.199  0.00  0.00    +0.000 NA
ATOM      3  C   UNL     1       6.537   4.802  15.846  0.00  0.00    +0.000 A 
ATOM      4  N   UNL     1       7.548   4.671  16.728  0.00  0.00    +0.000 NA
ATOM      5  C   UNL     1       7.225   4.850  18.006  0.00  0.00    +0.000 A 
ATOM      6  C   UNL     1       5.980   5.169  18.497  0.00  0.00    +0.000 A 
ENDROOT
BRANCH   3   7
ATOM      7  C   UNL     1       6.819   4.652  14.393  0.00  0.00    +0.000 A 
ATOM      8  C   UNL     1       6.149   3.704  13.612  0.00  0.00    +0.000 A 
ATOM      9  C   UNL     1       6.425   3.605  12.251  0.00  0.00    +0.000 A 
ATOM     10  C   UNL     1       7.370   4.453  11.688  0.00  0.00    +0.000 A 
ATOM     11  C   UNL     1       7.996   5.366  12.516  0.00  0.00    +0.000 A 
ATOM     12  N   UNL     1       7.745   5.486  13.840  0.00  0.00    +0.000 NA
ENDBRANCH   3   7
BRANCH   1  15
ATOM     13  C   UNL     1       1.267   5.297  18.123  0.00  0.00    +0.000 C 
ATOM     14  N   UNL     1       2.556   4.795  17.683  0.00  0.00    +0.000 N 
ATOM     15  C   UNL     1       3.630   5.702  17.879  0.00  0.00    +0.000 C 
ATOM     16  O   UNL     1       3.443   6.830  18.350  0.00  0.00    +0.000 OA
BRANCH  14  17
ATOM     17  C   UNL     1       2.746   3.407  17.220  0.00  0.00    +0.000 C 
BRANCH  17  18
ATOM     18  C   UNL     1       2.354   2.201  18.114  0.00  0.00    +0.000 C 
ATOM     19  C   UNL     1       3.525   1.297  18.531  0.00  0.00    +0.000 C 
ATOM     20  C   UNL     1       4.491   1.963  19.503  0.00  0.00    +0.000 C 
ATOM     21  C   UNL     1       3.787   2.509  20.740  0.00  0.00    +0.000 C 
ATOM     22  C   UNL     1       2.596   3.392  20.377  0.00  0.00    +0.000 C 
ATOM     23  C   UNL     1       1.647   2.682  19.406  0.00  0.00    +0.000 C 
ENDBRANCH  17  18
ENDBRANCH  14  17
ENDBRANCH   1  15
BRANCH   5  24
ATOM     24  O   UNL     1       8.273   4.741  18.874  0.00  0.00    +0.000 OA
ATOM     25  H   UNL     1       8.604   5.662  18.860  0.00  0.00    +0.000 HD
ENDBRANCH   5  24
BRANCH   6  26
ATOM     26  O   UNL     1       5.784   5.365  19.825  0.00  0.00    +0.000 OA
ATOM     27  H   UNL     1       6.631   5.159  20.269  0.00  0.00    +0.000 HD
ENDBRANCH   6  26
TORSDOF 6
ENDMDL
MODEL 7
REMARK VINA RESULT:      -7.6      1.003      1.360
REMARK  Name = 
REMARK  7 active torsions:
REMARK  status: ('A' for Active; 'I' for Inactive)
REMARK    1  A    between atoms: C_1  and  N_2
REMARK    2  A    between atoms: N_2  and  C_3
REMARK    3  A    between atoms: C_3  and  C_4
REMARK    4  A    between atoms: C_10  and  C_12
REMARK    5  A    between atoms: C_14  and  C_15
REMARK    6  A    between atoms: C_22  and  O_23
REMARK    7  A    between atoms: C_24  and  O_25
REMARK                            x       y       z     vdW  Elec       q    Type
REMARK                         _______ _______ _______ _____ _____    ______ ____
ROOT
ATOM      1  C   UNL     1       5.507   5.847  17.430  0.00  0.00    +0.000 A 
ATOM      2  N   UNL     1       5.556   5.518  16.113  0.00  0.00    +0.000 NA
ATOM      3  C   UNL     1       6.635   4.828  15.688  0.00  0.00    +0.000 A 
ATOM      4  N   UNL     1       7.639   4.437  16.498  0.00  0.00    +0.000 NA
ATOM      5  C   UNL     1       7.506   4.765  17.781  0.00  0.00    +0.000 A 
ATOM      6  C   UNL     1       6.465   5.470  18.340  0.00  0.00    +0.000 A 
ENDROOT
BRANCH   3   7
ATOM      7  C   UNL     1       6.721   4.532  14.233  0.00  0.00    +0.000 A 
ATOM      8  C   UNL     1       7.630   5.198  13.403  0.00  0.00    +0.000 A 
ATOM      9  C   UNL     1       7.695   4.880  12.048  0.00  0.00    +0.000 A 
ATOM     10  C   UNL     1       6.848   3.904  11.540  0.00  0.00    +0.000 A 
ATOM     11  C   UNL     1       5.972   3.287  12.414  0.00  0.00    +0.000 A 
ATOM     12  N   UNL     1       5.890   3.573  13.734  0.00  0.00    +0.000 NA
ENDBRANCH   3   7
BRANCH   1  15
ATOM     13  C   UNL     1       2.408   7.112  19.241  0.00  0.00    +0.000 C 
ATOM     14  N   UNL     1       3.476   6.192  18.892  0.00  0.00    +0.000 N 
ATOM     15  C   UNL     1       4.334   6.661  17.864  0.00  0.00    +0.000 C 
ATOM     16  O   UNL     1       4.138   7.748  17.307  0.00  0.00    +0.000 OA
BRANCH  14  17
ATOM     17  C   UNL     1       3.728   4.953  19.652  0.00  0.00    +0.000 C 
BRANCH  17  18
ATOM     18  C   UNL     1       3.131   3.595  19.198  0.00  0.00    +0.000 C 
ATOM     19  C   UNL     1       3.405   2.417  20.146  0.00  0.00    +0.000 C 
ATOM     20  C   UNL     1       2.672   2.525  21.477  0.00  0.00    +0.000 C 
ATOM     21  C   UNL     1       1.169   2.714  21.300  0.00  0.00    +0.000 C 
ATOM     22  C   UNL     1       0.846   3.857  20.342  0.00  0.00    +0.000 C 
ATOM     23  C   UNL     1       1.596   3.705  19.015  0.00  0.00    +0.000 C 
ENDBRANCH  17  18
ENDBRANCH  14  17
ENDBRANCH   1  15
BRANCH   5  24
ATOM     24  O   UNL     1       8.551   4.384  18.572  0.00  0.00    +0.000 OA
ATOM     25  H   UNL     1       8.254   3.487  18.827  0.00  0.00    +0.000 HD
ENDBRANCH   5  24
BRANCH   6  26
ATOM     26  O   UNL     1       6.462   5.778  19.661  0.00  0.00    +0.000 OA
ATOM     27  H   UNL     1       6.610   4.941  20.146  0.00  0.00    +0.000 HD
ENDBRANCH   6  26
TORSDOF 6
ENDMDL
MODEL 8
REMARK VINA RESULT:      -7.4      2.997      7.121
REMARK  Name = 
REMARK  7 active torsions:
REMARK  status: ('A' for Active; 'I' for Inactive)
REMARK    1  A    between atoms: C_1  and  N_2
REMARK    2  A    between atoms: N_2  and  C_3
REMARK    3  A    between atoms: C_3  and  C_4
REMARK    4  A    between atoms: C_10  and  C_12
REMARK    5  A    between atoms: C_14  and  C_15
REMARK    6  A    between atoms: C_22  and  O_23
REMARK    7  A    between atoms: C_24  and  O_25
REMARK                            x       y       z     vdW  Elec       q    Type
REMARK                         _______ _______ _______ _____ _____    ______ ____
ROOT
ATOM      1  C   UNL     1       2.765   4.334  18.787  0.00  0.00    +0.000 A 
ATOM      2  N   UNL     1       2.455   5.655  18.863  0.00  0.00    +0.000 NA
ATOM      3  C   UNL     1       2.034   6.123  20.056  0.00  0.00    +0.000 A 
ATOM      4  N   UNL     1       1.929   5.361  21.163  0.00  0.00    +0.000 NA
ATOM      5  C   UNL     1       2.282   4.086  21.021  0.00  0.00    +0.000 A 
ATOM      6  C   UNL     1       2.718   3.483  19.864  0.00  0.00    +0.000 A 
ENDROOT
BRANCH   3   7
ATOM      7  C   UNL     1       1.628   7.552  20.119  0.00  0.00    +0.000 A 
ATOM      8  C   UNL     1       1.106   8.114  21.289  0.00  0.00    +0.000 A 
ATOM      9  C   UNL     1       0.754   9.462  21.315  0.00  0.00    +0.000 A 
ATOM     10  C   UNL     1       0.924  10.229  20.171  0.00  0.00    +0.000 A 
ATOM     11  C   UNL     1       1.443   9.611  19.047  0.00  0.00    +0.000 A 
ATOM     12  N   UNL     1       1.796   8.306  18.995  0.00  0.00    +0.000 NA
ENDBRANCH   3   7
BRANCH   1  15
ATOM     13  C   UNL     1       4.752   3.444  15.666  0.00  0.00    +0.000 C 
ATOM     14  N   UNL     1       4.490   4.034  16.965  0.00  0.00    +0.000 N 
ATOM     15  C   UNL     1       3.170   3.827  17.442  0.00  0.00    +0.000 C 
ATOM     16  O   UNL     1       2.328   3.225  16.765  0.00  0.00    +0.000 OA
BRANCH  14  17
ATOM     17  C   UNL     1       5.554   4.656  17.778  0.00  0.00    +0.000 C 
BRANCH  17  18
ATOM     18  C   UNL     1       6.985   4.853  17.214  0.00  0.00    +0.000 C 
ATOM     19  C   UNL     1       7.212   6.179  16.470  0.00  0.00    +0.000 C 
ATOM     20  C   UNL     1       7.185   7.399  17.381  0.00  0.00    +0.000 C 
ATOM     21  C   UNL     1       8.164   7.279  18.544  0.00  0.00    +0.000 C 
ATOM     22  C   UNL     1       7.997   5.963  19.298  0.00  0.00    +0.000 C 
ATOM     23  C   UNL     1       8.039   4.763  18.347  0.00  0.00    +0.000 C 
ENDBRANCH  17  18
ENDBRANCH  14  17
ENDBRANCH   1  15
BRANCH   5  24
ATOM     24  O   UNL     1       2.136   3.331  22.149  0.00  0.00    +0.000 OA
ATOM     25  H   UNL     1       1.793   4.009  22.766  0.00  0.00    +0.000 HD
ENDBRANCH   5  24
BRANCH   6  26
ATOM     26  O   UNL     1       3.012   2.159  19.836  0.00  0.00    +0.000 OA
ATOM     27  H   UNL     1       2.233   1.689  20.194  0.00  0.00    +0.000 HD
ENDBRANCH   6  26
TORSDOF 6
ENDMDL
MODEL 9
REMARK VINA RESULT:      -7.3      3.412      4.963
REMARK  Name = 
REMARK  7 active torsions:
REMARK  status: ('A' for Active; 'I' for Inactive)
REMARK    1  A    between atoms: C_1  and  N_2
REMARK    2  A    between atoms: N_2  and  C_3
REMARK    3  A    between atoms: C_3  and  C_4
REMARK    4  A    between atoms: C_10  and  C_12
REMARK    5  A    between atoms: C_14  and  C_15
REMARK    6  A    between atoms: C_22  and  O_23
REMARK    7  A    between atoms: C_24  and  O_25
REMARK                            x       y       z     vdW  Elec       q    Type
REMARK                         _______ _______ _______ _____ _____    ______ ____
ROOT
ATOM      1  C   UNL     1       7.416   6.045  17.075  0.00  0.00    +0.000 A 
ATOM      2  N   UNL     1       7.713   7.371  17.073  0.00  0.00    +0.000 NA
ATOM      3  C   UNL     1       8.169   7.903  18.226  0.00  0.00    +0.000 A 
ATOM      4  N   UNL     1       8.363   7.190  19.354  0.00  0.00    +0.000 NA
ATOM      5  C   UNL     1       8.083   5.892  19.270  0.00  0.00    +0.000 A 
ATOM      6  C   UNL     1       7.606   5.229  18.163  0.00  0.00    +0.000 A 
ENDROOT
BRANCH   3   7
ATOM      7  C   UNL     1       8.425   9.368  18.243  0.00  0.00    +0.000 A 
ATOM      8  C   UNL     1       9.370   9.936  19.104  0.00  0.00    +0.000 A 
ATOM      9  C   UNL     1       9.596  11.311  19.077  0.00  0.00    +0.000 A 
ATOM     10  C   UNL     1       8.872  12.099  18.193  0.00  0.00    +0.000 A 
ATOM     11  C   UNL     1       7.952  11.474  17.371  0.00  0.00    +0.000 A 
ATOM     12  N   UNL     1       7.716  10.142  17.373  0.00  0.00    +0.000 NA
ENDBRANCH   3   7
BRANCH   1  15
ATOM     13  C   UNL     1       5.096   4.567  14.445  0.00  0.00    +0.000 C 
ATOM     14  N   UNL     1       5.516   5.029  15.755  0.00  0.00    +0.000 N 
ATOM     15  C   UNL     1       6.856   5.493  15.806  0.00  0.00    +0.000 C 
ATOM     16  O   UNL     1       7.588   5.456  14.810  0.00  0.00    +0.000 OA
BRANCH  14  17
ATOM     17  C   UNL     1       4.578   5.147  16.889  0.00  0.00    +0.000 C 
BRANCH  17  18
ATOM     18  C   UNL     1       4.118   3.897  17.684  0.00  0.00    +0.000 C 
ATOM     19  C   UNL     1       4.120   4.065  19.212  0.00  0.00    +0.000 C 
ATOM     20  C   UNL     1       3.056   5.031  19.719  0.00  0.00    +0.000 C 
ATOM     21  C   UNL     1       1.658   4.660  19.236  0.00  0.00    +0.000 C 
ATOM     22  C   UNL     1       1.610   4.453  17.725  0.00  0.00    +0.000 C 
ATOM     23  C   UNL     1       2.690   3.471  17.260  0.00  0.00    +0.000 C 
ENDBRANCH  17  18
ENDBRANCH  14  17
ENDBRANCH   1  15
BRANCH   5  24
ATOM     24  O   UNL     1       8.259   5.201  20.434  0.00  0.00    +0.000 OA
ATOM     25  H   UNL     1       8.408   5.943  21.053  0.00  0.00    +0.000 HD
ENDBRANCH   5  24
BRANCH   6  26
ATOM     26  O   UNL     1       7.321   3.903  18.214  0.00  0.00    +0.000 OA
ATOM     27  H   UNL     1       7.284   3.588  17.288  0.00  0.00    +0.000 HD
ENDBRANCH   6  26
TORSDOF 6
ENDMDL
