MODEL 1
REMARK VINA RESULT:      -7.5      0.000      0.000
REMARK  Name = 
REMARK  6 active torsions:
REMARK  status: ('A' for Active; 'I' for Inactive)
REMARK    1  A    between atoms: C_1  and  O_2
REMARK    2  A    between atoms: O_2  and  C_3
REMARK    3  A    between atoms: C_6  and  C_7
REMARK    4  A    between atoms: N_8  and  N_9
REMARK    5  A    between atoms: C_10  and  C_12
REMARK    6  A    between atoms: C_17  and  C_18
REMARK                            x       y       z     vdW  Elec       q    Type
REMARK                         _______ _______ _______ _____ _____    ______ ____
ROOT
ATOM      1  N   UNL     1       7.525   5.012  17.408  0.00  0.00    +0.000 N 
ATOM      2  C   UNL     1       7.119   5.930  16.464  0.00  0.00    +0.000 C 
ATOM      3  O   UNL     1       6.842   7.108  16.617  0.00  0.00    +0.000 OA
ATOM      4  H   UNL     1       7.837   4.102  17.088  0.00  0.00    +0.000 HD
ENDROOT
BRANCH   2   5
ATOM      5  C   UNL     1       6.997   5.323  15.087  0.00  0.00    +0.000 C 
ATOM      6  N   UNL     1       7.922   5.456  14.174  0.00  0.00    +0.000 NA
ATOM      7  N   UNL     1       7.473   4.734  13.103  0.00  0.00    +0.000 N 
ATOM      8  C   UNL     1       6.270   4.069  13.308  0.00  0.00    +0.000 C 
ATOM      9  O   UNL     1       5.727   3.294  12.542  0.00  0.00    +0.000 OA
ATOM     10  C   UNL     1       5.796   4.519  14.669  0.00  0.00    +0.000 C 
ATOM     11  C   UNL     1       5.462   3.343  15.563  0.00  0.00    +0.000 C 
ATOM     12  H   UNL     1       8.040   4.615  12.270  0.00  0.00    +0.000 HD
ENDBRANCH   2   5
BRANCH   1  14
ATOM     13  C   UNL     1       6.422   5.226  19.429  0.00  0.00    +0.000 C 
ATOM     14  N   UNL     1       7.512   5.335  18.726  0.00  0.00    +0.000 NA
BRANCH  13  18
ATOM     15  C   UNL     1       2.511   3.942  18.261  0.00  0.00    +0.000 A 
ATOM     16  C   UNL     1       3.434   3.049  18.812  0.00  0.00    +0.000 A 
ATOM     17  C   UNL     1       4.701   3.489  19.204  0.00  0.00    +0.000 A 
ATOM     18  C   UNL     1       5.056   4.830  19.030  0.00  0.00    +0.000 A 
ATOM     19  C   UNL     1       4.116   5.737  18.536  0.00  0.00    +0.000 A 
ATOM     20  C   UNL     1       2.856   5.287  18.126  0.00  0.00    +0.000 A 
BRANCH  15  22
ATOM     21  C   UNL     1       0.744   2.456  18.791  0.00  0.00    +0.000 C 
ATOM     22  O   UNL     1       1.323   3.383  17.880  0.00  0.00    +0.000 OA
ENDBRANCH  15  22
ENDBRANCH  13  18
ENDBRANCH   1  14
TORSDOF 4
ENDMDL
MODEL 2
REMARK VINA RESULT:      -7.3      0.143      1.088
REMARK  Name = 
REMARK  6 active torsions:
REMARK  status: ('A' for Active; 'I' for Inactive)
REMARK    1  A    between atoms: C_1  and  O_2
REMARK    2  A    between atoms: O_2  and  C_3
REMARK    3  A    between atoms: C_6  and  C_7
REMARK    4  A    between atoms: N_8  and  N_9
REMARK    5  A    between atoms: C_10  and  C_12
REMARK    6  A    between atoms: C_17  and  C_18
REMARK                            x       y       z     vdW  Elec       q    Type
REMARK                         _______ _______ _______ _____ _____    ______ ____
ROOT
ATOM      1  N   UNL     1       7.474   5.210  17.381  0.00  0.00    +0.000 N 
ATOM      2  C   UNL     1       7.005   6.052  16.395  0.00  0.00    +0.000 C 
ATOM      3  O   UNL     1       6.632   7.208  16.496  0.00  0.00    +0.000 OA
ATOM      4  H   UNL     1       7.863   4.317  17.102  0.00  0.00    +0.000 HD
ENDROOT
BRANCH   2   5
ATOM      5  C   UNL     1       6.950   5.380  15.044  0.00  0.00    +0.000 C 
ATOM      6  N   UNL     1       7.896   5.509  14.154  0.00  0.00    +0.000 NA
ATOM      7  N   UNL     1       7.508   4.722  13.104  0.00  0.00    +0.000 N 
ATOM      8  C   UNL     1       6.327   4.019  13.304  0.00  0.00    +0.000 C 
ATOM      9  O   UNL     1       5.838   3.190  12.559  0.00  0.00    +0.000 OA
ATOM     10  C   UNL     1       5.794   4.509  14.630  0.00  0.00    +0.000 C 
ATOM     11  C   UNL     1       5.479   3.362  15.566  0.00  0.00    +0.000 C 
ATOM     12  H   UNL     1       8.104   4.590  12.294  0.00  0.00    +0.000 HD
ENDBRANCH   2   5
BRANCH   1  14
ATOM     13  C   UNL     1       6.353   5.368  19.397  0.00  0.00    +0.000 C 
ATOM     14  N   UNL     1       7.419   5.587  18.684  0.00  0.00    +0.000 NA
BRANCH  13  18
ATOM     15  C   UNL     1       2.519   3.802  18.318  0.00  0.00    +0.000 A 
ATOM     16  C   UNL     1       2.841   5.145  18.106  0.00  0.00    +0.000 A 
ATOM     17  C   UNL     1       4.104   5.636  18.448  0.00  0.00    +0.000 A 
ATOM     18  C   UNL     1       5.049   4.782  19.023  0.00  0.00    +0.000 A 
ATOM     19  C   UNL     1       4.753   3.427  19.181  0.00  0.00    +0.000 A 
ATOM     20  C   UNL     1       3.480   2.945  18.855  0.00  0.00    +0.000 A 
BRANCH  15  22
ATOM     21  C   UNL     1       0.627   2.456  18.788  0.00  0.00    +0.000 C 
ATOM     22  O   UNL     1       1.241   3.454  17.980  0.00  0.00    +0.000 OA
ENDBRANCH  15  22
ENDBRANCH  13  18
ENDBRANCH   1  14
TORSDOF 4
ENDMDL
MODEL 3
REMARK VINA RESULT:      -6.8      2.635      5.890
REMARK  Name = 
REMARK  6 active torsions:
REMARK  status: ('A' for Active; 'I' for Inactive)
REMARK    1  A    between atoms: C_1  and  O_2
REMARK    2  A    between atoms: O_2  and  C_3
REMARK    3  A    between atoms: C_6  and  C_7
REMARK    4  A    between atoms: N_8  and  N_9
REMARK    5  A    between atoms: C_10  and  C_12
REMARK    6  A    between atoms: C_17  and  C_18
REMARK                            x       y       z     vdW  Elec       q    Type
REMARK                         _______ _______ _______ _____ _____    ______ ____
ROOT
ATOM      1  N   UNL     1       5.024   4.619  19.678  0.00  0.00    +0.000 N 
ATOM      2  C   UNL     1       3.788   5.226  19.640  0.00  0.00    +0.000 C 
ATOM      3  O   UNL     1       3.525   6.409  19.500  0.00  0.00    +0.000 OA
ATOM      4  H   UNL     1       5.060   3.606  19.674  0.00  0.00    +0.000 HD
ENDROOT
BRANCH   2   5
ATOM      5  C   UNL     1       2.658   4.243  19.830  0.00  0.00    +0.000 C 
ATOM      6  N   UNL     1       2.067   4.063  20.980  0.00  0.00    +0.000 NA
ATOM      7  N   UNL     1       1.082   3.146  20.736  0.00  0.00    +0.000 N 
ATOM      8  C   UNL     1       0.972   2.744  19.410  0.00  0.00    +0.000 C 
ATOM      9  O   UNL     1       0.117   2.017  18.939  0.00  0.00    +0.000 OA
ATOM     10  C   UNL     1       2.133   3.398  18.701  0.00  0.00    +0.000 C 
ATOM     11  C   UNL     1       1.682   4.163  17.475  0.00  0.00    +0.000 C 
ATOM     12  H   UNL     1       0.422   2.873  21.457  0.00  0.00    +0.000 HD
ENDBRANCH   2   5
BRANCH   1  14
ATOM     13  C   UNL     1       6.777   5.681  18.608  0.00  0.00    +0.000 C 
ATOM     14  N   UNL     1       6.154   5.370  19.707  0.00  0.00    +0.000 NA
BRANCH  13  18
ATOM     15  C   UNL     1       5.854   4.648  14.559  0.00  0.00    +0.000 A 
ATOM     16  C   UNL     1       5.229   5.724  15.194  0.00  0.00    +0.000 A 
ATOM     17  C   UNL     1       5.556   6.058  16.511  0.00  0.00    +0.000 A 
ATOM     18  C   UNL     1       6.503   5.301  17.207  0.00  0.00    +0.000 A 
ATOM     19  C   UNL     1       7.172   4.263  16.556  0.00  0.00    +0.000 A 
ATOM     20  C   UNL     1       6.828   3.920  15.244  0.00  0.00    +0.000 A 
BRANCH  15  22
ATOM     21  C   UNL     1       6.209   3.495  12.520  0.00  0.00    +0.000 C 
ATOM     22  O   UNL     1       5.420   4.397  13.287  0.00  0.00    +0.000 OA
ENDBRANCH  15  22
ENDBRANCH  13  18
ENDBRANCH   1  14
TORSDOF 4
ENDMDL
MODEL 4
REMARK VINA RESULT:      -6.8      2.722      5.773
REMARK  Name = 
REMARK  6 active torsions:
REMARK  status: ('A' for Active; 'I' for Inactive)
REMARK    1  A    between atoms: C_1  and  O_2
REMARK    2  A    between atoms: O_2  and  C_3
REMARK    3  A    between atoms: C_6  and  C_7
REMARK    4  A    between atoms: N_8  and  N_9
REMARK    5  A    between atoms: C_10  and  C_12
REMARK    6  A    between atoms: C_17  and  C_18
REMARK                            x       y       z     vdW  Elec       q    Type
REMARK                         _______ _______ _______ _____ _____    ______ ____
ROOT
ATOM      1  N   UNL     1       4.830   4.520  19.644  0.00  0.00    +0.000 N 
ATOM      2  C   UNL     1       3.635   5.207  19.644  0.00  0.00    +0.000 C 
ATOM      3  O   UNL     1       3.450   6.412  19.657  0.00  0.00    +0.000 OA
ATOM      4  H   UNL     1       4.806   3.517  19.503  0.00  0.00    +0.000 HD
ENDROOT
BRANCH   2   5
ATOM      5  C   UNL     1       2.441   4.282  19.657  0.00  0.00    +0.000 C 
ATOM      6  N   UNL     1       1.486   4.378  20.542  0.00  0.00    +0.000 NA
ATOM      7  N   UNL     1       0.579   3.415  20.194  0.00  0.00    +0.000 N 
ATOM      8  C   UNL     1       0.894   2.702  19.044  0.00  0.00    +0.000 C 
ATOM      9  O   UNL     1       0.199   1.870  18.489  0.00  0.00    +0.000 OA
ATOM     10  C   UNL     1       2.270   3.181  18.646  0.00  0.00    +0.000 C 
ATOM     11  C   UNL     1       2.313   3.620  17.197  0.00  0.00    +0.000 C 
ATOM     12  H   UNL     1      -0.303   3.316  20.686  0.00  0.00    +0.000 HD
ENDBRANCH   2   5
BRANCH   1  14
ATOM     13  C   UNL     1       6.693   5.592  18.793  0.00  0.00    +0.000 C 
ATOM     14  N   UNL     1       6.001   5.186  19.816  0.00  0.00    +0.000 NA
BRANCH  13  18
ATOM     15  C   UNL     1       6.161   5.014  14.586  0.00  0.00    +0.000 A 
ATOM     16  C   UNL     1       7.075   4.248  15.314  0.00  0.00    +0.000 A 
ATOM     17  C   UNL     1       7.224   4.438  16.691  0.00  0.00    +0.000 A 
ATOM     18  C   UNL     1       6.465   5.413  17.344  0.00  0.00    +0.000 A 
ATOM     19  C   UNL     1       5.507   6.138  16.631  0.00  0.00    +0.000 A 
ATOM     20  C   UNL     1       5.377   5.958  15.250  0.00  0.00    +0.000 A 
BRANCH  15  22
ATOM     21  C   UNL     1       6.141   3.392  12.859  0.00  0.00    +0.000 C 
ATOM     22  O   UNL     1       6.138   4.763  13.243  0.00  0.00    +0.000 OA
ENDBRANCH  15  22
ENDBRANCH  13  18
ENDBRANCH   1  14
TORSDOF 4
ENDMDL
MODEL 5
REMARK VINA RESULT:      -6.7      2.661      5.621
REMARK  Name = 
REMARK  6 active torsions:
REMARK  status: ('A' for Active; 'I' for Inactive)
REMARK    1  A    between atoms: C_1  and  O_2
REMARK    2  A    between atoms: O_2  and  C_3
REMARK    3  A    between atoms: C_6  and  C_7
REMARK    4  A    between atoms: N_8  and  N_9
REMARK    5  A    between atoms: C_10  and  C_12
REMARK    6  A    between atoms: C_17  and  C_18
REMARK                            x       y       z     vdW  Elec       q    Type
REMARK                         _______ _______ _______ _____ _____    ______ ____
ROOT
ATOM      1  N   UNL     1       4.762   5.090  19.679  0.00  0.00    +0.000 N 
ATOM      2  C   UNL     1       4.465   3.752  19.821  0.00  0.00    +0.000 C 
ATOM      3  O   UNL     1       5.225   2.822  20.033  0.00  0.00    +0.000 OA
ATOM      4  H   UNL     1       3.994   5.749  19.632  0.00  0.00    +0.000 HD
ENDROOT
BRANCH   2   5
ATOM      5  C   UNL     1       2.991   3.470  19.655  0.00  0.00    +0.000 C 
ATOM      6  N   UNL     1       2.071   4.129  20.305  0.00  0.00    +0.000 NA
ATOM      7  N   UNL     1       0.882   3.624  19.852  0.00  0.00    +0.000 N 
ATOM      8  C   UNL     1       0.997   2.661  18.857  0.00  0.00    +0.000 C 
ATOM      9  O   UNL     1       0.087   2.143  18.237  0.00  0.00    +0.000 OA
ATOM     10  C   UNL     1       2.479   2.405  18.723  0.00  0.00    +0.000 C 
ATOM     11  C   UNL     1       2.941   2.525  17.287  0.00  0.00    +0.000 C 
ATOM     12  H   UNL     1      -0.005   4.012  20.152  0.00  0.00    +0.000 HD
ENDBRANCH   2   5
BRANCH   1  14
ATOM     13  C   UNL     1       6.671   5.592  18.473  0.00  0.00    +0.000 C 
ATOM     14  N   UNL     1       6.055   5.500  19.615  0.00  0.00    +0.000 NA
BRANCH  13  18
ATOM     15  C   UNL     1       5.448   4.519  14.515  0.00  0.00    +0.000 A 
ATOM     16  C   UNL     1       6.055   3.590  15.364  0.00  0.00    +0.000 A 
ATOM     17  C   UNL     1       6.431   3.953  16.660  0.00  0.00    +0.000 A 
ATOM     18  C   UNL     1       6.216   5.259  17.107  0.00  0.00    +0.000 A 
ATOM     19  C   UNL     1       5.557   6.173  16.282  0.00  0.00    +0.000 A 
ATOM     20  C   UNL     1       5.199   5.811  14.979  0.00  0.00    +0.000 A 
BRANCH  15  22
ATOM     21  C   UNL     1       6.255   3.506  12.531  0.00  0.00    +0.000 C 
ATOM     22  O   UNL     1       5.164   4.055  13.261  0.00  0.00    +0.000 OA
ENDBRANCH  15  22
ENDBRANCH  13  18
ENDBRANCH   1  14
TORSDOF 4
ENDMDL
MODEL 6
REMARK VINA RESULT:      -6.7      2.482      5.846
REMARK  Name = 
REMARK  6 active torsions:
REMARK  status: ('A' for Active; 'I' for Inactive)
REMARK    1  A    between atoms: C_1  and  O_2
REMARK    2  A    between atoms: O_2  and  C_3
REMARK    3  A    between atoms: C_6  and  C_7
REMARK    4  A    between atoms: N_8  and  N_9
REMARK    5  A    between atoms: C_10  and  C_12
REMARK    6  A    between atoms: C_17  and  C_18
REMARK                            x       y       z     vdW  Elec       q    Type
REMARK                         _______ _______ _______ _____ _____    ______ ____
ROOT
ATOM      1  N   UNL     1       5.430   3.922  19.076  0.00  0.00    +0.000 N 
ATOM      2  C   UNL     1       4.292   4.591  19.470  0.00  0.00    +0.000 C 
ATOM      3  O   UNL     1       4.152   5.778  19.712  0.00  0.00    +0.000 OA
ATOM      4  H   UNL     1       5.342   2.953  18.794  0.00  0.00    +0.000 HD
ENDROOT
BRANCH   2   5
ATOM      5  C   UNL     1       3.108   3.667  19.628  0.00  0.00    +0.000 C 
ATOM      6  N   UNL     1       2.748   3.176  20.783  0.00  0.00    +0.000 NA
ATOM      7  N   UNL     1       1.623   2.441  20.524  0.00  0.00    +0.000 N 
ATOM      8  C   UNL     1       1.192   2.478  19.203  0.00  0.00    +0.000 C 
ATOM      9  O   UNL     1       0.171   1.987  18.758  0.00  0.00    +0.000 OA
ATOM     10  C   UNL     1       2.257   3.248  18.460  0.00  0.00    +0.000 C 
ATOM     11  C   UNL     1       1.666   4.382  17.649  0.00  0.00    +0.000 C 
ATOM     12  H   UNL     1       1.097   1.999  21.269  0.00  0.00    +0.000 HD
ENDBRANCH   2   5
BRANCH   1  14
ATOM     13  C   UNL     1       7.189   4.899  17.937  0.00  0.00    +0.000 C 
ATOM     14  N   UNL     1       6.628   4.561  19.061  0.00  0.00    +0.000 NA
BRANCH  13  18
ATOM     15  C   UNL     1       5.884   4.098  13.941  0.00  0.00    +0.000 A 
ATOM     16  C   UNL     1       5.119   3.713  15.045  0.00  0.00    +0.000 A 
ATOM     17  C   UNL     1       5.552   3.999  16.343  0.00  0.00    +0.000 A 
ATOM     18  C   UNL     1       6.768   4.659  16.541  0.00  0.00    +0.000 A 
ATOM     19  C   UNL     1       7.505   5.098  15.439  0.00  0.00    +0.000 A 
ATOM     20  C   UNL     1       7.077   4.793  14.143  0.00  0.00    +0.000 A 
BRANCH  15  22
ATOM     21  C   UNL     1       6.223   2.935  11.905  0.00  0.00    +0.000 C 
ATOM     22  O   UNL     1       5.374   3.726  12.728  0.00  0.00    +0.000 OA
ENDBRANCH  15  22
ENDBRANCH  13  18
ENDBRANCH   1  14
TORSDOF 4
ENDMDL
MODEL 7
REMARK VINA RESULT:      -6.7      3.580      4.869
REMARK  Name = 
REMARK  6 active torsions:
REMARK  status: ('A' for Active; 'I' for Inactive)
REMARK    1  A    between atoms: C_1  and  O_2
REMARK    2  A    between atoms: O_2  and  C_3
REMARK    3  A    between atoms: C_6  and  C_7
REMARK    4  A    between atoms: N_8  and  N_9
REMARK    5  A    between atoms: C_10  and  C_12
REMARK    6  A    between atoms: C_17  and  C_18
REMARK                            x       y       z     vdW  Elec       q    Type
REMARK                         _______ _______ _______ _____ _____    ______ ____
ROOT
ATOM      1  N   UNL     1       3.885   4.931  19.380  0.00  0.00    +0.000 N 
ATOM      2  C   UNL     1       4.899   4.010  19.223  0.00  0.00    +0.000 C 
ATOM      3  O   UNL     1       5.034   2.927  19.766  0.00  0.00    +0.000 OA
ATOM      4  H   UNL     1       3.862   5.728  18.755  0.00  0.00    +0.000 HD
ENDROOT
BRANCH   2   5
ATOM      5  C   UNL     1       5.960   4.482  18.258  0.00  0.00    +0.000 C 
ATOM      6  N   UNL     1       7.232   4.478  18.553  0.00  0.00    +0.000 NA
ATOM      7  N   UNL     1       7.862   4.922  17.422  0.00  0.00    +0.000 N 
ATOM      8  C   UNL     1       7.021   5.177  16.346  0.00  0.00    +0.000 C 
ATOM      9  O   UNL     1       7.357   5.485  15.217  0.00  0.00    +0.000 OA
ATOM     10  C   UNL     1       5.622   4.993  16.883  0.00  0.00    +0.000 C 
ATOM     11  C   UNL     1       4.811   4.047  16.023  0.00  0.00    +0.000 C 
ATOM     12  H   UNL     1       8.873   4.953  17.358  0.00  0.00    +0.000 HD
ENDBRANCH   2   5
BRANCH   1  14
ATOM     13  C   UNL     1       2.051   5.670  20.578  0.00  0.00    +0.000 C 
ATOM     14  N   UNL     1       2.945   4.754  20.343  0.00  0.00    +0.000 NA
BRANCH  13  18
ATOM     15  C   UNL     1       1.422   9.581  18.958  0.00  0.00    +0.000 A 
ATOM     16  C   UNL     1       1.074   9.276  20.277  0.00  0.00    +0.000 A 
ATOM     17  C   UNL     1       1.303   7.999  20.795  0.00  0.00    +0.000 A 
ATOM     18  C   UNL     1       1.869   7.010  19.984  0.00  0.00    +0.000 A 
ATOM     19  C   UNL     1       2.273   7.328  18.686  0.00  0.00    +0.000 A 
ATOM     20  C   UNL     1       2.024   8.602  18.166  0.00  0.00    +0.000 A 
BRANCH  15  22
ATOM     21  C   UNL     1      -0.244  11.249  18.727  0.00  0.00    +0.000 C 
ATOM     22  O   UNL     1       1.111  10.850  18.557  0.00  0.00    +0.000 OA
ENDBRANCH  15  22
ENDBRANCH  13  18
ENDBRANCH   1  14
TORSDOF 4
ENDMDL
MODEL 8
REMARK VINA RESULT:      -6.6      2.822      6.689
REMARK  Name = 
REMARK  6 active torsions:
REMARK  status: ('A' for Active; 'I' for Inactive)
REMARK    1  A    between atoms: C_1  and  O_2
REMARK    2  A    between atoms: O_2  and  C_3
REMARK    3  A    between atoms: C_6  and  C_7
REMARK    4  A    between atoms: N_8  and  N_9
REMARK    5  A    between atoms: C_10  and  C_12
REMARK    6  A    between atoms: C_17  and  C_18
REMARK                            x       y       z     vdW  Elec       q    Type
REMARK                         _______ _______ _______ _____ _____    ______ ____
ROOT
ATOM      1  N   UNL     1       4.390   3.320  17.558  0.00  0.00    +0.000 N 
ATOM      2  C   UNL     1       3.079   3.666  17.802  0.00  0.00    +0.000 C 
ATOM      3  O   UNL     1       2.195   3.912  16.998  0.00  0.00    +0.000 OA
ATOM      4  H   UNL     1       4.961   3.025  18.342  0.00  0.00    +0.000 HD
ENDROOT
BRANCH   2   5
ATOM      5  C   UNL     1       2.774   3.760  19.277  0.00  0.00    +0.000 C 
ATOM      6  N   UNL     1       2.957   4.853  19.966  0.00  0.00    +0.000 NA
ATOM      7  N   UNL     1       2.524   4.556  21.230  0.00  0.00    +0.000 N 
ATOM      8  C   UNL     1       1.999   3.279  21.383  0.00  0.00    +0.000 C 
ATOM      9  O   UNL     1       1.468   2.826  22.381  0.00  0.00    +0.000 OA
ATOM     10  C   UNL     1       2.234   2.592  20.059  0.00  0.00    +0.000 C 
ATOM     11  C   UNL     1       0.962   1.979  19.512  0.00  0.00    +0.000 C 
ATOM     12  H   UNL     1       2.495   5.261  21.958  0.00  0.00    +0.000 HD
ENDBRANCH   2   5
BRANCH   1  14
ATOM     13  C   UNL     1       5.870   4.165  15.995  0.00  0.00    +0.000 C 
ATOM     14  N   UNL     1       4.887   3.368  16.295  0.00  0.00    +0.000 NA
BRANCH  13  18
ATOM     15  C   UNL     1       7.945   7.136  18.272  0.00  0.00    +0.000 A 
ATOM     16  C   UNL     1       7.140   7.485  17.185  0.00  0.00    +0.000 A 
ATOM     17  C   UNL     1       6.455   6.504  16.463  0.00  0.00    +0.000 A 
ATOM     18  C   UNL     1       6.588   5.159  16.819  0.00  0.00    +0.000 A 
ATOM     19  C   UNL     1       7.344   4.811  17.941  0.00  0.00    +0.000 A 
ATOM     20  C   UNL     1       8.043   5.795  18.648  0.00  0.00    +0.000 A 
BRANCH  15  22
ATOM     21  C   UNL     1       8.478   9.443  18.226  0.00  0.00    +0.000 C 
ATOM     22  O   UNL     1       8.593   8.180  18.870  0.00  0.00    +0.000 OA
ENDBRANCH  15  22
ENDBRANCH  13  18
ENDBRANCH   1  14
TORSDOF 4
ENDMDL
MODEL 9
REMARK VINA RESULT:      -6.6      2.202      2.640
REMARK  Name = 
REMARK  6 active torsions:
REMARK  status: ('A' for Active; 'I' for Inactive)
REMARK    1  A    between atoms: C_1  and  O_2
REMARK    2  A    between atoms: O_2  and  C_3
REMARK    3  A    between atoms: C_6  and  C_7
REMARK    4  A    between atoms: N_8  and  N_9
REMARK    5  A    between atoms: C_10  and  C_12
REMARK    6  A    between atoms: C_17  and  C_18
REMARK                            x       y       z     vdW  Elec       q    Type
REMARK                         _______ _______ _______ _____ _____    ______ ____
ROOT
ATOM      1  N   UNL     1       4.207   7.063  16.824  0.00  0.00    +0.000 N 
ATOM      2  C   UNL     1       5.517   6.754  17.117  0.00  0.00    +0.000 C 
ATOM      3  O   UNL     1       6.182   7.094  18.080  0.00  0.00    +0.000 OA
ATOM      4  H   UNL     1       3.767   6.592  16.042  0.00  0.00    +0.000 HD
ENDROOT
BRANCH   2   5
ATOM      5  C   UNL     1       6.159   5.901  16.048  0.00  0.00    +0.000 C 
ATOM      6  N   UNL     1       7.426   5.986  15.747  0.00  0.00    +0.000 NA
ATOM      7  N   UNL     1       7.629   5.033  14.786  0.00  0.00    +0.000 N 
ATOM      8  C   UNL     1       6.511   4.269  14.474  0.00  0.00    +0.000 C 
ATOM      9  O   UNL     1       6.472   3.308  13.728  0.00  0.00    +0.000 OA
ATOM     10  C   UNL     1       5.377   4.890  15.254  0.00  0.00    +0.000 C 
ATOM     11  C   UNL     1       4.631   3.859  16.074  0.00  0.00    +0.000 C 
ATOM     12  H   UNL     1       8.555   4.842  14.418  0.00  0.00    +0.000 HD
ENDBRANCH   2   5
BRANCH   1  14
ATOM     13  C   UNL     1       2.722   7.580  18.520  0.00  0.00    +0.000 C 
ATOM     14  N   UNL     1       3.533   7.968  17.579  0.00  0.00    +0.000 NA
BRANCH  13  18
ATOM     15  C   UNL     1       1.607   3.669  19.850  0.00  0.00    +0.000 A 
ATOM     16  C   UNL     1       1.993   4.661  20.755  0.00  0.00    +0.000 A 
ATOM     17  C   UNL     1       2.337   5.938  20.304  0.00  0.00    +0.000 A 
ATOM     18  C   UNL     1       2.312   6.224  18.936  0.00  0.00    +0.000 A 
ATOM     19  C   UNL     1       1.869   5.254  18.035  0.00  0.00    +0.000 A 
ATOM     20  C   UNL     1       1.544   3.971  18.488  0.00  0.00    +0.000 A 
BRANCH  15  22
ATOM     21  C   UNL     1       1.436   2.373  21.826  0.00  0.00    +0.000 C 
ATOM     22  O   UNL     1       1.334   2.452  20.408  0.00  0.00    +0.000 OA
ENDBRANCH  15  22
ENDBRANCH  13  18
ENDBRANCH   1  14
TORSDOF 4
ENDMDL
