MODEL 1
REMARK VINA RESULT:      -7.6      0.000      0.000
REMARK  Name = 
REMARK  10 active torsions:
REMARK  status: ('A' for Active; 'I' for Inactive)
REMARK    1  A    between atoms: C_1  and  C_2
REMARK    2  A    between atoms: C_2  and  C_3
REMARK    3  A    between atoms: C_2  and  C_4
REMARK    4  A    between atoms: C_4  and  N_5
REMARK    5  A    between atoms: C_4  and  C_18
REMARK    6  A    between atoms: C_6  and  C_8
REMARK    7  A    between atoms: C_11  and  C_12
REMARK    8  A    between atoms: N_20  and  C_21
REMARK    9  A    between atoms: C_21  and  C_22
REMARK   10  A    between atoms: N_24  and  O_25
REMARK                            x       y       z     vdW  Elec       q    Type
REMARK                         _______ _______ _______ _____ _____    ______ ____
ROOT
ATOM      1  C   UNL     1       4.436   4.194  18.668  0.00  0.00    +0.000 C 
ENDROOT
BRANCH   1   2
ATOM      2  N   UNL     1       3.675   5.449  18.683  0.00  0.00    +0.000 N 
ATOM      3  C   UNL     1       2.846   5.768  19.731  0.00  0.00    +0.000 C 
ATOM      4  O   UNL     1       2.649   4.988  20.661  0.00  0.00    +0.000 OA
ATOM      5  H   UNL     1       3.833   6.140  17.953  0.00  0.00    +0.000 HD
BRANCH   3   6
ATOM      6  C   UNL     1       2.229   7.101  19.698  0.00  0.00    +0.000 A 
ATOM      7  C   UNL     1       2.241   7.873  18.549  0.00  0.00    +0.000 A 
ATOM      8  S   UNL     1       1.393   9.331  18.785  0.00  0.00    +0.000 S 
ATOM      9  C   UNL     1       1.086   8.876  20.418  0.00  0.00    +0.000 A 
ATOM     10  N   UNL     1       1.570   7.698  20.785  0.00  0.00    +0.000 NA
BRANCH   9  11
ATOM     11  C   UNL     1       0.307   9.791  21.332  0.00  0.00    +0.000 A 
ATOM     12  C   UNL     1       0.121  11.134  21.073  0.00  0.00    +0.000 A 
ATOM     13  S   UNL     1      -0.802  11.853  22.330  0.00  0.00    +0.000 S 
ATOM     14  C   UNL     1      -0.880  10.333  23.120  0.00  0.00    +0.000 A 
ATOM     15  N   UNL     1      -0.281   9.336  22.508  0.00  0.00    +0.000 NA
ENDBRANCH   9  11
ENDBRANCH   3   6
ENDBRANCH   1   2
BRANCH   1  16
ATOM     16  C   UNL     1       5.832   4.473  18.068  0.00  0.00    +0.000 C 
ATOM     17  O   UNL     1       6.862   4.397  18.740  0.00  0.00    +0.000 OA
ATOM     18  N   UNL     1       5.858   4.805  16.732  0.00  0.00    +0.000 N 
ATOM     19  H   UNL     1       5.013   4.758  16.164  0.00  0.00    +0.000 HD
BRANCH  18  20
ATOM     20  C   UNL     1       7.121   4.974  16.040  0.00  0.00    +0.000 C 
BRANCH  20  21
ATOM     21  C   UNL     1       7.028   4.675  14.543  0.00  0.00    +0.000 C 
ATOM     22  O   UNL     1       7.555   5.370  13.676  0.00  0.00    +0.000 OA
ATOM     23  N   UNL     1       6.275   3.563  14.250  0.00  0.00    +0.000 N 
ATOM     24  H   UNL     1       5.998   2.862  14.931  0.00  0.00    +0.000 HD
BRANCH  23  25
ATOM     25  O   UNL     1       6.186   3.193  12.891  0.00  0.00    +0.000 OA
ATOM     26  H   UNL     1       5.247   2.924  12.797  0.00  0.00    +0.000 HD
ENDBRANCH  23  25
ENDBRANCH  20  21
ENDBRANCH  18  20
ENDBRANCH   1  16
BRANCH   1  28
ATOM     27  C   UNL     1       2.409   3.537  17.237  0.00  0.00    +0.000 C 
ATOM     28  C   UNL     1       3.658   3.046  17.975  0.00  0.00    +0.000 C 
ATOM     29  C   UNL     1       3.285   1.901  18.919  0.00  0.00    +0.000 C 
ENDBRANCH   1  28
TORSDOF 8
ENDMDL
MODEL 2
REMARK VINA RESULT:      -7.6      1.138      1.163
REMARK  Name = 
REMARK  10 active torsions:
REMARK  status: ('A' for Active; 'I' for Inactive)
REMARK    1  A    between atoms: C_1  and  C_2
REMARK    2  A    between atoms: C_2  and  C_3
REMARK    3  A    between atoms: C_2  and  C_4
REMARK    4  A    between atoms: C_4  and  N_5
REMARK    5  A    between atoms: C_4  and  C_18
REMARK    6  A    between atoms: C_6  and  C_8
REMARK    7  A    between atoms: C_11  and  C_12
REMARK    8  A    between atoms: N_20  and  C_21
REMARK    9  A    between atoms: C_21  and  C_22
REMARK   10  A    between atoms: N_24  and  O_25
REMARK                            x       y       z     vdW  Elec       q    Type
REMARK                         _______ _______ _______ _____ _____    ______ ____
ROOT
ATOM      1  C   UNL     1       4.134   4.417  19.542  0.00  0.00    +0.000 C 
ENDROOT
BRANCH   1   2
ATOM      2  N   UNL     1       3.431   5.694  19.704  0.00  0.00    +0.000 N 
ATOM      3  C   UNL     1       3.167   6.505  18.627  0.00  0.00    +0.000 C 
ATOM      4  O   UNL     1       3.571   6.233  17.498  0.00  0.00    +0.000 OA
ATOM      5  H   UNL     1       3.047   5.943  20.613  0.00  0.00    +0.000 HD
BRANCH   3   6
ATOM      6  C   UNL     1       2.352   7.699  18.888  0.00  0.00    +0.000 A 
ATOM      7  C   UNL     1       2.065   8.611  17.886  0.00  0.00    +0.000 A 
ATOM      8  S   UNL     1       1.048   9.849  18.461  0.00  0.00    +0.000 S 
ATOM      9  C   UNL     1       1.072   9.129  20.026  0.00  0.00    +0.000 A 
ATOM     10  N   UNL     1       1.785   8.017  20.133  0.00  0.00    +0.000 NA
BRANCH   9  11
ATOM     11  C   UNL     1       0.312   9.759  21.168  0.00  0.00    +0.000 A 
ATOM     12  C   UNL     1      -0.267  11.009  21.089  0.00  0.00    +0.000 A 
ATOM     13  S   UNL     1      -1.035  11.397  22.576  0.00  0.00    +0.000 S 
ATOM     14  C   UNL     1      -0.537   9.883  23.208  0.00  0.00    +0.000 A 
ATOM     15  N   UNL     1       0.144   9.113  22.389  0.00  0.00    +0.000 NA
ENDBRANCH   9  11
ENDBRANCH   3   6
ENDBRANCH   1   2
BRANCH   1  16
ATOM     16  C   UNL     1       5.548   4.700  18.988  0.00  0.00    +0.000 C 
ATOM     17  O   UNL     1       6.434   5.207  19.678  0.00  0.00    +0.000 OA
ATOM     18  N   UNL     1       5.761   4.346  17.674  0.00  0.00    +0.000 N 
ATOM     19  H   UNL     1       5.056   3.831  17.149  0.00  0.00    +0.000 HD
BRANCH  18  20
ATOM     20  C   UNL     1       7.082   4.461  17.086  0.00  0.00    +0.000 C 
BRANCH  20  21
ATOM     21  C   UNL     1       7.053   4.529  15.559  0.00  0.00    +0.000 C 
ATOM     22  O   UNL     1       7.616   5.406  14.906  0.00  0.00    +0.000 OA
ATOM     23  N   UNL     1       6.315   3.526  14.977  0.00  0.00    +0.000 N 
ATOM     24  H   UNL     1       6.010   2.685  15.458  0.00  0.00    +0.000 HD
BRANCH  23  25
ATOM     25  O   UNL     1       6.285   3.492  13.566  0.00  0.00    +0.000 OA
ATOM     26  H   UNL     1       7.053   4.051  13.317  0.00  0.00    +0.000 HD
ENDBRANCH  23  25
ENDBRANCH  20  21
ENDBRANCH  18  20
ENDBRANCH   1  16
BRANCH   1  28
ATOM     27  C   UNL     1       1.804   3.526  18.939  0.00  0.00    +0.000 C 
ATOM     28  C   UNL     1       3.313   3.397  18.711  0.00  0.00    +0.000 C 
ATOM     29  C   UNL     1       3.745   1.944  18.922  0.00  0.00    +0.000 C 
ENDBRANCH   1  28
TORSDOF 8
ENDMDL
MODEL 3
REMARK VINA RESULT:      -7.5      1.080      1.220
REMARK  Name = 
REMARK  10 active torsions:
REMARK  status: ('A' for Active; 'I' for Inactive)
REMARK    1  A    between atoms: C_1  and  C_2
REMARK    2  A    between atoms: C_2  and  C_3
REMARK    3  A    between atoms: C_2  and  C_4
REMARK    4  A    between atoms: C_4  and  N_5
REMARK    5  A    between atoms: C_4  and  C_18
REMARK    6  A    between atoms: C_6  and  C_8
REMARK    7  A    between atoms: C_11  and  C_12
REMARK    8  A    between atoms: N_20  and  C_21
REMARK    9  A    between atoms: C_21  and  C_22
REMARK   10  A    between atoms: N_24  and  O_25
REMARK                            x       y       z     vdW  Elec       q    Type
REMARK                         _______ _______ _______ _____ _____    ______ ____
ROOT
ATOM      1  C   UNL     1       3.651   4.231  18.770  0.00  0.00    +0.000 C 
ENDROOT
BRANCH   1   2
ATOM      2  N   UNL     1       3.071   5.571  18.623  0.00  0.00    +0.000 N 
ATOM      3  C   UNL     1       2.433   6.191  19.670  0.00  0.00    +0.000 C 
ATOM      4  O   UNL     1       2.257   5.624  20.747  0.00  0.00    +0.000 OA
ATOM      5  H   UNL     1       3.223   6.091  17.762  0.00  0.00    +0.000 HD
BRANCH   3   6
ATOM      6  C   UNL     1       1.998   7.576  19.446  0.00  0.00    +0.000 A 
ATOM      7  C   UNL     1       2.240   8.223  18.246  0.00  0.00    +0.000 A 
ATOM      8  S   UNL     1       1.562   9.786  18.250  0.00  0.00    +0.000 S 
ATOM      9  C   UNL     1       1.014   9.535  19.863  0.00  0.00    +0.000 A 
ATOM     10  N   UNL     1       1.300   8.351  20.387  0.00  0.00    +0.000 NA
BRANCH   9  11
ATOM     11  C   UNL     1       0.258  10.620  20.591  0.00  0.00    +0.000 A 
ATOM     12  C   UNL     1      -0.027  10.565  21.940  0.00  0.00    +0.000 A 
ATOM     13  S   UNL     1      -0.904  11.964  22.413  0.00  0.00    +0.000 S 
ATOM     14  C   UNL     1      -0.841  12.530  20.796  0.00  0.00    +0.000 A 
ATOM     15  N   UNL     1      -0.206  11.760  19.941  0.00  0.00    +0.000 NA
ENDBRANCH   9  11
ENDBRANCH   3   6
ENDBRANCH   1   2
BRANCH   1  16
ATOM     16  C   UNL     1       5.157   4.307  18.434  0.00  0.00    +0.000 C 
ATOM     17  O   UNL     1       6.030   4.103  19.279  0.00  0.00    +0.000 OA
ATOM     18  N   UNL     1       5.467   4.613  17.127  0.00  0.00    +0.000 N 
ATOM     19  H   UNL     1       4.739   4.673  16.416  0.00  0.00    +0.000 HD
BRANCH  18  20
ATOM     20  C   UNL     1       6.845   4.598  16.675  0.00  0.00    +0.000 C 
BRANCH  20  21
ATOM     21  C   UNL     1       6.975   4.558  15.152  0.00  0.00    +0.000 C 
ATOM     22  O   UNL     1       7.631   5.371  14.503  0.00  0.00    +0.000 OA
ATOM     23  N   UNL     1       6.265   3.537  14.566  0.00  0.00    +0.000 N 
ATOM     24  H   UNL     1       5.883   2.742  15.068  0.00  0.00    +0.000 HD
BRANCH  23  25
ATOM     25  O   UNL     1       6.378   3.405  13.164  0.00  0.00    +0.000 OA
ATOM     26  H   UNL     1       7.324   3.175  13.042  0.00  0.00    +0.000 HD
ENDBRANCH  23  25
ENDBRANCH  20  21
ENDBRANCH  18  20
ENDBRANCH   1  16
BRANCH   1  28
ATOM     27  C   UNL     1       1.376   3.139  18.306  0.00  0.00    +0.000 C 
ATOM     28  C   UNL     1       2.868   3.162  17.965  0.00  0.00    +0.000 C 
ATOM     29  C   UNL     1       3.450   1.752  18.090  0.00  0.00    +0.000 C 
ENDBRANCH   1  28
TORSDOF 8
ENDMDL
MODEL 4
REMARK VINA RESULT:      -7.3      1.849      2.501
REMARK  Name = 
REMARK  10 active torsions:
REMARK  status: ('A' for Active; 'I' for Inactive)
REMARK    1  A    between atoms: C_1  and  C_2
REMARK    2  A    between atoms: C_2  and  C_3
REMARK    3  A    between atoms: C_2  and  C_4
REMARK    4  A    between atoms: C_4  and  N_5
REMARK    5  A    between atoms: C_4  and  C_18
REMARK    6  A    between atoms: C_6  and  C_8
REMARK    7  A    between atoms: C_11  and  C_12
REMARK    8  A    between atoms: N_20  and  C_21
REMARK    9  A    between atoms: C_21  and  C_22
REMARK   10  A    between atoms: N_24  and  O_25
REMARK                            x       y       z     vdW  Elec       q    Type
REMARK                         _______ _______ _______ _____ _____    ______ ____
ROOT
ATOM      1  C   UNL     1       3.305   4.174  18.916  0.00  0.00    +0.000 C 
ENDROOT
BRANCH   1   2
ATOM      2  N   UNL     1       2.807   5.537  18.701  0.00  0.00    +0.000 N 
ATOM      3  C   UNL     1       2.277   6.274  19.733  0.00  0.00    +0.000 C 
ATOM      4  O   UNL     1       2.130   5.800  20.858  0.00  0.00    +0.000 OA
ATOM      5  H   UNL     1       2.940   5.982  17.796  0.00  0.00    +0.000 HD
BRANCH   3   6
ATOM      6  C   UNL     1       1.922   7.667  19.430  0.00  0.00    +0.000 A 
ATOM      7  C   UNL     1       2.268   8.254  18.224  0.00  0.00    +0.000 A 
ATOM      8  S   UNL     1       1.666   9.843  18.126  0.00  0.00    +0.000 S 
ATOM      9  C   UNL     1       1.007   9.682  19.709  0.00  0.00    +0.000 A 
ATOM     10  N   UNL     1       1.203   8.509  20.294  0.00  0.00    +0.000 NA
BRANCH   9  11
ATOM     11  C   UNL     1       0.258  10.828  20.345  0.00  0.00    +0.000 A 
ATOM     12  C   UNL     1       0.087  10.952  21.708  0.00  0.00    +0.000 A 
ATOM     13  S   UNL     1      -0.819  12.368  22.062  0.00  0.00    +0.000 S 
ATOM     14  C   UNL     1      -0.917  12.704  20.383  0.00  0.00    +0.000 A 
ATOM     15  N   UNL     1      -0.315  11.847  19.589  0.00  0.00    +0.000 NA
ENDBRANCH   9  11
ENDBRANCH   3   6
ENDBRANCH   1   2
BRANCH   1  16
ATOM     16  C   UNL     1       4.828   4.159  18.653  0.00  0.00    +0.000 C 
ATOM     17  O   UNL     1       5.629   3.695  19.466  0.00  0.00    +0.000 OA
ATOM     18  N   UNL     1       5.235   4.691  17.451  0.00  0.00    +0.000 N 
ATOM     19  H   UNL     1       4.556   4.971  16.744  0.00  0.00    +0.000 HD
BRANCH  18  20
ATOM     20  C   UNL     1       6.628   4.624  17.051  0.00  0.00    +0.000 C 
BRANCH  20  21
ATOM     21  C   UNL     1       7.393   5.919  17.327  0.00  0.00    +0.000 C 
ATOM     22  O   UNL     1       7.637   6.762  16.466  0.00  0.00    +0.000 OA
ATOM     23  N   UNL     1       7.806   6.047  18.632  0.00  0.00    +0.000 N 
ATOM     24  H   UNL     1       7.458   5.484  19.402  0.00  0.00    +0.000 HD
BRANCH  23  25
ATOM     25  O   UNL     1       8.474   7.242  18.975  0.00  0.00    +0.000 OA
ATOM     26  H   UNL     1       8.413   7.772  18.151  0.00  0.00    +0.000 HD
ENDBRANCH  23  25
ENDBRANCH  20  21
ENDBRANCH  18  20
ENDBRANCH   1  16
BRANCH   1  28
ATOM     27  C   UNL     1       1.088   2.909  18.647  0.00  0.00    +0.000 C 
ATOM     28  C   UNL     1       2.504   3.123  18.104  0.00  0.00    +0.000 C 
ATOM     29  C   UNL     1       3.217   1.775  17.974  0.00  0.00    +0.000 C 
ENDBRANCH   1  28
TORSDOF 8
ENDMDL
MODEL 5
REMARK VINA RESULT:      -7.3      1.585      1.834
REMARK  Name = 
REMARK  10 active torsions:
REMARK  status: ('A' for Active; 'I' for Inactive)
REMARK    1  A    between atoms: C_1  and  C_2
REMARK    2  A    between atoms: C_2  and  C_3
REMARK    3  A    between atoms: C_2  and  C_4
REMARK    4  A    between atoms: C_4  and  N_5
REMARK    5  A    between atoms: C_4  and  C_18
REMARK    6  A    between atoms: C_6  and  C_8
REMARK    7  A    between atoms: C_11  and  C_12
REMARK    8  A    between atoms: N_20  and  C_21
REMARK    9  A    between atoms: C_21  and  C_22
REMARK   10  A    between atoms: N_24  and  O_25
REMARK                            x       y       z     vdW  Elec       q    Type
REMARK                         _______ _______ _______ _____ _____    ______ ____
ROOT
ATOM      1  C   UNL     1       3.311   4.348  19.194  0.00  0.00    +0.000 C 
ENDROOT
BRANCH   1   2
ATOM      2  N   UNL     1       2.787   5.714  19.083  0.00  0.00    +0.000 N 
ATOM      3  C   UNL     1       2.089   6.296  20.113  0.00  0.00    +0.000 C 
ATOM      4  O   UNL     1       1.810   5.676  21.138  0.00  0.00    +0.000 OA
ATOM      5  H   UNL     1       3.023   6.276  18.268  0.00  0.00    +0.000 HD
BRANCH   3   6
ATOM      6  C   UNL     1       1.717   7.707  19.939  0.00  0.00    +0.000 A 
ATOM      7  C   UNL     1       1.939   8.369  18.744  0.00  0.00    +0.000 A 
ATOM      8  S   UNL     1       1.345   9.964  18.811  0.00  0.00    +0.000 S 
ATOM      9  C   UNL     1       0.856   9.703  20.443  0.00  0.00    +0.000 A 
ATOM     10  N   UNL     1       1.103   8.494  20.927  0.00  0.00    +0.000 NA
BRANCH   9  11
ATOM     11  C   UNL     1       0.191  10.808  21.227  0.00  0.00    +0.000 A 
ATOM     12  C   UNL     1       0.273  12.138  20.870  0.00  0.00    +0.000 A 
ATOM     13  S   UNL     1      -0.596  13.103  21.995  0.00  0.00    +0.000 S 
ATOM     14  C   UNL     1      -1.008  11.685  22.867  0.00  0.00    +0.000 A 
ATOM     15  N   UNL     1      -0.557  10.554  22.373  0.00  0.00    +0.000 NA
ENDBRANCH   9  11
ENDBRANCH   3   6
ENDBRANCH   1   2
BRANCH   1  16
ATOM     16  C   UNL     1       4.854   4.415  19.245  0.00  0.00    +0.000 C 
ATOM     17  O   UNL     1       5.539   3.475  19.651  0.00  0.00    +0.000 OA
ATOM     18  N   UNL     1       5.419   5.590  18.802  0.00  0.00    +0.000 N 
ATOM     19  H   UNL     1       4.849   6.315  18.369  0.00  0.00    +0.000 HD
BRANCH  18  20
ATOM     20  C   UNL     1       6.860   5.719  18.698  0.00  0.00    +0.000 C 
BRANCH  20  21
ATOM     21  C   UNL     1       7.408   5.240  17.354  0.00  0.00    +0.000 C 
ATOM     22  O   UNL     1       8.003   4.175  17.202  0.00  0.00    +0.000 OA
ATOM     23  N   UNL     1       7.194   6.126  16.325  0.00  0.00    +0.000 N 
ATOM     24  H   UNL     1       6.544   6.906  16.365  0.00  0.00    +0.000 HD
BRANCH  23  25
ATOM     25  O   UNL     1       7.627   5.729  15.041  0.00  0.00    +0.000 OA
ATOM     26  H   UNL     1       6.934   5.091  14.764  0.00  0.00    +0.000 HD
ENDBRANCH  23  25
ENDBRANCH  20  21
ENDBRANCH  18  20
ENDBRANCH   1  16
BRANCH   1  28
ATOM     27  C   UNL     1       1.556   4.025  17.350  0.00  0.00    +0.000 C 
ATOM     28  C   UNL     1       2.746   3.412  18.094  0.00  0.00    +0.000 C 
ATOM     29  C   UNL     1       2.375   2.018  18.605  0.00  0.00    +0.000 C 
ENDBRANCH   1  28
TORSDOF 8
ENDMDL
MODEL 6
REMARK VINA RESULT:      -7.3      1.604      1.846
REMARK  Name = 
REMARK  10 active torsions:
REMARK  status: ('A' for Active; 'I' for Inactive)
REMARK    1  A    between atoms: C_1  and  C_2
REMARK    2  A    between atoms: C_2  and  C_3
REMARK    3  A    between atoms: C_2  and  C_4
REMARK    4  A    between atoms: C_4  and  N_5
REMARK    5  A    between atoms: C_4  and  C_18
REMARK    6  A    between atoms: C_6  and  C_8
REMARK    7  A    between atoms: C_11  and  C_12
REMARK    8  A    between atoms: N_20  and  C_21
REMARK    9  A    between atoms: C_21  and  C_22
REMARK   10  A    between atoms: N_24  and  O_25
REMARK                            x       y       z     vdW  Elec       q    Type
REMARK                         _______ _______ _______ _____ _____    ______ ____
ROOT
ATOM      1  C   UNL     1       3.220   4.080  19.029  0.00  0.00    +0.000 C 
ENDROOT
BRANCH   1   2
ATOM      2  N   UNL     1       2.807   5.459  18.745  0.00  0.00    +0.000 N 
ATOM      3  C   UNL     1       2.221   6.241  19.711  0.00  0.00    +0.000 C 
ATOM      4  O   UNL     1       1.951   5.800  20.826  0.00  0.00    +0.000 OA
ATOM      5  H   UNL     1       3.041   5.878  17.847  0.00  0.00    +0.000 HD
BRANCH   3   6
ATOM      6  C   UNL     1       1.959   7.642  19.351  0.00  0.00    +0.000 A 
ATOM      7  C   UNL     1       2.377   8.166  18.140  0.00  0.00    +0.000 A 
ATOM      8  S   UNL     1       1.874   9.784  17.970  0.00  0.00    +0.000 S 
ATOM      9  C   UNL     1       1.158   9.716  19.535  0.00  0.00    +0.000 A 
ATOM     10  N   UNL     1       1.266   8.554  20.164  0.00  0.00    +0.000 NA
BRANCH   9  11
ATOM     11  C   UNL     1       0.460  10.925  20.109  0.00  0.00    +0.000 A 
ATOM     12  C   UNL     1       1.125  11.931  20.780  0.00  0.00    +0.000 A 
ATOM     13  S   UNL     1       0.010  13.132  21.295  0.00  0.00    +0.000 S 
ATOM     14  C   UNL     1      -1.265  12.225  20.593  0.00  0.00    +0.000 A 
ATOM     15  N   UNL     1      -0.916  11.107  19.997  0.00  0.00    +0.000 NA
ENDBRANCH   9  11
ENDBRANCH   3   6
ENDBRANCH   1   2
BRANCH   1  16
ATOM     16  C   UNL     1       4.762   4.008  18.978  0.00  0.00    +0.000 C 
ATOM     17  O   UNL     1       5.409   3.269  19.722  0.00  0.00    +0.000 OA
ATOM     18  N   UNL     1       5.372   4.818  18.046  0.00  0.00    +0.000 N 
ATOM     19  H   UNL     1       4.821   5.341  17.366  0.00  0.00    +0.000 HD
BRANCH  18  20
ATOM     20  C   UNL     1       6.805   4.745  17.833  0.00  0.00    +0.000 C 
BRANCH  20  21
ATOM     21  C   UNL     1       7.272   5.558  16.626  0.00  0.00    +0.000 C 
ATOM     22  O   UNL     1       7.569   6.750  16.681  0.00  0.00    +0.000 OA
ATOM     23  N   UNL     1       7.309   4.836  15.457  0.00  0.00    +0.000 N 
ATOM     24  H   UNL     1       7.268   3.822  15.407  0.00  0.00    +0.000 HD
BRANCH  23  25
ATOM     25  O   UNL     1       7.781   5.505  14.307  0.00  0.00    +0.000 OA
ATOM     26  H   UNL     1       8.563   4.972  14.048  0.00  0.00    +0.000 HD
ENDBRANCH  23  25
ENDBRANCH  20  21
ENDBRANCH  18  20
ENDBRANCH   1  16
BRANCH   1  28
ATOM     27  C   UNL     1       1.072   2.750  18.578  0.00  0.00    +0.000 C 
ATOM     28  C   UNL     1       2.500   3.053  18.117  0.00  0.00    +0.000 C 
ATOM     29  C   UNL     1       3.274   1.745  17.935  0.00  0.00    +0.000 C 
ENDBRANCH   1  28
TORSDOF 8
ENDMDL
MODEL 7
REMARK VINA RESULT:      -7.3      1.699      2.161
REMARK  Name = 
REMARK  10 active torsions:
REMARK  status: ('A' for Active; 'I' for Inactive)
REMARK    1  A    between atoms: C_1  and  C_2
REMARK    2  A    between atoms: C_2  and  C_3
REMARK    3  A    between atoms: C_2  and  C_4
REMARK    4  A    between atoms: C_4  and  N_5
REMARK    5  A    between atoms: C_4  and  C_18
REMARK    6  A    between atoms: C_6  and  C_8
REMARK    7  A    between atoms: C_11  and  C_12
REMARK    8  A    between atoms: N_20  and  C_21
REMARK    9  A    between atoms: C_21  and  C_22
REMARK   10  A    between atoms: N_24  and  O_25
REMARK                            x       y       z     vdW  Elec       q    Type
REMARK                         _______ _______ _______ _____ _____    ______ ____
ROOT
ATOM      1  C   UNL     1       3.156   3.886  19.354  0.00  0.00    +0.000 C 
ENDROOT
BRANCH   1   2
ATOM      2  N   UNL     1       2.501   5.190  19.504  0.00  0.00    +0.000 N 
ATOM      3  C   UNL     1       3.126   6.351  19.119  0.00  0.00    +0.000 C 
ATOM      4  O   UNL     1       4.283   6.356  18.704  0.00  0.00    +0.000 OA
ATOM      5  H   UNL     1       1.531   5.231  19.810  0.00  0.00    +0.000 HD
BRANCH   3   6
ATOM      6  C   UNL     1       2.330   7.583  19.203  0.00  0.00    +0.000 A 
ATOM      7  C   UNL     1       2.138   8.394  18.097  0.00  0.00    +0.000 A 
ATOM      8  S   UNL     1       1.120   9.707  18.474  0.00  0.00    +0.000 S 
ATOM      9  C   UNL     1       1.019   9.149  20.101  0.00  0.00    +0.000 A 
ATOM     10  N   UNL     1       1.690   8.038  20.368  0.00  0.00    +0.000 NA
BRANCH   9  11
ATOM     11  C   UNL     1       0.202   9.908  21.118  0.00  0.00    +0.000 A 
ATOM     12  C   UNL     1      -0.355  11.145  20.866  0.00  0.00    +0.000 A 
ATOM     13  S   UNL     1      -1.203  11.702  22.252  0.00  0.00    +0.000 S 
ATOM     14  C   UNL     1      -0.763  10.265  23.078  0.00  0.00    +0.000 A 
ATOM     15  N   UNL     1      -0.046   9.404  22.392  0.00  0.00    +0.000 NA
ENDBRANCH   9  11
ENDBRANCH   3   6
ENDBRANCH   1   2
BRANCH   1  16
ATOM     16  C   UNL     1       3.563   3.707  17.874  0.00  0.00    +0.000 C 
ATOM     17  O   UNL     1       2.733   3.510  16.985  0.00  0.00    +0.000 OA
ATOM     18  N   UNL     1       4.912   3.786  17.607  0.00  0.00    +0.000 N 
ATOM     19  H   UNL     1       5.574   4.056  18.333  0.00  0.00    +0.000 HD
BRANCH  18  20
ATOM     20  C   UNL     1       5.394   3.748  16.240  0.00  0.00    +0.000 C 
BRANCH  20  21
ATOM     21  C   UNL     1       6.191   4.994  15.852  0.00  0.00    +0.000 C 
ATOM     22  O   UNL     1       6.242   5.440  14.707  0.00  0.00    +0.000 OA
ATOM     23  N   UNL     1       6.870   5.563  16.903  0.00  0.00    +0.000 N 
ATOM     24  H   UNL     1       6.696   5.350  17.881  0.00  0.00    +0.000 HD
BRANCH  23  25
ATOM     25  O   UNL     1       7.587   6.749  16.633  0.00  0.00    +0.000 OA
ATOM     26  H   UNL     1       8.331   6.433  16.076  0.00  0.00    +0.000 HD
ENDBRANCH  23  25
ENDBRANCH  20  21
ENDBRANCH  18  20
ENDBRANCH   1  16
BRANCH   1  28
ATOM     27  C   UNL     1       0.822   2.836  19.535  0.00  0.00    +0.000 C 
ATOM     28  C   UNL     1       2.298   2.729  19.927  0.00  0.00    +0.000 C 
ATOM     29  C   UNL     1       2.420   2.567  21.444  0.00  0.00    +0.000 C 
ENDBRANCH   1  28
TORSDOF 8
ENDMDL
MODEL 8
REMARK VINA RESULT:      -7.3      1.540      1.741
REMARK  Name = 
REMARK  10 active torsions:
REMARK  status: ('A' for Active; 'I' for Inactive)
REMARK    1  A    between atoms: C_1  and  C_2
REMARK    2  A    between atoms: C_2  and  C_3
REMARK    3  A    between atoms: C_2  and  C_4
REMARK    4  A    between atoms: C_4  and  N_5
REMARK    5  A    between atoms: C_4  and  C_18
REMARK    6  A    between atoms: C_6  and  C_8
REMARK    7  A    between atoms: C_11  and  C_12
REMARK    8  A    between atoms: N_20  and  C_21
REMARK    9  A    between atoms: C_21  and  C_22
REMARK   10  A    between atoms: N_24  and  O_25
REMARK                            x       y       z     vdW  Elec       q    Type
REMARK                         _______ _______ _______ _____ _____    ______ ____
ROOT
ATOM      1  C   UNL     1       3.167   3.967  19.412  0.00  0.00    +0.000 C 
ENDROOT
BRANCH   1   2
ATOM      2  N   UNL     1       2.747   5.326  19.053  0.00  0.00    +0.000 N 
ATOM      3  C   UNL     1       2.239   6.188  19.995  0.00  0.00    +0.000 C 
ATOM      4  O   UNL     1       2.047   5.837  21.157  0.00  0.00    +0.000 OA
ATOM      5  H   UNL     1       2.919   5.672  18.111  0.00  0.00    +0.000 HD
BRANCH   3   6
ATOM      6  C   UNL     1       1.965   7.560  19.548  0.00  0.00    +0.000 A 
ATOM      7  C   UNL     1       2.358   8.005  18.297  0.00  0.00    +0.000 A 
ATOM      8  S   UNL     1       1.845   9.606  18.029  0.00  0.00    +0.000 S 
ATOM      9  C   UNL     1       1.157   9.639  19.608  0.00  0.00    +0.000 A 
ATOM     10  N   UNL     1       1.281   8.522  20.310  0.00  0.00    +0.000 NA
BRANCH   9  11
ATOM     11  C   UNL     1       0.463  10.882  20.113  0.00  0.00    +0.000 A 
ATOM     12  C   UNL     1      -0.745  11.325  19.614  0.00  0.00    +0.000 A 
ATOM     13  S   UNL     1      -1.220  12.766  20.418  0.00  0.00    +0.000 S 
ATOM     14  C   UNL     1       0.212  12.693  21.359  0.00  0.00    +0.000 A 
ATOM     15  N   UNL     1       1.003  11.670  21.124  0.00  0.00    +0.000 NA
ENDBRANCH   9  11
ENDBRANCH   3   6
ENDBRANCH   1   2
BRANCH   1  16
ATOM     16  C   UNL     1       4.683   3.834  19.144  0.00  0.00    +0.000 C 
ATOM     17  O   UNL     1       5.355   2.915  19.617  0.00  0.00    +0.000 OA
ATOM     18  N   UNL     1       5.239   4.803  18.339  0.00  0.00    +0.000 N 
ATOM     19  H   UNL     1       4.654   5.492  17.869  0.00  0.00    +0.000 HD
BRANCH  18  20
ATOM     20  C   UNL     1       6.627   4.711  17.929  0.00  0.00    +0.000 C 
BRANCH  20  21
ATOM     21  C   UNL     1       6.799   4.653  16.411  0.00  0.00    +0.000 C 
ATOM     22  O   UNL     1       7.391   5.512  15.760  0.00  0.00    +0.000 OA
ATOM     23  N   UNL     1       6.208   3.556  15.831  0.00  0.00    +0.000 N 
ATOM     24  H   UNL     1       5.892   2.737  16.343  0.00  0.00    +0.000 HD
BRANCH  23  25
ATOM     25  O   UNL     1       6.369   3.406  14.437  0.00  0.00    +0.000 OA
ATOM     26  H   UNL     1       7.333   3.243  14.344  0.00  0.00    +0.000 HD
ENDBRANCH  23  25
ENDBRANCH  20  21
ENDBRANCH  18  20
ENDBRANCH   1  16
BRANCH   1  28
ATOM     27  C   UNL     1       2.440   2.889  17.200  0.00  0.00    +0.000 C 
ATOM     28  C   UNL     1       2.297   2.883  18.724  0.00  0.00    +0.000 C 
ATOM     29  C   UNL     1       0.816   2.952  19.105  0.00  0.00    +0.000 C 
ENDBRANCH   1  28
TORSDOF 8
ENDMDL
MODEL 9
REMARK VINA RESULT:      -7.1      2.002      2.642
REMARK  Name = 
REMARK  10 active torsions:
REMARK  status: ('A' for Active; 'I' for Inactive)
REMARK    1  A    between atoms: C_1  and  C_2
REMARK    2  A    between atoms: C_2  and  C_3
REMARK    3  A    between atoms: C_2  and  C_4
REMARK    4  A    between atoms: C_4  and  N_5
REMARK    5  A    between atoms: C_4  and  C_18
REMARK    6  A    between atoms: C_6  and  C_8
REMARK    7  A    between atoms: C_11  and  C_12
REMARK    8  A    between atoms: N_20  and  C_21
REMARK    9  A    between atoms: C_21  and  C_22
REMARK   10  A    between atoms: N_24  and  O_25
REMARK                            x       y       z     vdW  Elec       q    Type
REMARK                         _______ _______ _______ _____ _____    ______ ____
ROOT
ATOM      1  C   UNL     1       3.911   4.287  18.518  0.00  0.00    +0.000 C 
ENDROOT
BRANCH   1   2
ATOM      2  N   UNL     1       3.238   5.586  18.418  0.00  0.00    +0.000 N 
ATOM      3  C   UNL     1       2.692   6.193  19.523  0.00  0.00    +0.000 C 
ATOM      4  O   UNL     1       2.678   5.644  20.623  0.00  0.00    +0.000 OA
ATOM      5  H   UNL     1       3.256   6.094  17.536  0.00  0.00    +0.000 HD
BRANCH   3   6
ATOM      6  C   UNL     1       2.151   7.545  19.329  0.00  0.00    +0.000 A 
ATOM      7  C   UNL     1       2.338   8.234  18.143  0.00  0.00    +0.000 A 
ATOM      8  S   UNL     1       1.542   9.739  18.179  0.00  0.00    +0.000 S 
ATOM      9  C   UNL     1       1.020   9.413  19.789  0.00  0.00    +0.000 A 
ATOM     10  N   UNL     1       1.398   8.245  20.287  0.00  0.00    +0.000 NA
BRANCH   9  11
ATOM     11  C   UNL     1       0.185  10.422  20.540  0.00  0.00    +0.000 A 
ATOM     12  C   UNL     1      -0.847  11.128  19.957  0.00  0.00    +0.000 A 
ATOM     13  S   UNL     1      -1.561  12.185  21.108  0.00  0.00    +0.000 S 
ATOM     14  C   UNL     1      -0.444  11.629  22.285  0.00  0.00    +0.000 A 
ATOM     15  N   UNL     1       0.404  10.709  21.883  0.00  0.00    +0.000 NA
ENDBRANCH   9  11
ENDBRANCH   3   6
ENDBRANCH   1   2
BRANCH   1  16
ATOM     16  C   UNL     1       5.364   4.445  18.015  0.00  0.00    +0.000 C 
ATOM     17  O   UNL     1       5.713   4.079  16.892  0.00  0.00    +0.000 OA
ATOM     18  N   UNL     1       6.245   5.027  18.899  0.00  0.00    +0.000 N 
ATOM     19  H   UNL     1       5.920   5.423  19.780  0.00  0.00    +0.000 HD
BRANCH  18  20
ATOM     20  C   UNL     1       7.604   5.329  18.491  0.00  0.00    +0.000 C 
BRANCH  20  21
ATOM     21  C   UNL     1       7.769   6.759  17.974  0.00  0.00    +0.000 C 
ATOM     22  O   UNL     1       7.368   7.135  16.874  0.00  0.00    +0.000 OA
ATOM     23  N   UNL     1       8.434   7.586  18.847  0.00  0.00    +0.000 N 
ATOM     24  H   UNL     1       8.599   7.373  19.826  0.00  0.00    +0.000 HD
BRANCH  23  25
ATOM     25  O   UNL     1       8.580   8.937  18.460  0.00  0.00    +0.000 OA
ATOM     26  H   UNL     1       8.264   9.426  19.251  0.00  0.00    +0.000 HD
ENDBRANCH  23  25
ENDBRANCH  20  21
ENDBRANCH  18  20
ENDBRANCH   1  16
BRANCH   1  28
ATOM     27  C   UNL     1       1.596   3.348  17.931  0.00  0.00    +0.000 C 
ATOM     28  C   UNL     1       3.111   3.157  17.819  0.00  0.00    +0.000 C 
ATOM     29  C   UNL     1       3.492   1.752  18.292  0.00  0.00    +0.000 C 
ENDBRANCH   1  28
TORSDOF 8
ENDMDL
