MODEL 1
REMARK VINA RESULT:      -8.1      0.000      0.000
REMARK  Name = 
REMARK  2 active torsions:
REMARK  status: ('A' for Active; 'I' for Inactive)
REMARK    1  A    between atoms: C_2  and  C_5
REMARK    2  A    between atoms: N_3  and  O_4
REMARK                            x       y       z     vdW  Elec       q    Type
REMARK                         _______ _______ _______ _____ _____    ______ ____
ROOT
ATOM      1  C   UNL     1      -0.193  11.236  20.294  0.00  0.00    +0.000 A 
ATOM      2  C   UNL     1      -0.901  11.754  21.396  0.00  0.00    +0.000 A 
ATOM      3  C   UNL     1      -0.987  11.037  22.601  0.00  0.00    +0.000 A 
ATOM      4  C   UNL     1      -0.375   9.794  22.726  0.00  0.00    +0.000 A 
ATOM      5  C   UNL     1       0.322   9.294  21.638  0.00  0.00    +0.000 A 
ATOM      6  C   UNL     1       0.418   9.995  20.428  0.00  0.00    +0.000 A 
ATOM      7  C   UNL     1       1.221   9.197  19.435  0.00  0.00    +0.000 C 
ATOM      8  N   UNL     1       1.746   8.093  20.265  0.00  0.00    +0.000 N 
ATOM      9  C   UNL     1       2.297   7.006  19.678  0.00  0.00    +0.000 A 
ATOM     10  N   UNL     1       2.539   6.771  18.408  0.00  0.00    +0.000 NA
ATOM     11  C   UNL     1       3.050   5.491  18.357  0.00  0.00    +0.000 A 
ATOM     12  C   UNL     1       3.445   4.712  17.259  0.00  0.00    +0.000 A 
ATOM     13  C   UNL     1       3.907   3.408  17.491  0.00  0.00    +0.000 A 
ATOM     14  C   UNL     1       3.983   2.890  18.787  0.00  0.00    +0.000 A 
ATOM     15  C   UNL     1       3.611   3.656  19.894  0.00  0.00    +0.000 A 
ATOM     16  C   UNL     1       3.151   4.946  19.630  0.00  0.00    +0.000 A 
ATOM     17  N   UNL     1       2.713   5.947  20.448  0.00  0.00    +0.000 N 
ATOM     18  C   UNL     1       1.038   7.989  21.541  0.00  0.00    +0.000 C 
ATOM     19  H   UNL     1       2.684   5.915  21.451  0.00  0.00    +0.000 HD
ENDROOT
BRANCH   1  21
ATOM     20  O   UNL     1       0.800  12.694  18.712  0.00  0.00    +0.000 OA
ATOM     21  C   UNL     1      -0.146  11.970  19.007  0.00  0.00    +0.000 C 
ATOM     22  N   UNL     1      -1.232  11.808  18.175  0.00  0.00    +0.000 N 
ATOM     23  H   UNL     1      -2.143  11.512  18.509  0.00  0.00    +0.000 HD
BRANCH  22  24
ATOM     24  O   UNL     1      -1.221  12.598  17.002  0.00  0.00    +0.000 OA
ATOM     25  H   UNL     1      -1.136  11.919  16.297  0.00  0.00    +0.000 HD
ENDBRANCH  22  24
ENDBRANCH   1  21
TORSDOF 2
ENDMDL
MODEL 2
REMARK VINA RESULT:      -7.9      6.123      9.625
REMARK  Name = 
REMARK  2 active torsions:
REMARK  status: ('A' for Active; 'I' for Inactive)
REMARK    1  A    between atoms: C_2  and  C_5
REMARK    2  A    between atoms: N_3  and  O_4
REMARK                            x       y       z     vdW  Elec       q    Type
REMARK                         _______ _______ _______ _____ _____    ______ ____
ROOT
ATOM      1  C   UNL     1       6.467   3.629  12.525  0.00  0.00    +0.000 A 
ATOM      2  C   UNL     1       7.506   4.381  11.944  0.00  0.00    +0.000 A 
ATOM      3  C   UNL     1       8.122   5.428  12.650  0.00  0.00    +0.000 A 
ATOM      4  C   UNL     1       7.710   5.745  13.940  0.00  0.00    +0.000 A 
ATOM      5  C   UNL     1       6.688   4.997  14.505  0.00  0.00    +0.000 A 
ATOM      6  C   UNL     1       6.063   3.950  13.815  0.00  0.00    +0.000 A 
ATOM      7  C   UNL     1       4.989   3.338  14.676  0.00  0.00    +0.000 C 
ATOM      8  N   UNL     1       5.217   3.992  15.980  0.00  0.00    +0.000 N 
ATOM      9  C   UNL     1       4.281   3.911  16.953  0.00  0.00    +0.000 A 
ATOM     10  N   UNL     1       3.152   3.238  16.976  0.00  0.00    +0.000 NA
ATOM     11  C   UNL     1       2.554   3.555  18.177  0.00  0.00    +0.000 A 
ATOM     12  C   UNL     1       1.319   3.157  18.712  0.00  0.00    +0.000 A 
ATOM     13  C   UNL     1       0.933   3.663  19.963  0.00  0.00    +0.000 A 
ATOM     14  C   UNL     1       1.760   4.538  20.672  0.00  0.00    +0.000 A 
ATOM     15  C   UNL     1       3.001   4.932  20.165  0.00  0.00    +0.000 A 
ATOM     16  C   UNL     1       3.352   4.416  18.917  0.00  0.00    +0.000 A 
ATOM     17  N   UNL     1       4.460   4.583  18.137  0.00  0.00    +0.000 N 
ATOM     18  C   UNL     1       6.081   5.166  15.856  0.00  0.00    +0.000 C 
ATOM     19  H   UNL     1       5.273   5.122  18.378  0.00  0.00    +0.000 HD
ENDROOT
BRANCH   1  21
ATOM     20  O   UNL     1       4.609   2.658  11.419  0.00  0.00    +0.000 OA
ATOM     21  C   UNL     1       5.784   2.558  11.759  0.00  0.00    +0.000 C 
ATOM     22  N   UNL     1       6.537   1.442  11.472  0.00  0.00    +0.000 N 
ATOM     23  H   UNL     1       7.361   1.180  12.003  0.00  0.00    +0.000 HD
BRANCH  22  24
ATOM     24  O   UNL     1       5.841   0.387  10.836  0.00  0.00    +0.000 OA
ATOM     25  H   UNL     1       6.314  -0.406  11.174  0.00  0.00    +0.000 HD
ENDBRANCH  22  24
ENDBRANCH   1  21
TORSDOF 2
ENDMDL
MODEL 3
REMARK VINA RESULT:      -7.6      0.909      1.094
REMARK  Name = 
REMARK  2 active torsions:
REMARK  status: ('A' for Active; 'I' for Inactive)
REMARK    1  A    between atoms: C_2  and  C_5
REMARK    2  A    between atoms: N_3  and  O_4
REMARK                            x       y       z     vdW  Elec       q    Type
REMARK                         _______ _______ _______ _____ _____    ______ ____
ROOT
ATOM      1  C   UNL     1       0.270  11.134  20.270  0.00  0.00    +0.000 A 
ATOM      2  C   UNL     1      -0.479  11.701  21.319  0.00  0.00    +0.000 A 
ATOM      3  C   UNL     1      -0.757  10.970  22.486  0.00  0.00    +0.000 A 
ATOM      4  C   UNL     1      -0.297   9.664  22.625  0.00  0.00    +0.000 A 
ATOM      5  C   UNL     1       0.442   9.115  21.588  0.00  0.00    +0.000 A 
ATOM      6  C   UNL     1       0.727   9.831  20.417  0.00  0.00    +0.000 A 
ATOM      7  C   UNL     1       1.530   8.972  19.475  0.00  0.00    +0.000 C 
ATOM      8  N   UNL     1       1.850   7.798  20.311  0.00  0.00    +0.000 N 
ATOM      9  C   UNL     1       2.334   6.670  19.741  0.00  0.00    +0.000 A 
ATOM     10  N   UNL     1       2.669   6.440  18.491  0.00  0.00    +0.000 NA
ATOM     11  C   UNL     1       3.041   5.113  18.444  0.00  0.00    +0.000 A 
ATOM     12  C   UNL     1       3.452   4.322  17.360  0.00  0.00    +0.000 A 
ATOM     13  C   UNL     1       3.746   2.968  17.589  0.00  0.00    +0.000 A 
ATOM     14  C   UNL     1       3.642   2.415  18.868  0.00  0.00    +0.000 A 
ATOM     15  C   UNL     1       3.252   3.191  19.962  0.00  0.00    +0.000 A 
ATOM     16  C   UNL     1       2.961   4.530  19.701  0.00  0.00    +0.000 A 
ATOM     17  N   UNL     1       2.558   5.554  20.509  0.00  0.00    +0.000 N 
ATOM     18  C   UNL     1       1.018   7.742  21.513  0.00  0.00    +0.000 C 
ATOM     19  H   UNL     1       2.431   5.501  21.504  0.00  0.00    +0.000 HD
ENDROOT
BRANCH   1  21
ATOM     20  O   UNL     1      -0.386  12.135  18.225  0.00  0.00    +0.000 OA
ATOM     21  C   UNL     1       0.517  11.889  19.018  0.00  0.00    +0.000 C 
ATOM     22  N   UNL     1       1.818  12.280  18.791  0.00  0.00    +0.000 N 
ATOM     23  H   UNL     1       2.614  11.824  19.224  0.00  0.00    +0.000 HD
BRANCH  22  24
ATOM     24  O   UNL     1       2.055  12.904  17.544  0.00  0.00    +0.000 OA
ATOM     25  H   UNL     1       2.107  13.853  17.795  0.00  0.00    +0.000 HD
ENDBRANCH  22  24
ENDBRANCH   1  21
TORSDOF 2
ENDMDL
MODEL 4
REMARK VINA RESULT:      -7.6      6.181      9.235
REMARK  Name = 
REMARK  2 active torsions:
REMARK  status: ('A' for Active; 'I' for Inactive)
REMARK    1  A    between atoms: C_2  and  C_5
REMARK    2  A    between atoms: N_3  and  O_4
REMARK                            x       y       z     vdW  Elec       q    Type
REMARK                         _______ _______ _______ _____ _____    ______ ____
ROOT
ATOM      1  C   UNL     1       6.176   3.795  12.597  0.00  0.00    +0.000 A 
ATOM      2  C   UNL     1       7.310   4.432  12.055  0.00  0.00    +0.000 A 
ATOM      3  C   UNL     1       8.107   5.281  12.841  0.00  0.00    +0.000 A 
ATOM      4  C   UNL     1       7.785   5.512  14.174  0.00  0.00    +0.000 A 
ATOM      5  C   UNL     1       6.669   4.879  14.700  0.00  0.00    +0.000 A 
ATOM      6  C   UNL     1       5.863   4.030  13.929  0.00  0.00    +0.000 A 
ATOM      7  C   UNL     1       4.726   3.505  14.766  0.00  0.00    +0.000 C 
ATOM      8  N   UNL     1       5.091   3.963  16.122  0.00  0.00    +0.000 N 
ATOM      9  C   UNL     1       4.179   3.924  17.120  0.00  0.00    +0.000 A 
ATOM     10  N   UNL     1       2.956   3.442  17.120  0.00  0.00    +0.000 NA
ATOM     11  C   UNL     1       2.449   3.714  18.373  0.00  0.00    +0.000 A 
ATOM     12  C   UNL     1       1.179   3.462  18.915  0.00  0.00    +0.000 A 
ATOM     13  C   UNL     1       0.914   3.879  20.229  0.00  0.00    +0.000 A 
ATOM     14  C   UNL     1       1.891   4.525  20.990  0.00  0.00    +0.000 A 
ATOM     15  C   UNL     1       3.166   4.769  20.475  0.00  0.00    +0.000 A 
ATOM     16  C   UNL     1       3.396   4.348  19.165  0.00  0.00    +0.000 A 
ATOM     17  N   UNL     1       4.496   4.422  18.360  0.00  0.00    +0.000 N 
ATOM     18  C   UNL     1       6.133   4.991  16.086  0.00  0.00    +0.000 C 
ATOM     19  H   UNL     1       5.392   4.794  18.622  0.00  0.00    +0.000 HD
ENDROOT
BRANCH   1  21
ATOM     20  O   UNL     1       5.630   1.796  11.447  0.00  0.00    +0.000 OA
ATOM     21  C   UNL     1       5.308   2.940  11.751  0.00  0.00    +0.000 C 
ATOM     22  N   UNL     1       4.133   3.511  11.315  0.00  0.00    +0.000 N 
ATOM     23  H   UNL     1       3.996   4.515  11.257  0.00  0.00    +0.000 HD
BRANCH  22  24
ATOM     24  O   UNL     1       3.369   2.722  10.424  0.00  0.00    +0.000 OA
ATOM     25  H   UNL     1       2.754   3.384  10.037  0.00  0.00    +0.000 HD
ENDBRANCH  22  24
ENDBRANCH   1  21
TORSDOF 2
ENDMDL
MODEL 5
REMARK VINA RESULT:      -7.5      3.730      8.130
REMARK  Name = 
REMARK  2 active torsions:
REMARK  status: ('A' for Active; 'I' for Inactive)
REMARK    1  A    between atoms: C_2  and  C_5
REMARK    2  A    between atoms: N_3  and  O_4
REMARK                            x       y       z     vdW  Elec       q    Type
REMARK                         _______ _______ _______ _____ _____    ______ ____
ROOT
ATOM      1  C   UNL     1       3.966   3.612  18.891  0.00  0.00    +0.000 A 
ATOM      2  C   UNL     1       4.487   3.193  17.652  0.00  0.00    +0.000 A 
ATOM      3  C   UNL     1       4.460   4.041  16.532  0.00  0.00    +0.000 A 
ATOM      4  C   UNL     1       3.909   5.315  16.628  0.00  0.00    +0.000 A 
ATOM      5  C   UNL     1       3.401   5.720  17.853  0.00  0.00    +0.000 A 
ATOM      6  C   UNL     1       3.420   4.886  18.979  0.00  0.00    +0.000 A 
ATOM      7  C   UNL     1       2.790   5.593  20.151  0.00  0.00    +0.000 C 
ATOM      8  N   UNL     1       2.615   6.966  19.636  0.00  0.00    +0.000 N 
ATOM      9  C   UNL     1       1.828   7.844  20.299  0.00  0.00    +0.000 A 
ATOM     10  N   UNL     1       1.204   7.709  21.448  0.00  0.00    +0.000 NA
ATOM     11  C   UNL     1       0.496   8.879  21.627  0.00  0.00    +0.000 A 
ATOM     12  C   UNL     1      -0.374   9.267  22.658  0.00  0.00    +0.000 A 
ATOM     13  C   UNL     1      -0.997  10.522  22.574  0.00  0.00    +0.000 A 
ATOM     14  C   UNL     1      -0.756  11.376  21.495  0.00  0.00    +0.000 A 
ATOM     15  C   UNL     1       0.120  11.015  20.468  0.00  0.00    +0.000 A 
ATOM     16  C   UNL     1       0.719   9.760  20.578  0.00  0.00    +0.000 A 
ATOM     17  N   UNL     1       1.604   9.096  19.779  0.00  0.00    +0.000 N 
ATOM     18  C   UNL     1       2.757   7.024  18.181  0.00  0.00    +0.000 C 
ATOM     19  H   UNL     1       2.019   9.454  18.936  0.00  0.00    +0.000 HD
ENDROOT
BRANCH   1  21
ATOM     20  O   UNL     1       2.941   2.537  20.737  0.00  0.00    +0.000 OA
ATOM     21  C   UNL     1       3.950   2.696  20.058  0.00  0.00    +0.000 C 
ATOM     22  N   UNL     1       5.134   2.054  20.342  0.00  0.00    +0.000 N 
ATOM     23  H   UNL     1       6.037   2.401  20.036  0.00  0.00    +0.000 HD
BRANCH  22  24
ATOM     24  O   UNL     1       5.131   1.269  21.519  0.00  0.00    +0.000 OA
ATOM     25  H   UNL     1       4.244   1.464  21.895  0.00  0.00    +0.000 HD
ENDBRANCH  22  24
ENDBRANCH   1  21
TORSDOF 2
ENDMDL
MODEL 6
REMARK VINA RESULT:      -7.4      3.737      7.883
REMARK  Name = 
REMARK  2 active torsions:
REMARK  status: ('A' for Active; 'I' for Inactive)
REMARK    1  A    between atoms: C_2  and  C_5
REMARK    2  A    between atoms: N_3  and  O_4
REMARK                            x       y       z     vdW  Elec       q    Type
REMARK                         _______ _______ _______ _____ _____    ______ ____
ROOT
ATOM      1  C   UNL     1       2.807   3.299  19.858  0.00  0.00    +0.000 A 
ATOM      2  C   UNL     1       3.350   2.458  18.868  0.00  0.00    +0.000 A 
ATOM      3  C   UNL     1       3.671   2.954  17.594  0.00  0.00    +0.000 A 
ATOM      4  C   UNL     1       3.452   4.293  17.285  0.00  0.00    +0.000 A 
ATOM      5  C   UNL     1       2.920   5.115  18.266  0.00  0.00    +0.000 A 
ATOM      6  C   UNL     1       2.593   4.635  19.542  0.00  0.00    +0.000 A 
ATOM      7  C   UNL     1       2.026   5.752  20.380  0.00  0.00    +0.000 C 
ATOM      8  N   UNL     1       2.267   6.937  19.532  0.00  0.00    +0.000 N 
ATOM      9  C   UNL     1       1.653   8.109  19.815  0.00  0.00    +0.000 A 
ATOM     10  N   UNL     1       0.882   8.428  20.831  0.00  0.00    +0.000 NA
ATOM     11  C   UNL     1       0.476   9.725  20.597  0.00  0.00    +0.000 A 
ATOM     12  C   UNL     1      -0.384  10.555  21.332  0.00  0.00    +0.000 A 
ATOM     13  C   UNL     1      -0.656  11.843  20.843  0.00  0.00    +0.000 A 
ATOM     14  C   UNL     1      -0.080  12.298  19.654  0.00  0.00    +0.000 A 
ATOM     15  C   UNL     1       0.792  11.493  18.918  0.00  0.00    +0.000 A 
ATOM     16  C   UNL     1       1.038  10.218  19.428  0.00  0.00    +0.000 A 
ATOM     17  N   UNL     1       1.816   9.189  18.982  0.00  0.00    +0.000 N 
ATOM     18  C   UNL     1       2.591   6.564  18.155  0.00  0.00    +0.000 C 
ATOM     19  H   UNL     1       2.405   9.207  18.168  0.00  0.00    +0.000 HD
ENDROOT
BRANCH   1  21
ATOM     20  O   UNL     1       3.253   2.298  21.959  0.00  0.00    +0.000 OA
ATOM     21  C   UNL     1       2.421   2.762  21.186  0.00  0.00    +0.000 C 
ATOM     22  N   UNL     1       1.078   2.796  21.488  0.00  0.00    +0.000 N 
ATOM     23  H   UNL     1       0.354   2.848  20.779  0.00  0.00    +0.000 HD
BRANCH  22  24
ATOM     24  O   UNL     1       0.715   2.183  22.710  0.00  0.00    +0.000 OA
ATOM     25  H   UNL     1       1.202   1.330  22.665  0.00  0.00    +0.000 HD
ENDBRANCH  22  24
ENDBRANCH   1  21
TORSDOF 2
ENDMDL
MODEL 7
REMARK VINA RESULT:      -7.3      3.607      7.644
REMARK  Name = 
REMARK  2 active torsions:
REMARK  status: ('A' for Active; 'I' for Inactive)
REMARK    1  A    between atoms: C_2  and  C_5
REMARK    2  A    between atoms: N_3  and  O_4
REMARK                            x       y       z     vdW  Elec       q    Type
REMARK                         _______ _______ _______ _____ _____    ______ ____
ROOT
ATOM      1  C   UNL     1       4.478   4.077  18.615  0.00  0.00    +0.000 A 
ATOM      2  C   UNL     1       4.346   2.909  19.391  0.00  0.00    +0.000 A 
ATOM      3  C   UNL     1       3.389   2.827  20.417  0.00  0.00    +0.000 A 
ATOM      4  C   UNL     1       2.554   3.906  20.688  0.00  0.00    +0.000 A 
ATOM      5  C   UNL     1       2.689   5.050  19.917  0.00  0.00    +0.000 A 
ATOM      6  C   UNL     1       3.639   5.149  18.891  0.00  0.00    +0.000 A 
ATOM      7  C   UNL     1       3.556   6.508  18.245  0.00  0.00    +0.000 C 
ATOM      8  N   UNL     1       2.337   7.075  18.856  0.00  0.00    +0.000 N 
ATOM      9  C   UNL     1       2.071   8.396  18.737  0.00  0.00    +0.000 A 
ATOM     10  N   UNL     1       2.710   9.323  18.059  0.00  0.00    +0.000 NA
ATOM     11  C   UNL     1       2.054  10.504  18.332  0.00  0.00    +0.000 A 
ATOM     12  C   UNL     1       2.326  11.815  17.911  0.00  0.00    +0.000 A 
ATOM     13  C   UNL     1       1.503  12.854  18.372  0.00  0.00    +0.000 A 
ATOM     14  C   UNL     1       0.428  12.596  19.227  0.00  0.00    +0.000 A 
ATOM     15  C   UNL     1       0.130  11.297  19.643  0.00  0.00    +0.000 A 
ATOM     16  C   UNL     1       0.970  10.287  19.172  0.00  0.00    +0.000 A 
ATOM     17  N   UNL     1       0.978   8.937  19.370  0.00  0.00    +0.000 N 
ATOM     18  C   UNL     1       1.919   6.321  20.037  0.00  0.00    +0.000 C 
ATOM     19  H   UNL     1       0.304   8.417  19.905  0.00  0.00    +0.000 HD
ENDROOT
BRANCH   1  21
ATOM     20  O   UNL     1       5.236   4.244  16.376  0.00  0.00    +0.000 OA
ATOM     21  C   UNL     1       5.523   4.180  17.568  0.00  0.00    +0.000 C 
ATOM     22  N   UNL     1       6.827   4.179  18.008  0.00  0.00    +0.000 N 
ATOM     23  H   UNL     1       7.105   3.799  18.907  0.00  0.00    +0.000 HD
BRANCH  22  24
ATOM     24  O   UNL     1       7.811   4.169  16.992  0.00  0.00    +0.000 OA
ATOM     25  H   UNL     1       7.435   4.796  16.335  0.00  0.00    +0.000 HD
ENDBRANCH  22  24
ENDBRANCH   1  21
TORSDOF 2
ENDMDL
MODEL 8
REMARK VINA RESULT:      -7.3      3.422      7.646
REMARK  Name = 
REMARK  2 active torsions:
REMARK  status: ('A' for Active; 'I' for Inactive)
REMARK    1  A    between atoms: C_2  and  C_5
REMARK    2  A    between atoms: N_3  and  O_4
REMARK                            x       y       z     vdW  Elec       q    Type
REMARK                         _______ _______ _______ _____ _____    ______ ____
ROOT
ATOM      1  C   UNL     1       4.952   5.316  17.294  0.00  0.00    +0.000 A 
ATOM      2  C   UNL     1       5.162   4.040  17.851  0.00  0.00    +0.000 A 
ATOM      3  C   UNL     1       4.443   3.617  18.982  0.00  0.00    +0.000 A 
ATOM      4  C   UNL     1       3.509   4.460  19.576  0.00  0.00    +0.000 A 
ATOM      5  C   UNL     1       3.307   5.713  19.019  0.00  0.00    +0.000 A 
ATOM      6  C   UNL     1       4.016   6.150  17.892  0.00  0.00    +0.000 A 
ATOM      7  C   UNL     1       3.592   7.549  17.531  0.00  0.00    +0.000 C 
ATOM      8  N   UNL     1       2.434   7.770  18.421  0.00  0.00    +0.000 N 
ATOM      9  C   UNL     1       1.938   9.017  18.593  0.00  0.00    +0.000 A 
ATOM     10  N   UNL     1       2.278  10.142  18.005  0.00  0.00    +0.000 NA
ATOM     11  C   UNL     1       1.501  11.118  18.593  0.00  0.00    +0.000 A 
ATOM     12  C   UNL     1       1.471  12.506  18.384  0.00  0.00    +0.000 A 
ATOM     13  C   UNL     1       0.591  13.282  19.154  0.00  0.00    +0.000 A 
ATOM     14  C   UNL     1      -0.246  12.693  20.105  0.00  0.00    +0.000 A 
ATOM     15  C   UNL     1      -0.243  11.313  20.315  0.00  0.00    +0.000 A 
ATOM     16  C   UNL     1       0.646  10.569  19.539  0.00  0.00    +0.000 A 
ATOM     17  N   UNL     1       0.912   9.232  19.480  0.00  0.00    +0.000 N 
ATOM     18  C   UNL     1       2.376   6.777  19.493  0.00  0.00    +0.000 C 
ATOM     19  H   UNL     1       0.445   8.516  20.008  0.00  0.00    +0.000 HD
ENDROOT
BRANCH   1  21
ATOM     20  O   UNL     1       5.265   6.501  15.266  0.00  0.00    +0.000 OA
ATOM     21  C   UNL     1       5.749   5.778  16.132  0.00  0.00    +0.000 C 
ATOM     22  N   UNL     1       7.052   5.336  16.073  0.00  0.00    +0.000 N 
ATOM     23  H   UNL     1       7.373   4.503  16.555  0.00  0.00    +0.000 HD
BRANCH  22  24
ATOM     24  O   UNL     1       7.763   5.698  14.905  0.00  0.00    +0.000 OA
ATOM     25  H   UNL     1       8.584   6.090  15.277  0.00  0.00    +0.000 HD
ENDBRANCH  22  24
ENDBRANCH   1  21
TORSDOF 2
ENDMDL
MODEL 9
REMARK VINA RESULT:      -7.3      3.730      7.908
REMARK  Name = 
REMARK  2 active torsions:
REMARK  status: ('A' for Active; 'I' for Inactive)
REMARK    1  A    between atoms: C_2  and  C_5
REMARK    2  A    between atoms: N_3  and  O_4
REMARK                            x       y       z     vdW  Elec       q    Type
REMARK                         _______ _______ _______ _____ _____    ______ ____
ROOT
ATOM      1  C   UNL     1       2.781   3.714  19.836  0.00  0.00    +0.000 A 
ATOM      2  C   UNL     1       3.304   3.112  18.675  0.00  0.00    +0.000 A 
ATOM      3  C   UNL     1       3.507   3.860  17.503  0.00  0.00    +0.000 A 
ATOM      4  C   UNL     1       3.189   5.214  17.467  0.00  0.00    +0.000 A 
ATOM      5  C   UNL     1       2.678   5.798  18.616  0.00  0.00    +0.000 A 
ATOM      6  C   UNL     1       2.468   5.066  19.793  0.00  0.00    +0.000 A 
ATOM      7  C   UNL     1       1.895   5.964  20.858  0.00  0.00    +0.000 C 
ATOM      8  N   UNL     1       2.006   7.301  20.241  0.00  0.00    +0.000 N 
ATOM      9  C   UNL     1       1.345   8.353  20.776  0.00  0.00    +0.000 A 
ATOM     10  N   UNL     1       0.628   8.421  21.876  0.00  0.00    +0.000 NA
ATOM     11  C   UNL     1       0.131   9.707  21.917  0.00  0.00    +0.000 A 
ATOM     12  C   UNL     1      -0.724  10.322  22.844  0.00  0.00    +0.000 A 
ATOM     13  C   UNL     1      -1.104  11.655  22.625  0.00  0.00    +0.000 A 
ATOM     14  C   UNL     1      -0.639  12.365  21.515  0.00  0.00    +0.000 A 
ATOM     15  C   UNL     1       0.227  11.775  20.591  0.00  0.00    +0.000 A 
ATOM     16  C   UNL     1       0.582  10.448  20.833  0.00  0.00    +0.000 A 
ATOM     17  N   UNL     1       1.387   9.578  20.157  0.00  0.00    +0.000 N 
ATOM     18  C   UNL     1       2.258   7.216  18.802  0.00  0.00    +0.000 C 
ATOM     19  H   UNL     1       1.917   9.790  19.329  0.00  0.00    +0.000 HD
ENDROOT
BRANCH   1  21
ATOM     20  O   UNL     1       3.422   2.329  21.649  0.00  0.00    +0.000 OA
ATOM     21  C   UNL     1       2.519   2.912  21.055  0.00  0.00    +0.000 C 
ATOM     22  N   UNL     1       1.207   2.845  21.469  0.00  0.00    +0.000 N 
ATOM     23  H   UNL     1       0.424   3.015  20.847  0.00  0.00    +0.000 HD
BRANCH  22  24
ATOM     24  O   UNL     1       0.961   1.991  22.569  0.00  0.00    +0.000 OA
ATOM     25  H   UNL     1       1.447   2.442  23.294  0.00  0.00    +0.000 HD
ENDBRANCH  22  24
ENDBRANCH   1  21
TORSDOF 2
ENDMDL
