MODEL 1
REMARK VINA RESULT:      -8.7      0.000      0.000
REMARK  Name = 
REMARK  8 active torsions:
REMARK  status: ('A' for Active; 'I' for Inactive)
REMARK    1  A    between atoms: C_2  and  C_10
REMARK    2  A    between atoms: N_3  and  C_4
REMARK    3  A    between atoms: C_4  and  C_5
REMARK    4  A    between atoms: C_11  and  O_12
REMARK    5  A    between atoms: C_15  and  N_16
REMARK    6  A    between atoms: N_16  and  C_17
REMARK    7  A    between atoms: C_20  and  O_21
REMARK    8  A    between atoms: O_21  and  C_22
REMARK                            x       y       z     vdW  Elec       q    Type
REMARK                         _______ _______ _______ _____ _____    ______ ____
ROOT
ATOM      1  C   UNL     1       5.529   4.807  17.834  0.00  0.00    +0.000 A 
ATOM      2  C   UNL     1       6.957   4.903  17.758  0.00  0.00    +0.000 A 
ATOM      3  N   UNL     1       7.508   6.025  17.341  0.00  0.00    +0.000 NA
ATOM      4  S   UNL     1       6.290   7.053  16.940  0.00  0.00    +0.000 S 
ATOM      5  C   UNL     1       4.977   6.018  17.414  0.00  0.00    +0.000 A 
ENDROOT
BRANCH   1   7
ATOM      6  N   UNL     1       5.337   3.105  19.471  0.00  0.00    +0.000 N 
ATOM      7  C   UNL     1       4.831   3.616  18.314  0.00  0.00    +0.000 C 
ATOM      8  N   UNL     1       3.879   3.181  17.568  0.00  0.00    +0.000 NA
ATOM      9  H   UNL     1       5.007   2.185  19.731  0.00  0.00    +0.000 HD
ATOM     10  H   UNL     1       6.331   3.237  19.632  0.00  0.00    +0.000 HD
BRANCH   8  11
ATOM     11  C   UNL     1       3.157   1.948  17.912  0.00  0.00    +0.000 C 
BRANCH  11  12
ATOM     12  C   UNL     1       2.008   2.162  18.905  0.00  0.00    +0.000 C 
ATOM     13  C   UNL     1       1.237   3.465  18.736  0.00  0.00    +0.000 C 
ATOM     14  C   UNL     1       0.774   3.747  20.142  0.00  0.00    +0.000 C 
ATOM     15  C   UNL     1       1.944   3.249  20.961  0.00  0.00    +0.000 C 
ATOM     16  O   UNL     1       2.473   2.111  20.268  0.00  0.00    +0.000 OA
ENDBRANCH  11  12
ENDBRANCH   8  11
ENDBRANCH   1   7
BRANCH   2  17
ATOM     17  O   UNL     1       7.831   3.940  18.111  0.00  0.00    +0.000 OA
ATOM     18  H   UNL     1       8.054   4.074  19.055  0.00  0.00    +0.000 HD
ENDBRANCH   2  17
BRANCH   5  19
ATOM     19  N   UNL     1       3.663   6.368  17.267  0.00  0.00    +0.000 N 
ATOM     20  H   UNL     1       3.080   5.812  16.643  0.00  0.00    +0.000 HD
BRANCH  19  21
ATOM     21  C   UNL     1       2.910   7.204  18.126  0.00  0.00    +0.000 A 
ATOM     22  C   UNL     1       2.521   8.475  17.683  0.00  0.00    +0.000 A 
ATOM     23  C   UNL     1       1.756   9.324  18.498  0.00  0.00    +0.000 A 
ATOM     24  C   UNL     1       1.368   8.908  19.770  0.00  0.00    +0.000 A 
ATOM     25  C   UNL     1       1.840   7.693  20.265  0.00  0.00    +0.000 A 
ATOM     26  C   UNL     1       2.581   6.841  19.440  0.00  0.00    +0.000 A 
BRANCH  24  27
ATOM     27  O   UNL     1       0.549   9.755  20.484  0.00  0.00    +0.000 OA
BRANCH  27  28
ATOM     28  C   UNL     1      -0.327  10.585  19.806  0.00  0.00    +0.000 A 
ATOM     29  C   UNL     1      -1.380  10.106  19.020  0.00  0.00    +0.000 A 
ATOM     30  C   UNL     1      -2.274  10.993  18.419  0.00  0.00    +0.000 A 
ATOM     31 CL   UNL     1      -3.619  10.380  17.540  0.00  0.00    +0.000 Cl
ATOM     32  C   UNL     1      -2.092  12.367  18.541  0.00  0.00    +0.000 A 
ATOM     33  C   UNL     1      -0.995  12.857  19.253  0.00  0.00    +0.000 A 
ATOM     34  C   UNL     1      -0.114  11.972  19.883  0.00  0.00    +0.000 A 
ATOM     35 CL   UNL     1       1.238  12.632  20.728  0.00  0.00    +0.000 Cl
ENDBRANCH  27  28
ENDBRANCH  24  27
ENDBRANCH  19  21
ENDBRANCH   5  19
TORSDOF 8
ENDMDL
MODEL 2
REMARK VINA RESULT:      -8.7      0.849      2.033
REMARK  Name = 
REMARK  8 active torsions:
REMARK  status: ('A' for Active; 'I' for Inactive)
REMARK    1  A    between atoms: C_2  and  C_10
REMARK    2  A    between atoms: N_3  and  C_4
REMARK    3  A    between atoms: C_4  and  C_5
REMARK    4  A    between atoms: C_11  and  O_12
REMARK    5  A    between atoms: C_15  and  N_16
REMARK    6  A    between atoms: N_16  and  C_17
REMARK    7  A    between atoms: C_20  and  O_21
REMARK    8  A    between atoms: O_21  and  C_22
REMARK                            x       y       z     vdW  Elec       q    Type
REMARK                         _______ _______ _______ _____ _____    ______ ____
ROOT
ATOM      1  C   UNL     1       5.435   4.887  17.941  0.00  0.00    +0.000 A 
ATOM      2  C   UNL     1       6.860   5.028  17.873  0.00  0.00    +0.000 A 
ATOM      3  N   UNL     1       7.378   6.173  17.477  0.00  0.00    +0.000 NA
ATOM      4  S   UNL     1       6.131   7.170  17.087  0.00  0.00    +0.000 S 
ATOM      5  C   UNL     1       4.848   6.087  17.537  0.00  0.00    +0.000 A 
ENDROOT
BRANCH   1   7
ATOM      6  N   UNL     1       5.319   3.128  19.523  0.00  0.00    +0.000 N 
ATOM      7  C   UNL     1       4.772   3.668  18.399  0.00  0.00    +0.000 C 
ATOM      8  N   UNL     1       3.807   3.240  17.664  0.00  0.00    +0.000 NA
ATOM      9  H   UNL     1       5.012   2.193  19.761  0.00  0.00    +0.000 HD
ATOM     10  H   UNL     1       6.314   3.273  19.662  0.00  0.00    +0.000 HD
BRANCH   8  11
ATOM     11  C   UNL     1       3.117   1.983  17.986  0.00  0.00    +0.000 C 
BRANCH  11  12
ATOM     12  C   UNL     1       1.988   2.143  19.011  0.00  0.00    +0.000 C 
ATOM     13  C   UNL     1       1.153   3.409  18.866  0.00  0.00    +0.000 C 
ATOM     14  C   UNL     1       0.719   3.668  20.285  0.00  0.00    +0.000 C 
ATOM     15  C   UNL     1       1.933   3.225  21.070  0.00  0.00    +0.000 C 
ATOM     16  O   UNL     1       2.494   2.112  20.360  0.00  0.00    +0.000 OA
ENDBRANCH  11  12
ENDBRANCH   8  11
ENDBRANCH   1   7
BRANCH   2  17
ATOM     17  O   UNL     1       7.762   4.086  18.216  0.00  0.00    +0.000 OA
ATOM     18  H   UNL     1       7.966   3.566  17.413  0.00  0.00    +0.000 HD
ENDBRANCH   2  17
BRANCH   5  19
ATOM     19  N   UNL     1       3.525   6.399  17.390  0.00  0.00    +0.000 N 
ATOM     20  H   UNL     1       2.942   5.784  16.824  0.00  0.00    +0.000 HD
BRANCH  19  21
ATOM     21  C   UNL     1       2.771   7.287  18.195  0.00  0.00    +0.000 A 
ATOM     22  C   UNL     1       2.392   8.533  17.677  0.00  0.00    +0.000 A 
ATOM     23  C   UNL     1       1.626   9.430  18.436  0.00  0.00    +0.000 A 
ATOM     24  C   UNL     1       1.228   9.091  19.728  0.00  0.00    +0.000 A 
ATOM     25  C   UNL     1       1.690   7.903  20.295  0.00  0.00    +0.000 A 
ATOM     26  C   UNL     1       2.431   7.001  19.524  0.00  0.00    +0.000 A 
BRANCH  24  27
ATOM     27  O   UNL     1       0.408   9.981  20.387  0.00  0.00    +0.000 OA
BRANCH  27  28
ATOM     28  C   UNL     1       0.368  11.301  19.973  0.00  0.00    +0.000 A 
ATOM     29  C   UNL     1       1.254  12.276  20.445  0.00  0.00    +0.000 A 
ATOM     30  C   UNL     1       1.210  13.575  19.937  0.00  0.00    +0.000 A 
ATOM     31 CL   UNL     1       2.371  14.732  20.457  0.00  0.00    +0.000 Cl
ATOM     32  C   UNL     1       0.243  13.934  19.002  0.00  0.00    +0.000 A 
ATOM     33  C   UNL     1      -0.699  12.990  18.588  0.00  0.00    +0.000 A 
ATOM     34  C   UNL     1      -0.640  11.679  19.071  0.00  0.00    +0.000 A 
ATOM     35 CL   UNL     1      -1.846  10.562  18.544  0.00  0.00    +0.000 Cl
ENDBRANCH  27  28
ENDBRANCH  24  27
ENDBRANCH  19  21
ENDBRANCH   5  19
TORSDOF 8
ENDMDL
MODEL 3
REMARK VINA RESULT:      -8.7      2.112      4.134
REMARK  Name = 
REMARK  8 active torsions:
REMARK  status: ('A' for Active; 'I' for Inactive)
REMARK    1  A    between atoms: C_2  and  C_10
REMARK    2  A    between atoms: N_3  and  C_4
REMARK    3  A    between atoms: C_4  and  C_5
REMARK    4  A    between atoms: C_11  and  O_12
REMARK    5  A    between atoms: C_15  and  N_16
REMARK    6  A    between atoms: N_16  and  C_17
REMARK    7  A    between atoms: C_20  and  O_21
REMARK    8  A    between atoms: O_21  and  C_22
REMARK                            x       y       z     vdW  Elec       q    Type
REMARK                         _______ _______ _______ _____ _____    ______ ____
ROOT
ATOM      1  C   UNL     1       2.764   3.809  18.596  0.00  0.00    +0.000 A 
ATOM      2  C   UNL     1       1.880   2.699  18.797  0.00  0.00    +0.000 A 
ATOM      3  N   UNL     1       0.903   2.801  19.676  0.00  0.00    +0.000 NA
ATOM      4  S   UNL     1       1.032   4.277  20.387  0.00  0.00    +0.000 S 
ATOM      5  C   UNL     1       2.376   4.847  19.444  0.00  0.00    +0.000 A 
ENDROOT
BRANCH   1   7
ATOM      6  N   UNL     1       4.390   2.565  17.405  0.00  0.00    +0.000 N 
ATOM      7  C   UNL     1       3.854   3.798  17.622  0.00  0.00    +0.000 C 
ATOM      8  N   UNL     1       4.194   4.942  17.144  0.00  0.00    +0.000 NA
ATOM      9  H   UNL     1       5.259   2.545  16.887  0.00  0.00    +0.000 HD
ATOM     10  H   UNL     1       4.371   1.915  18.184  0.00  0.00    +0.000 HD
BRANCH   8  11
ATOM     11  C   UNL     1       5.326   5.061  16.214  0.00  0.00    +0.000 C 
BRANCH  11  12
ATOM     12  C   UNL     1       6.669   5.325  16.907  0.00  0.00    +0.000 C 
ATOM     13  C   UNL     1       6.607   5.432  18.425  0.00  0.00    +0.000 C 
ATOM     14  C   UNL     1       7.747   6.370  18.725  0.00  0.00    +0.000 C 
ATOM     15  C   UNL     1       7.695   7.314  17.545  0.00  0.00    +0.000 C 
ATOM     16  O   UNL     1       7.285   6.531  16.415  0.00  0.00    +0.000 OA
ENDBRANCH  11  12
ENDBRANCH   8  11
ENDBRANCH   1   7
BRANCH   2  17
ATOM     17  O   UNL     1       1.924   1.526  18.134  0.00  0.00    +0.000 OA
ATOM     18  H   UNL     1       2.730   1.053  18.423  0.00  0.00    +0.000 HD
ENDBRANCH   2  17
BRANCH   5  19
ATOM     19  N   UNL     1       2.956   6.071  19.637  0.00  0.00    +0.000 N 
ATOM     20  H   UNL     1       3.973   6.130  19.646  0.00  0.00    +0.000 HD
BRANCH  19  21
ATOM     21  C   UNL     1       2.331   7.334  19.495  0.00  0.00    +0.000 A 
ATOM     22  C   UNL     1       2.503   8.059  18.309  0.00  0.00    +0.000 A 
ATOM     23  C   UNL     1       1.882   9.304  18.123  0.00  0.00    +0.000 A 
ATOM     24  C   UNL     1       1.077   9.839  19.127  0.00  0.00    +0.000 A 
ATOM     25  C   UNL     1       0.985   9.181  20.353  0.00  0.00    +0.000 A 
ATOM     26  C   UNL     1       1.586   7.930  20.523  0.00  0.00    +0.000 A 
BRANCH  24  27
ATOM     27  O   UNL     1       0.430  11.024  18.848  0.00  0.00    +0.000 OA
BRANCH  27  28
ATOM     28  C   UNL     1      -0.891  10.996  18.436  0.00  0.00    +0.000 A 
ATOM     29  C   UNL     1      -1.307  10.386  17.248  0.00  0.00    +0.000 A 
ATOM     30  C   UNL     1      -2.663  10.328  16.921  0.00  0.00    +0.000 A 
ATOM     31 CL   UNL     1      -3.161   9.486  15.506  0.00  0.00    +0.000 Cl
ATOM     32  C   UNL     1      -3.612  10.932  17.740  0.00  0.00    +0.000 A 
ATOM     33  C   UNL     1      -3.198  11.616  18.885  0.00  0.00    +0.000 A 
ATOM     34  C   UNL     1      -1.844  11.651  19.233  0.00  0.00    +0.000 A 
ATOM     35 CL   UNL     1      -1.389  12.533  20.644  0.00  0.00    +0.000 Cl
ENDBRANCH  27  28
ENDBRANCH  24  27
ENDBRANCH  19  21
ENDBRANCH   5  19
TORSDOF 8
ENDMDL
MODEL 4
REMARK VINA RESULT:      -8.7      2.146      4.265
REMARK  Name = 
REMARK  8 active torsions:
REMARK  status: ('A' for Active; 'I' for Inactive)
REMARK    1  A    between atoms: C_2  and  C_10
REMARK    2  A    between atoms: N_3  and  C_4
REMARK    3  A    between atoms: C_4  and  C_5
REMARK    4  A    between atoms: C_11  and  O_12
REMARK    5  A    between atoms: C_15  and  N_16
REMARK    6  A    between atoms: N_16  and  C_17
REMARK    7  A    between atoms: C_20  and  O_21
REMARK    8  A    between atoms: O_21  and  C_22
REMARK                            x       y       z     vdW  Elec       q    Type
REMARK                         _______ _______ _______ _____ _____    ______ ____
ROOT
ATOM      1  C   UNL     1       2.977   3.796  18.852  0.00  0.00    +0.000 A 
ATOM      2  C   UNL     1       2.261   2.603  19.195  0.00  0.00    +0.000 A 
ATOM      3  N   UNL     1       1.462   2.608  20.243  0.00  0.00    +0.000 NA
ATOM      4  S   UNL     1       1.576   4.090  20.943  0.00  0.00    +0.000 S 
ATOM      5  C   UNL     1       2.655   4.791  19.775  0.00  0.00    +0.000 A 
ENDROOT
BRANCH   1   7
ATOM      6  N   UNL     1       3.309   3.428  16.535  0.00  0.00    +0.000 N 
ATOM      7  C   UNL     1       3.860   3.894  17.691  0.00  0.00    +0.000 C 
ATOM      8  N   UNL     1       5.040   4.351  17.916  0.00  0.00    +0.000 NA
ATOM      9  H   UNL     1       3.946   3.306  15.758  0.00  0.00    +0.000 HD
ATOM     10  H   UNL     1       2.631   2.678  16.622  0.00  0.00    +0.000 HD
BRANCH   8  11
ATOM     11  C   UNL     1       6.037   4.423  16.838  0.00  0.00    +0.000 C 
BRANCH  11  12
ATOM     12  C   UNL     1       7.246   5.305  17.174  0.00  0.00    +0.000 C 
ATOM     13  C   UNL     1       7.471   5.562  18.658  0.00  0.00    +0.000 C 
ATOM     14  C   UNL     1       8.128   6.918  18.650  0.00  0.00    +0.000 C 
ATOM     15  C   UNL     1       7.422   7.602  17.501  0.00  0.00    +0.000 C 
ATOM     16  O   UNL     1       7.160   6.587  16.522  0.00  0.00    +0.000 OA
ENDBRANCH  11  12
ENDBRANCH   8  11
ENDBRANCH   1   7
BRANCH   2  17
ATOM     17  O   UNL     1       2.295   1.440  18.514  0.00  0.00    +0.000 OA
ATOM     18  H   UNL     1       1.573   0.876  18.856  0.00  0.00    +0.000 HD
ENDBRANCH   2  17
BRANCH   5  19
ATOM     19  N   UNL     1       3.137   6.067  19.878  0.00  0.00    +0.000 N 
ATOM     20  H   UNL     1       4.146   6.203  19.919  0.00  0.00    +0.000 HD
BRANCH  19  21
ATOM     21  C   UNL     1       2.430   7.262  19.600  0.00  0.00    +0.000 A 
ATOM     22  C   UNL     1       1.632   7.839  20.597  0.00  0.00    +0.000 A 
ATOM     23  C   UNL     1       0.934   9.034  20.366  0.00  0.00    +0.000 A 
ATOM     24  C   UNL     1       1.028   9.670  19.129  0.00  0.00    +0.000 A 
ATOM     25  C   UNL     1       1.729   9.051  18.094  0.00  0.00    +0.000 A 
ATOM     26  C   UNL     1       2.443   7.874  18.338  0.00  0.00    +0.000 A 
BRANCH  24  27
ATOM     27  O   UNL     1       0.386  10.882  18.996  0.00  0.00    +0.000 OA
BRANCH  27  28
ATOM     28  C   UNL     1      -0.908  10.915  18.505  0.00  0.00    +0.000 A 
ATOM     29  C   UNL     1      -1.279  10.322  17.293  0.00  0.00    +0.000 A 
ATOM     30  C   UNL     1      -2.614  10.326  16.885  0.00  0.00    +0.000 A 
ATOM     31 CL   UNL     1      -3.064   9.506  15.442  0.00  0.00    +0.000 Cl
ATOM     32  C   UNL     1      -3.582  10.976  17.645  0.00  0.00    +0.000 A 
ATOM     33  C   UNL     1      -3.207  11.643  18.813  0.00  0.00    +0.000 A 
ATOM     34  C   UNL     1      -1.876  11.616  19.243  0.00  0.00    +0.000 A 
ATOM     35 CL   UNL     1      -1.466  12.479  20.680  0.00  0.00    +0.000 Cl
ENDBRANCH  27  28
ENDBRANCH  24  27
ENDBRANCH  19  21
ENDBRANCH   5  19
TORSDOF 8
ENDMDL
MODEL 5
REMARK VINA RESULT:      -8.7      2.202      4.285
REMARK  Name = 
REMARK  8 active torsions:
REMARK  status: ('A' for Active; 'I' for Inactive)
REMARK    1  A    between atoms: C_2  and  C_10
REMARK    2  A    between atoms: N_3  and  C_4
REMARK    3  A    between atoms: C_4  and  C_5
REMARK    4  A    between atoms: C_11  and  O_12
REMARK    5  A    between atoms: C_15  and  N_16
REMARK    6  A    between atoms: N_16  and  C_17
REMARK    7  A    between atoms: C_20  and  O_21
REMARK    8  A    between atoms: O_21  and  C_22
REMARK                            x       y       z     vdW  Elec       q    Type
REMARK                         _______ _______ _______ _____ _____    ______ ____
ROOT
ATOM      1  C   UNL     1       3.336   4.028  19.354  0.00  0.00    +0.000 A 
ATOM      2  C   UNL     1       2.708   2.761  19.119  0.00  0.00    +0.000 A 
ATOM      3  N   UNL     1       1.471   2.567  19.529  0.00  0.00    +0.000 NA
ATOM      4  S   UNL     1       0.990   3.932  20.308  0.00  0.00    +0.000 S 
ATOM      5  C   UNL     1       2.435   4.855  20.024  0.00  0.00    +0.000 A 
ENDROOT
BRANCH   1   7
ATOM      6  N   UNL     1       5.587   3.337  19.101  0.00  0.00    +0.000 N 
ATOM      7  C   UNL     1       4.692   4.345  18.909  0.00  0.00    +0.000 C 
ATOM      8  N   UNL     1       4.872   5.531  18.449  0.00  0.00    +0.000 NA
ATOM      9  H   UNL     1       6.562   3.581  18.982  0.00  0.00    +0.000 HD
ATOM     10  H   UNL     1       5.421   2.721  19.892  0.00  0.00    +0.000 HD
BRANCH   8  11
ATOM     11  C   UNL     1       6.209   5.985  18.042  0.00  0.00    +0.000 C 
BRANCH  11  12
ATOM     12  C   UNL     1       6.536   5.702  16.570  0.00  0.00    +0.000 C 
ATOM     13  C   UNL     1       5.379   5.896  15.599  0.00  0.00    +0.000 C 
ATOM     14  C   UNL     1       5.706   4.907  14.511  0.00  0.00    +0.000 C 
ATOM     15  C   UNL     1       6.313   3.767  15.298  0.00  0.00    +0.000 C 
ATOM     16  O   UNL     1       7.030   4.361  16.389  0.00  0.00    +0.000 OA
ENDBRANCH  11  12
ENDBRANCH   8  11
ENDBRANCH   1   7
BRANCH   2  17
ATOM     17  O   UNL     1       3.260   1.717  18.470  0.00  0.00    +0.000 OA
ATOM     18  H   UNL     1       3.534   1.062  19.143  0.00  0.00    +0.000 HD
ENDBRANCH   2  17
BRANCH   5  19
ATOM     19  N   UNL     1       2.612   6.125  20.501  0.00  0.00    +0.000 N 
ATOM     20  H   UNL     1       3.359   6.290  21.174  0.00  0.00    +0.000 HD
BRANCH  19  21
ATOM     21  C   UNL     1       2.106   7.320  19.934  0.00  0.00    +0.000 A 
ATOM     22  C   UNL     1       1.359   8.198  20.729  0.00  0.00    +0.000 A 
ATOM     23  C   UNL     1       0.860   9.402  20.208  0.00  0.00    +0.000 A 
ATOM     24  C   UNL     1       1.104   9.742  18.879  0.00  0.00    +0.000 A 
ATOM     25  C   UNL     1       1.751   8.828  18.048  0.00  0.00    +0.000 A 
ATOM     26  C   UNL     1       2.268   7.642  18.579  0.00  0.00    +0.000 A 
BRANCH  24  27
ATOM     27  O   UNL     1       0.658  10.975  18.455  0.00  0.00    +0.000 OA
BRANCH  27  28
ATOM     28  C   UNL     1      -0.531  11.477  18.956  0.00  0.00    +0.000 A 
ATOM     29  C   UNL     1      -0.592  12.328  20.064  0.00  0.00    +0.000 A 
ATOM     30  C   UNL     1      -1.814  12.860  20.479  0.00  0.00    +0.000 A 
ATOM     31 CL   UNL     1      -1.855  13.983  21.781  0.00  0.00    +0.000 Cl
ATOM     32  C   UNL     1      -2.995  12.500  19.836  0.00  0.00    +0.000 A 
ATOM     33  C   UNL     1      -2.953  11.584  18.782  0.00  0.00    +0.000 A 
ATOM     34  C   UNL     1      -1.728  11.073  18.342  0.00  0.00    +0.000 A 
ATOM     35 CL   UNL     1      -1.740   9.926  17.053  0.00  0.00    +0.000 Cl
ENDBRANCH  27  28
ENDBRANCH  24  27
ENDBRANCH  19  21
ENDBRANCH   5  19
TORSDOF 8
ENDMDL
MODEL 6
REMARK VINA RESULT:      -8.6      2.457      4.493
REMARK  Name = 
REMARK  8 active torsions:
REMARK  status: ('A' for Active; 'I' for Inactive)
REMARK    1  A    between atoms: C_2  and  C_10
REMARK    2  A    between atoms: N_3  and  C_4
REMARK    3  A    between atoms: C_4  and  C_5
REMARK    4  A    between atoms: C_11  and  O_12
REMARK    5  A    between atoms: C_15  and  N_16
REMARK    6  A    between atoms: N_16  and  C_17
REMARK    7  A    between atoms: C_20  and  O_21
REMARK    8  A    between atoms: O_21  and  C_22
REMARK                            x       y       z     vdW  Elec       q    Type
REMARK                         _______ _______ _______ _____ _____    ______ ____
ROOT
ATOM      1  C   UNL     1       3.331   4.046  19.347  0.00  0.00    +0.000 A 
ATOM      2  C   UNL     1       2.667   2.799  19.109  0.00  0.00    +0.000 A 
ATOM      3  N   UNL     1       1.424   2.640  19.518  0.00  0.00    +0.000 NA
ATOM      4  S   UNL     1       0.983   4.016  20.300  0.00  0.00    +0.000 S 
ATOM      5  C   UNL     1       2.454   4.898  20.019  0.00  0.00    +0.000 A 
ENDROOT
BRANCH   1   7
ATOM      6  N   UNL     1       5.551   3.276  19.051  0.00  0.00    +0.000 N 
ATOM      7  C   UNL     1       4.695   4.325  18.902  0.00  0.00    +0.000 C 
ATOM      8  N   UNL     1       4.919   5.519  18.484  0.00  0.00    +0.000 NA
ATOM      9  H   UNL     1       6.534   3.485  18.933  0.00  0.00    +0.000 HD
ATOM     10  H   UNL     1       5.365   2.639  19.820  0.00  0.00    +0.000 HD
BRANCH   8  11
ATOM     11  C   UNL     1       6.271   5.933  18.082  0.00  0.00    +0.000 C 
BRANCH  11  12
ATOM     12  C   UNL     1       6.585   5.670  16.604  0.00  0.00    +0.000 C 
ATOM     13  C   UNL     1       5.419   5.878  15.646  0.00  0.00    +0.000 C 
ATOM     14  C   UNL     1       5.736   4.902  14.542  0.00  0.00    +0.000 C 
ATOM     15  C   UNL     1       6.350   3.752  15.309  0.00  0.00    +0.000 C 
ATOM     16  O   UNL     1       7.076   4.331  16.401  0.00  0.00    +0.000 OA
ENDBRANCH  11  12
ENDBRANCH   8  11
ENDBRANCH   1   7
BRANCH   2  17
ATOM     17  O   UNL     1       3.188   1.740  18.457  0.00  0.00    +0.000 OA
ATOM     18  H   UNL     1       3.231   0.995  19.090  0.00  0.00    +0.000 HD
ENDBRANCH   2  17
BRANCH   5  19
ATOM     19  N   UNL     1       2.668   6.161  20.499  0.00  0.00    +0.000 N 
ATOM     20  H   UNL     1       3.487   6.325  21.082  0.00  0.00    +0.000 HD
BRANCH  19  21
ATOM     21  C   UNL     1       2.080   7.357  20.021  0.00  0.00    +0.000 A 
ATOM     22  C   UNL     1       2.285   7.742  18.690  0.00  0.00    +0.000 A 
ATOM     23  C   UNL     1       1.702   8.909  18.175  0.00  0.00    +0.000 A 
ATOM     24  C   UNL     1       0.901   9.708  18.989  0.00  0.00    +0.000 A 
ATOM     25  C   UNL     1       0.779   9.397  20.343  0.00  0.00    +0.000 A 
ATOM     26  C   UNL     1       1.342   8.219  20.844  0.00  0.00    +0.000 A 
BRANCH  24  27
ATOM     27  O   UNL     1       0.292  10.794  18.399  0.00  0.00    +0.000 OA
BRANCH  27  28
ATOM     28  C   UNL     1       0.749  12.069  18.686  0.00  0.00    +0.000 A 
ATOM     29  C   UNL     1       2.059  12.486  18.428  0.00  0.00    +0.000 A 
ATOM     30  C   UNL     1       2.441  13.806  18.673  0.00  0.00    +0.000 A 
ATOM     31 CL   UNL     1       4.027  14.323  18.257  0.00  0.00    +0.000 Cl
ATOM     32  C   UNL     1       1.542  14.707  19.236  0.00  0.00    +0.000 A 
ATOM     33  C   UNL     1       0.257  14.278  19.575  0.00  0.00    +0.000 A 
ATOM     34  C   UNL     1      -0.140  12.965  19.303  0.00  0.00    +0.000 A 
ATOM     35 CL   UNL     1      -1.731  12.483  19.767  0.00  0.00    +0.000 Cl
ENDBRANCH  27  28
ENDBRANCH  24  27
ENDBRANCH  19  21
ENDBRANCH   5  19
TORSDOF 8
ENDMDL
MODEL 7
REMARK VINA RESULT:      -8.5      0.493      1.012
REMARK  Name = 
REMARK  8 active torsions:
REMARK  status: ('A' for Active; 'I' for Inactive)
REMARK    1  A    between atoms: C_2  and  C_10
REMARK    2  A    between atoms: N_3  and  C_4
REMARK    3  A    between atoms: C_4  and  C_5
REMARK    4  A    between atoms: C_11  and  O_12
REMARK    5  A    between atoms: C_15  and  N_16
REMARK    6  A    between atoms: N_16  and  C_17
REMARK    7  A    between atoms: C_20  and  O_21
REMARK    8  A    between atoms: O_21  and  C_22
REMARK                            x       y       z     vdW  Elec       q    Type
REMARK                         _______ _______ _______ _____ _____    ______ ____
ROOT
ATOM      1  C   UNL     1       5.480   4.917  17.890  0.00  0.00    +0.000 A 
ATOM      2  C   UNL     1       6.907   5.042  17.826  0.00  0.00    +0.000 A 
ATOM      3  N   UNL     1       7.438   6.174  17.411  0.00  0.00    +0.000 NA
ATOM      4  S   UNL     1       6.204   7.177  16.998  0.00  0.00    +0.000 S 
ATOM      5  C   UNL     1       4.908   6.116  17.463  0.00  0.00    +0.000 A 
ENDROOT
BRANCH   1   7
ATOM      6  N   UNL     1       5.342   3.185  19.500  0.00  0.00    +0.000 N 
ATOM      7  C   UNL     1       4.802   3.713  18.367  0.00  0.00    +0.000 C 
ATOM      8  N   UNL     1       3.833   3.286  17.638  0.00  0.00    +0.000 NA
ATOM      9  H   UNL     1       5.024   2.258  19.752  0.00  0.00    +0.000 HD
ATOM     10  H   UNL     1       6.339   3.320  19.638  0.00  0.00    +0.000 HD
BRANCH   8  11
ATOM     11  C   UNL     1       3.128   2.042  17.980  0.00  0.00    +0.000 C 
BRANCH  11  12
ATOM     12  C   UNL     1       1.994   2.234  18.994  0.00  0.00    +0.000 C 
ATOM     13  C   UNL     1       1.189   3.518  18.835  0.00  0.00    +0.000 C 
ATOM     14  C   UNL     1       0.749   3.795  20.249  0.00  0.00    +0.000 C 
ATOM     15  C   UNL     1       1.946   3.328  21.047  0.00  0.00    +0.000 C 
ATOM     16  O   UNL     1       2.487   2.199  20.348  0.00  0.00    +0.000 OA
ENDBRANCH  11  12
ENDBRANCH   8  11
ENDBRANCH   1   7
BRANCH   2  17
ATOM     17  O   UNL     1       7.797   4.097  18.189  0.00  0.00    +0.000 OA
ATOM     18  H   UNL     1       8.137   4.335  19.074  0.00  0.00    +0.000 HD
ENDBRANCH   2  17
BRANCH   5  19
ATOM     19  N   UNL     1       3.588   6.439  17.304  0.00  0.00    +0.000 N 
ATOM     20  H   UNL     1       3.001   5.820  16.746  0.00  0.00    +0.000 HD
BRANCH  19  21
ATOM     21  C   UNL     1       2.840   7.349  18.090  0.00  0.00    +0.000 A 
ATOM     22  C   UNL     1       2.493   7.002  19.403  0.00  0.00    +0.000 A 
ATOM     23  C   UNL     1       1.772   7.886  20.219  0.00  0.00    +0.000 A 
ATOM     24  C   UNL     1       1.389   9.134  19.730  0.00  0.00    +0.000 A 
ATOM     25  C   UNL     1       1.631   9.447  18.393  0.00  0.00    +0.000 A 
ATOM     26  C   UNL     1       2.372   8.573  17.592  0.00  0.00    +0.000 A 
BRANCH  24  27
ATOM     27  O   UNL     1       0.757   9.986  20.609  0.00  0.00    +0.000 OA
BRANCH  27  28
ATOM     28  C   UNL     1      -0.042  11.002  20.115  0.00  0.00    +0.000 A 
ATOM     29  C   UNL     1      -1.296  10.776  19.537  0.00  0.00    +0.000 A 
ATOM     30  C   UNL     1      -2.087  11.848  19.122  0.00  0.00    +0.000 A 
ATOM     31 CL   UNL     1      -3.666  11.552  18.506  0.00  0.00    +0.000 Cl
ATOM     32  C   UNL     1      -1.612  13.153  19.218  0.00  0.00    +0.000 A 
ATOM     33  C   UNL     1      -0.328  13.383  19.715  0.00  0.00    +0.000 A 
ATOM     34  C   UNL     1       0.456  12.315  20.162  0.00  0.00    +0.000 A 
ATOM     35 CL   UNL     1       2.045  12.657  20.743  0.00  0.00    +0.000 Cl
ENDBRANCH  27  28
ENDBRANCH  24  27
ENDBRANCH  19  21
ENDBRANCH   5  19
TORSDOF 8
ENDMDL
MODEL 8
REMARK VINA RESULT:      -8.5      2.519      4.364
REMARK  Name = 
REMARK  8 active torsions:
REMARK  status: ('A' for Active; 'I' for Inactive)
REMARK    1  A    between atoms: C_2  and  C_10
REMARK    2  A    between atoms: N_3  and  C_4
REMARK    3  A    between atoms: C_4  and  C_5
REMARK    4  A    between atoms: C_11  and  O_12
REMARK    5  A    between atoms: C_15  and  N_16
REMARK    6  A    between atoms: N_16  and  C_17
REMARK    7  A    between atoms: C_20  and  O_21
REMARK    8  A    between atoms: O_21  and  C_22
REMARK                            x       y       z     vdW  Elec       q    Type
REMARK                         _______ _______ _______ _____ _____    ______ ____
ROOT
ATOM      1  C   UNL     1       3.319   3.711  18.930  0.00  0.00    +0.000 A 
ATOM      2  C   UNL     1       2.531   2.525  18.766  0.00  0.00    +0.000 A 
ATOM      3  N   UNL     1       1.317   2.480  19.277  0.00  0.00    +0.000 NA
ATOM      4  S   UNL     1       1.064   3.896  20.071  0.00  0.00    +0.000 S 
ATOM      5  C   UNL     1       2.578   4.642  19.657  0.00  0.00    +0.000 A 
ENDROOT
BRANCH   1   7
ATOM      6  N   UNL     1       5.660   3.749  19.291  0.00  0.00    +0.000 N 
ATOM      7  C   UNL     1       4.662   3.864  18.372  0.00  0.00    +0.000 C 
ATOM      8  N   UNL     1       4.723   4.134  17.116  0.00  0.00    +0.000 NA
ATOM      9  H   UNL     1       6.581   4.032  18.982  0.00  0.00    +0.000 HD
ATOM     10  H   UNL     1       5.445   4.042  20.239  0.00  0.00    +0.000 HD
BRANCH   8  11
ATOM     11  C   UNL     1       6.016   4.383  16.464  0.00  0.00    +0.000 C 
BRANCH  11  12
ATOM     12  C   UNL     1       5.901   4.716  14.971  0.00  0.00    +0.000 C 
ATOM     13  C   UNL     1       5.858   3.512  14.038  0.00  0.00    +0.000 C 
ATOM     14  C   UNL     1       6.481   4.062  12.781  0.00  0.00    +0.000 C 
ATOM     15  C   UNL     1       7.531   4.999  13.335  0.00  0.00    +0.000 C 
ATOM     16  O   UNL     1       6.983   5.562  14.535  0.00  0.00    +0.000 OA
ENDBRANCH  11  12
ENDBRANCH   8  11
ENDBRANCH   1   7
BRANCH   2  17
ATOM     17  O   UNL     1       2.903   1.419  18.091  0.00  0.00    +0.000 OA
ATOM     18  H   UNL     1       3.472   1.703  17.347  0.00  0.00    +0.000 HD
ENDBRANCH   2  17
BRANCH   5  19
ATOM     19  N   UNL     1       2.940   5.886  20.098  0.00  0.00    +0.000 N 
ATOM     20  H   UNL     1       3.867   6.005  20.505  0.00  0.00    +0.000 HD
BRANCH  19  21
ATOM     21  C   UNL     1       2.322   7.115  19.763  0.00  0.00    +0.000 A 
ATOM     22  C   UNL     1       1.508   7.756  20.706  0.00  0.00    +0.000 A 
ATOM     23  C   UNL     1       0.896   8.985  20.418  0.00  0.00    +0.000 A 
ATOM     24  C   UNL     1       1.094   9.592  19.179  0.00  0.00    +0.000 A 
ATOM     25  C   UNL     1       1.812   8.913  18.194  0.00  0.00    +0.000 A 
ATOM     26  C   UNL     1       2.440   7.700  18.495  0.00  0.00    +0.000 A 
BRANCH  24  27
ATOM     27  O   UNL     1       0.534  10.836  18.992  0.00  0.00    +0.000 OA
BRANCH  27  28
ATOM     28  C   UNL     1      -0.777  10.933  18.558  0.00  0.00    +0.000 A 
ATOM     29  C   UNL     1      -1.235  10.342  17.375  0.00  0.00    +0.000 A 
ATOM     30  C   UNL     1      -2.584  10.414  17.026  0.00  0.00    +0.000 A 
ATOM     31 CL   UNL     1      -3.143   9.597  15.620  0.00  0.00    +0.000 Cl
ATOM     32  C   UNL     1      -3.480  11.128  17.817  0.00  0.00    +0.000 A 
ATOM     33  C   UNL     1      -3.016  11.792  18.954  0.00  0.00    +0.000 A 
ATOM     34  C   UNL     1      -1.671  11.698  19.325  0.00  0.00    +0.000 A 
ATOM     35 CL   UNL     1      -1.150  12.559  20.727  0.00  0.00    +0.000 Cl
ENDBRANCH  27  28
ENDBRANCH  24  27
ENDBRANCH  19  21
ENDBRANCH   5  19
TORSDOF 8
ENDMDL
MODEL 9
REMARK VINA RESULT:      -8.5      2.661      4.771
REMARK  Name = 
REMARK  8 active torsions:
REMARK  status: ('A' for Active; 'I' for Inactive)
REMARK    1  A    between atoms: C_2  and  C_10
REMARK    2  A    between atoms: N_3  and  C_4
REMARK    3  A    between atoms: C_4  and  C_5
REMARK    4  A    between atoms: C_11  and  O_12
REMARK    5  A    between atoms: C_15  and  N_16
REMARK    6  A    between atoms: N_16  and  C_17
REMARK    7  A    between atoms: C_20  and  O_21
REMARK    8  A    between atoms: O_21  and  C_22
REMARK                            x       y       z     vdW  Elec       q    Type
REMARK                         _______ _______ _______ _____ _____    ______ ____
ROOT
ATOM      1  C   UNL     1       3.277   3.962  19.248  0.00  0.00    +0.000 A 
ATOM      2  C   UNL     1       2.560   2.722  19.192  0.00  0.00    +0.000 A 
ATOM      3  N   UNL     1       1.373   2.636  19.757  0.00  0.00    +0.000 NA
ATOM      4  S   UNL     1       1.062   4.083  20.473  0.00  0.00    +0.000 S 
ATOM      5  C   UNL     1       2.508   4.891  19.948  0.00  0.00    +0.000 A 
ENDROOT
BRANCH   1   7
ATOM      6  N   UNL     1       5.528   3.262  19.018  0.00  0.00    +0.000 N 
ATOM      7  C   UNL     1       4.584   4.161  18.623  0.00  0.00    +0.000 C 
ATOM      8  N   UNL     1       4.685   5.171  17.835  0.00  0.00    +0.000 NA
ATOM      9  H   UNL     1       6.482   3.478  18.756  0.00  0.00    +0.000 HD
ATOM     10  H   UNL     1       5.443   2.894  19.960  0.00  0.00    +0.000 HD
BRANCH   8  11
ATOM     11  C   UNL     1       5.971   5.511  17.210  0.00  0.00    +0.000 C 
BRANCH  11  12
ATOM     12  C   UNL     1       5.936   5.494  15.677  0.00  0.00    +0.000 C 
ATOM     13  C   UNL     1       5.359   4.228  15.054  0.00  0.00    +0.000 C 
ATOM     14  C   UNL     1       6.096   4.155  13.742  0.00  0.00    +0.000 C 
ATOM     15  C   UNL     1       7.463   4.681  14.120  0.00  0.00    +0.000 C 
ATOM     16  O   UNL     1       7.250   5.689  15.118  0.00  0.00    +0.000 OA
ENDBRANCH  11  12
ENDBRANCH   8  11
ENDBRANCH   1   7
BRANCH   2  17
ATOM     17  O   UNL     1       2.974   1.600  18.571  0.00  0.00    +0.000 OA
ATOM     18  H   UNL     1       3.109   1.817  17.626  0.00  0.00    +0.000 HD
ENDBRANCH   2  17
BRANCH   5  19
ATOM     19  N   UNL     1       2.808   6.180  20.296  0.00  0.00    +0.000 N 
ATOM     20  H   UNL     1       3.689   6.361  20.773  0.00  0.00    +0.000 HD
BRANCH  19  21
ATOM     21  C   UNL     1       2.206   7.355  19.785  0.00  0.00    +0.000 A 
ATOM     22  C   UNL     1       1.426   8.155  20.631  0.00  0.00    +0.000 A 
ATOM     23  C   UNL     1       0.831   9.338  20.166  0.00  0.00    +0.000 A 
ATOM     24  C   UNL     1       1.012   9.738  18.844  0.00  0.00    +0.000 A 
ATOM     25  C   UNL     1       1.693   8.897  17.963  0.00  0.00    +0.000 A 
ATOM     26  C   UNL     1       2.305   7.733  18.438  0.00  0.00    +0.000 A 
BRANCH  24  27
ATOM     27  O   UNL     1       0.472  10.950  18.475  0.00  0.00    +0.000 OA
BRANCH  27  28
ATOM     28  C   UNL     1       1.095  12.121  18.872  0.00  0.00    +0.000 A 
ATOM     29  C   UNL     1       2.340  12.527  18.381  0.00  0.00    +0.000 A 
ATOM     30  C   UNL     1       2.884  13.754  18.765  0.00  0.00    +0.000 A 
ATOM     31 CL   UNL     1       4.369  14.279  18.074  0.00  0.00    +0.000 Cl
ATOM     32  C   UNL     1       2.226  14.559  19.690  0.00  0.00    +0.000 A 
ATOM     33  C   UNL     1       1.023  14.123  20.249  0.00  0.00    +0.000 A 
ATOM     34  C   UNL     1       0.458  12.909  19.845  0.00  0.00    +0.000 A 
ATOM     35 CL   UNL     1      -1.016  12.409  20.589  0.00  0.00    +0.000 Cl
ENDBRANCH  27  28
ENDBRANCH  24  27
ENDBRANCH  19  21
ENDBRANCH   5  19
TORSDOF 8
ENDMDL
