MODEL 1
REMARK VINA RESULT:      -7.8      0.000      0.000
REMARK  Name = 
REMARK  3 active torsions:
REMARK  status: ('A' for Active; 'I' for Inactive)
REMARK    1  A    between atoms: C_2  and  C_3
REMARK    2  A    between atoms: N_7  and  C_8
REMARK    3  A    between atoms: C_8  and  C_9
REMARK                            x       y       z     vdW  Elec       q    Type
REMARK                         _______ _______ _______ _____ _____    ______ ____
ROOT
ATOM      1  C   UNL     1       4.461   3.801  17.600  0.00  0.00    +0.000 C 
ATOM      2  C   UNL     1       5.960   4.072  17.346  0.00  0.00    +0.000 C 
ATOM      3  C   UNL     1       6.397   5.364  18.047  0.00  0.00    +0.000 C 
ATOM      4  C   UNL     1       5.505   6.550  17.675  0.00  0.00    +0.000 C 
ATOM      5  N   UNL     1       4.072   6.258  17.782  0.00  0.00    +0.000 NA
ATOM      6  C   UNL     1       3.700   5.030  17.075  0.00  0.00    +0.000 C 
ENDROOT
BRANCH   1   8
ATOM      7  O   UNL     1       5.208   2.956  19.733  0.00  0.00    +0.000 OA
ATOM      8  C   UNL     1       4.261   3.418  19.083  0.00  0.00    +0.000 C 
ATOM      9  N   UNL     1       3.024   3.480  19.680  0.00  0.00    +0.000 N 
ATOM     10  C   UNL     1       2.889   3.171  21.093  0.00  0.00    +0.000 C 
ATOM     11  C   UNL     1       1.458   2.694  21.234  0.00  0.00    +0.000 C 
ATOM     12  C   UNL     1       0.708   3.522  20.200  0.00  0.00    +0.000 C 
ATOM     13  C   UNL     1       1.733   3.803  19.102  0.00  0.00    +0.000 C 
ENDBRANCH   1   8
BRANCH   5  14
ATOM     14  C   UNL     1       3.212   7.408  17.450  0.00  0.00    +0.000 C 
BRANCH  14  15
ATOM     15  C   UNL     1       2.364   7.978  18.574  0.00  0.00    +0.000 A 
ATOM     16  C   UNL     1       2.220   7.292  19.801  0.00  0.00    +0.000 A 
ATOM     17  C   UNL     1       1.401   7.795  20.818  0.00  0.00    +0.000 A 
ATOM     18  C   UNL     1       0.739   8.983  20.582  0.00  0.00    +0.000 A 
ATOM     19  C   UNL     1       0.882   9.668  19.401  0.00  0.00    +0.000 A 
ATOM     20  C   UNL     1       1.689   9.201  18.387  0.00  0.00    +0.000 A 
ATOM     21  O   UNL     1       0.144  10.810  19.367  0.00  0.00    +0.000 OA
ATOM     22  C   UNL     1      -0.497  10.756  20.656  0.00  0.00    +0.000 C 
ATOM     23  O   UNL     1      -0.110   9.608  21.443  0.00  0.00    +0.000 OA
ENDBRANCH  14  15
ENDBRANCH   5  14
TORSDOF 3
ENDMDL
MODEL 2
REMARK VINA RESULT:      -7.6      0.735      1.462
REMARK  Name = 
REMARK  3 active torsions:
REMARK  status: ('A' for Active; 'I' for Inactive)
REMARK    1  A    between atoms: C_2  and  C_3
REMARK    2  A    between atoms: N_7  and  C_8
REMARK    3  A    between atoms: C_8  and  C_9
REMARK                            x       y       z     vdW  Elec       q    Type
REMARK                         _______ _______ _______ _____ _____    ______ ____
ROOT
ATOM      1  C   UNL     1       4.787   3.884  17.648  0.00  0.00    +0.000 C 
ATOM      2  C   UNL     1       6.298   4.201  17.584  0.00  0.00    +0.000 C 
ATOM      3  C   UNL     1       6.591   5.548  18.254  0.00  0.00    +0.000 C 
ATOM      4  C   UNL     1       5.722   6.673  17.689  0.00  0.00    +0.000 C 
ATOM      5  N   UNL     1       4.298   6.329  17.618  0.00  0.00    +0.000 NA
ATOM      6  C   UNL     1       4.067   5.048  16.946  0.00  0.00    +0.000 C 
ENDROOT
BRANCH   1   8
ATOM      7  O   UNL     1       5.259   3.201  19.913  0.00  0.00    +0.000 OA
ATOM      8  C   UNL     1       4.396   3.581  19.111  0.00  0.00    +0.000 C 
ATOM      9  N   UNL     1       3.086   3.622  19.527  0.00  0.00    +0.000 N 
ATOM     10  C   UNL     1       2.766   3.392  20.925  0.00  0.00    +0.000 C 
ATOM     11  C   UNL     1       1.348   2.861  20.899  0.00  0.00    +0.000 C 
ATOM     12  C   UNL     1       0.720   3.591  19.721  0.00  0.00    +0.000 C 
ATOM     13  C   UNL     1       1.878   3.852  18.758  0.00  0.00    +0.000 C 
ENDBRANCH   1   8
BRANCH   5  14
ATOM     14  C   UNL     1       3.456   7.422  17.099  0.00  0.00    +0.000 C 
BRANCH  14  15
ATOM     15  C   UNL     1       2.543   8.118  18.094  0.00  0.00    +0.000 A 
ATOM     16  C   UNL     1       1.948   9.364  17.793  0.00  0.00    +0.000 A 
ATOM     17  C   UNL     1       1.145  10.026  18.728  0.00  0.00    +0.000 A 
ATOM     18  C   UNL     1       0.953   9.422  19.954  0.00  0.00    +0.000 A 
ATOM     19  C   UNL     1       1.512   8.204  20.254  0.00  0.00    +0.000 A 
ATOM     20  C   UNL     1       2.299   7.526  19.349  0.00  0.00    +0.000 A 
ATOM     21  O   UNL     1       1.206   7.785  21.511  0.00  0.00    +0.000 OA
ATOM     22  C   UNL     1       0.405   8.890  21.977  0.00  0.00    +0.000 C 
ATOM     23  O   UNL     1       0.224   9.925  20.987  0.00  0.00    +0.000 OA
ENDBRANCH  14  15
ENDBRANCH   5  14
TORSDOF 3
ENDMDL
MODEL 3
REMARK VINA RESULT:      -7.5      1.531      4.010
REMARK  Name = 
REMARK  3 active torsions:
REMARK  status: ('A' for Active; 'I' for Inactive)
REMARK    1  A    between atoms: C_2  and  C_3
REMARK    2  A    between atoms: N_7  and  C_8
REMARK    3  A    between atoms: C_8  and  C_9
REMARK                            x       y       z     vdW  Elec       q    Type
REMARK                         _______ _______ _______ _____ _____    ______ ____
ROOT
ATOM      1  C   UNL     1       3.741   2.996  18.991  0.00  0.00    +0.000 C 
ATOM      2  C   UNL     1       2.566   1.994  19.042  0.00  0.00    +0.000 C 
ATOM      3  C   UNL     1       1.235   2.717  18.803  0.00  0.00    +0.000 C 
ATOM      4  C   UNL     1       1.048   3.905  19.750  0.00  0.00    +0.000 C 
ATOM      5  N   UNL     1       2.216   4.790  19.811  0.00  0.00    +0.000 NA
ATOM      6  C   UNL     1       3.458   4.056  20.068  0.00  0.00    +0.000 C 
ENDROOT
BRANCH   1   8
ATOM      7  O   UNL     1       3.049   3.250  16.693  0.00  0.00    +0.000 OA
ATOM      8  C   UNL     1       3.924   3.486  17.537  0.00  0.00    +0.000 C 
ATOM      9  N   UNL     1       5.087   4.091  17.125  0.00  0.00    +0.000 N 
ATOM     10  C   UNL     1       5.197   4.593  15.766  0.00  0.00    +0.000 C 
ATOM     11  C   UNL     1       6.682   4.552  15.473  0.00  0.00    +0.000 C 
ATOM     12  C   UNL     1       7.315   4.853  16.824  0.00  0.00    +0.000 C 
ATOM     13  C   UNL     1       6.322   4.315  17.853  0.00  0.00    +0.000 C 
ENDBRANCH   1   8
BRANCH   5  14
ATOM     14  C   UNL     1       2.026   5.950  20.702  0.00  0.00    +0.000 C 
BRANCH  14  15
ATOM     15  C   UNL     1       1.797   7.296  20.037  0.00  0.00    +0.000 A 
ATOM     16  C   UNL     1       2.242   7.546  18.719  0.00  0.00    +0.000 A 
ATOM     17  C   UNL     1       2.072   8.801  18.125  0.00  0.00    +0.000 A 
ATOM     18  C   UNL     1       1.454   9.786  18.868  0.00  0.00    +0.000 A 
ATOM     19  C   UNL     1       1.003   9.553  20.144  0.00  0.00    +0.000 A 
ATOM     20  C   UNL     1       1.148   8.324  20.750  0.00  0.00    +0.000 A 
ATOM     21  O   UNL     1       0.429  10.651  20.704  0.00  0.00    +0.000 OA
ATOM     22  C   UNL     1       0.589  11.612  19.641  0.00  0.00    +0.000 C 
ATOM     23  O   UNL     1       1.223  11.065  18.463  0.00  0.00    +0.000 OA
ENDBRANCH  14  15
ENDBRANCH   5  14
TORSDOF 3
ENDMDL
MODEL 4
REMARK VINA RESULT:      -7.5      2.671      5.489
REMARK  Name = 
REMARK  3 active torsions:
REMARK  status: ('A' for Active; 'I' for Inactive)
REMARK    1  A    between atoms: C_2  and  C_3
REMARK    2  A    between atoms: N_7  and  C_8
REMARK    3  A    between atoms: C_8  and  C_9
REMARK                            x       y       z     vdW  Elec       q    Type
REMARK                         _______ _______ _______ _____ _____    ______ ____
ROOT
ATOM      1  C   UNL     1       1.384   3.465  18.262  0.00  0.00    +0.000 C 
ATOM      2  C   UNL     1       1.493   1.993  18.718  0.00  0.00    +0.000 C 
ATOM      3  C   UNL     1       2.894   1.706  19.271  0.00  0.00    +0.000 C 
ATOM      4  C   UNL     1       3.994   2.108  18.286  0.00  0.00    +0.000 C 
ATOM      5  N   UNL     1       3.823   3.459  17.742  0.00  0.00    +0.000 NA
ATOM      6  C   UNL     1       2.478   3.675  17.202  0.00  0.00    +0.000 C 
ENDROOT
BRANCH   1   8
ATOM      7  O   UNL     1       0.926   3.984  20.574  0.00  0.00    +0.000 OA
ATOM      8  C   UNL     1       1.409   4.382  19.506  0.00  0.00    +0.000 C 
ATOM      9  N   UNL     1       1.862   5.677  19.432  0.00  0.00    +0.000 N 
ATOM     10  C   UNL     1       1.928   6.488  20.636  0.00  0.00    +0.000 C 
ATOM     11  C   UNL     1       1.803   7.911  20.134  0.00  0.00    +0.000 C 
ATOM     12  C   UNL     1       2.502   7.869  18.783  0.00  0.00    +0.000 C 
ATOM     13  C   UNL     1       2.300   6.441  18.278  0.00  0.00    +0.000 C 
ENDBRANCH   1   8
BRANCH   5  14
ATOM     14  C   UNL     1       4.897   3.857  16.814  0.00  0.00    +0.000 C 
BRANCH  14  15
ATOM     15  C   UNL     1       5.924   4.847  17.337  0.00  0.00    +0.000 A 
ATOM     16  C   UNL     1       6.815   4.495  18.377  0.00  0.00    +0.000 A 
ATOM     17  C   UNL     1       7.729   5.422  18.889  0.00  0.00    +0.000 A 
ATOM     18  C   UNL     1       7.732   6.691  18.345  0.00  0.00    +0.000 A 
ATOM     19  C   UNL     1       6.884   7.041  17.324  0.00  0.00    +0.000 A 
ATOM     20  C   UNL     1       5.981   6.145  16.794  0.00  0.00    +0.000 A 
ATOM     21  O   UNL     1       7.042   8.334  16.934  0.00  0.00    +0.000 OA
ATOM     22  C   UNL     1       8.076   8.766  17.841  0.00  0.00    +0.000 C 
ATOM     23  O   UNL     1       8.533   7.722  18.729  0.00  0.00    +0.000 OA
ENDBRANCH  14  15
ENDBRANCH   5  14
TORSDOF 3
ENDMDL
MODEL 5
REMARK VINA RESULT:      -7.4      1.638      4.101
REMARK  Name = 
REMARK  3 active torsions:
REMARK  status: ('A' for Active; 'I' for Inactive)
REMARK    1  A    between atoms: C_2  and  C_3
REMARK    2  A    between atoms: N_7  and  C_8
REMARK    3  A    between atoms: C_8  and  C_9
REMARK                            x       y       z     vdW  Elec       q    Type
REMARK                         _______ _______ _______ _____ _____    ______ ____
ROOT
ATOM      1  C   UNL     1       3.912   2.849  18.880  0.00  0.00    +0.000 C 
ATOM      2  C   UNL     1       2.833   1.755  18.716  0.00  0.00    +0.000 C 
ATOM      3  C   UNL     1       1.451   2.391  18.522  0.00  0.00    +0.000 C 
ATOM      4  C   UNL     1       1.119   3.394  19.629  0.00  0.00    +0.000 C 
ATOM      5  N   UNL     1       2.197   4.355  19.886  0.00  0.00    +0.000 NA
ATOM      6  C   UNL     1       3.490   3.698  20.091  0.00  0.00    +0.000 C 
ENDROOT
BRANCH   1   8
ATOM      7  O   UNL     1       3.310   3.370  16.602  0.00  0.00    +0.000 OA
ATOM      8  C   UNL     1       4.103   3.575  17.530  0.00  0.00    +0.000 C 
ATOM      9  N   UNL     1       5.199   4.371  17.294  0.00  0.00    +0.000 N 
ATOM     10  C   UNL     1       5.312   5.087  16.034  0.00  0.00    +0.000 C 
ATOM     11  C   UNL     1       6.803   5.269  15.843  0.00  0.00    +0.000 C 
ATOM     12  C   UNL     1       7.323   5.431  17.264  0.00  0.00    +0.000 C 
ATOM     13  C   UNL     1       6.356   4.626  18.131  0.00  0.00    +0.000 C 
ENDBRANCH   1   8
BRANCH   5  14
ATOM     14  C   UNL     1       1.867   5.339  20.933  0.00  0.00    +0.000 C 
BRANCH  14  15
ATOM     15  C   UNL     1       1.689   6.781  20.489  0.00  0.00    +0.000 A 
ATOM     16  C   UNL     1       0.992   7.712  21.292  0.00  0.00    +0.000 A 
ATOM     17  C   UNL     1       0.788   9.027  20.861  0.00  0.00    +0.000 A 
ATOM     18  C   UNL     1       1.292   9.385  19.627  0.00  0.00    +0.000 A 
ATOM     19  C   UNL     1       1.985   8.495  18.844  0.00  0.00    +0.000 A 
ATOM     20  C   UNL     1       2.209   7.197  19.248  0.00  0.00    +0.000 A 
ATOM     21  O   UNL     1       2.392   9.042  17.668  0.00  0.00    +0.000 OA
ATOM     22  C   UNL     1       1.858  10.376  17.789  0.00  0.00    +0.000 C 
ATOM     23  O   UNL     1       1.173  10.607  19.040  0.00  0.00    +0.000 OA
ENDBRANCH  14  15
ENDBRANCH   5  14
TORSDOF 3
ENDMDL
MODEL 6
REMARK VINA RESULT:      -7.3      2.663      5.661
REMARK  Name = 
REMARK  3 active torsions:
REMARK  status: ('A' for Active; 'I' for Inactive)
REMARK    1  A    between atoms: C_2  and  C_3
REMARK    2  A    between atoms: N_7  and  C_8
REMARK    3  A    between atoms: C_8  and  C_9
REMARK                            x       y       z     vdW  Elec       q    Type
REMARK                         _______ _______ _______ _____ _____    ______ ____
ROOT
ATOM      1  C   UNL     1       1.221   3.503  18.268  0.00  0.00    +0.000 C 
ATOM      2  C   UNL     1       1.033   2.049  18.756  0.00  0.00    +0.000 C 
ATOM      3  C   UNL     1       2.313   1.539  19.427  0.00  0.00    +0.000 C 
ATOM      4  C   UNL     1       3.541   1.712  18.531  0.00  0.00    +0.000 C 
ATOM      5  N   UNL     1       3.654   3.055  17.953  0.00  0.00    +0.000 NA
ATOM      6  C   UNL     1       2.416   3.486  17.300  0.00  0.00    +0.000 C 
ENDROOT
BRANCH   1   8
ATOM      7  O   UNL     1       0.840   4.076  20.581  0.00  0.00    +0.000 OA
ATOM      8  C   UNL     1       1.309   4.439  19.494  0.00  0.00    +0.000 C 
ATOM      9  N   UNL     1       1.805   5.716  19.387  0.00  0.00    +0.000 N 
ATOM     10  C   UNL     1       1.929   6.544  20.574  0.00  0.00    +0.000 C 
ATOM     11  C   UNL     1       1.841   7.962  20.051  0.00  0.00    +0.000 C 
ATOM     12  C   UNL     1       2.505   7.873  18.684  0.00  0.00    +0.000 C 
ATOM     13  C   UNL     1       2.241   6.444  18.210  0.00  0.00    +0.000 C 
ENDBRANCH   1   8
BRANCH   5  14
ATOM     14  C   UNL     1       4.852   3.231  17.111  0.00  0.00    +0.000 C 
BRANCH  14  15
ATOM     15  C   UNL     1       5.506   4.602  17.126  0.00  0.00    +0.000 A 
ATOM     16  C   UNL     1       5.167   5.584  16.167  0.00  0.00    +0.000 A 
ATOM     17  C   UNL     1       5.804   6.830  16.153  0.00  0.00    +0.000 A 
ATOM     18  C   UNL     1       6.773   7.068  17.107  0.00  0.00    +0.000 A 
ATOM     19  C   UNL     1       7.101   6.129  18.055  0.00  0.00    +0.000 A 
ATOM     20  C   UNL     1       6.483   4.898  18.097  0.00  0.00    +0.000 A 
ATOM     21  O   UNL     1       8.078   6.557  18.896  0.00  0.00    +0.000 OA
ATOM     22  C   UNL     1       8.345   7.868  18.359  0.00  0.00    +0.000 C 
ATOM     23  O   UNL     1       7.506   8.207  17.233  0.00  0.00    +0.000 OA
ENDBRANCH  14  15
ENDBRANCH   5  14
TORSDOF 3
ENDMDL
MODEL 7
REMARK VINA RESULT:      -7.2      1.417      3.916
REMARK  Name = 
REMARK  3 active torsions:
REMARK  status: ('A' for Active; 'I' for Inactive)
REMARK    1  A    between atoms: C_2  and  C_3
REMARK    2  A    between atoms: N_7  and  C_8
REMARK    3  A    between atoms: C_8  and  C_9
REMARK                            x       y       z     vdW  Elec       q    Type
REMARK                         _______ _______ _______ _____ _____    ______ ____
ROOT
ATOM      1  C   UNL     1       4.313   3.223  18.631  0.00  0.00    +0.000 C 
ATOM      2  C   UNL     1       3.204   2.279  18.112  0.00  0.00    +0.000 C 
ATOM      3  C   UNL     1       1.956   3.081  17.727  0.00  0.00    +0.000 C 
ATOM      4  C   UNL     1       1.483   3.990  18.863  0.00  0.00    +0.000 C 
ATOM      5  N   UNL     1       2.559   4.793  19.453  0.00  0.00    +0.000 NA
ATOM      6  C   UNL     1       3.717   3.979  19.830  0.00  0.00    +0.000 C 
ENDROOT
BRANCH   1   8
ATOM      7  O   UNL     1       4.516   3.786  16.293  0.00  0.00    +0.000 OA
ATOM      8  C   UNL     1       4.851   4.064  17.452  0.00  0.00    +0.000 C 
ATOM      9  N   UNL     1       5.781   5.058  17.645  0.00  0.00    +0.000 N 
ATOM     10  C   UNL     1       6.215   5.868  16.521  0.00  0.00    +0.000 C 
ATOM     11  C   UNL     1       7.605   6.328  16.908  0.00  0.00    +0.000 C 
ATOM     12  C   UNL     1       7.516   6.481  18.420  0.00  0.00    +0.000 C 
ATOM     13  C   UNL     1       6.470   5.457  18.858  0.00  0.00    +0.000 C 
ENDBRANCH   1   8
BRANCH   5  14
ATOM     14  C   UNL     1       2.098   5.689  20.529  0.00  0.00    +0.000 C 
BRANCH  14  15
ATOM     15  C   UNL     1       1.756   7.116  20.135  0.00  0.00    +0.000 A 
ATOM     16  C   UNL     1       2.069   7.614  18.850  0.00  0.00    +0.000 A 
ATOM     17  C   UNL     1       1.795   8.942  18.504  0.00  0.00    +0.000 A 
ATOM     18  C   UNL     1       1.209   9.748  19.459  0.00  0.00    +0.000 A 
ATOM     19  C   UNL     1       0.886   9.273  20.706  0.00  0.00    +0.000 A 
ATOM     20  C   UNL     1       1.135   7.967  21.070  0.00  0.00    +0.000 A 
ATOM     21  O   UNL     1       0.323  10.224  21.497  0.00  0.00    +0.000 OA
ATOM     22  C   UNL     1       0.346  11.362  20.612  0.00  0.00    +0.000 C 
ATOM     23  O   UNL     1       0.891  11.063  19.308  0.00  0.00    +0.000 OA
ENDBRANCH  14  15
ENDBRANCH   5  14
TORSDOF 3
ENDMDL
MODEL 8
REMARK VINA RESULT:      -6.8      1.884      4.115
REMARK  Name = 
REMARK  3 active torsions:
REMARK  status: ('A' for Active; 'I' for Inactive)
REMARK    1  A    between atoms: C_2  and  C_3
REMARK    2  A    between atoms: N_7  and  C_8
REMARK    3  A    between atoms: C_8  and  C_9
REMARK                            x       y       z     vdW  Elec       q    Type
REMARK                         _______ _______ _______ _____ _____    ______ ____
ROOT
ATOM      1  C   UNL     1       4.384   4.423  18.577  0.00  0.00    +0.000 C 
ATOM      2  C   UNL     1       3.476   3.248  18.149  0.00  0.00    +0.000 C 
ATOM      3  C   UNL     1       2.048   3.741  17.888  0.00  0.00    +0.000 C 
ATOM      4  C   UNL     1       1.486   4.527  19.074  0.00  0.00    +0.000 C 
ATOM      5  N   UNL     1       2.400   5.558  19.576  0.00  0.00    +0.000 NA
ATOM      6  C   UNL     1       3.742   5.033  19.835  0.00  0.00    +0.000 C 
ENDROOT
BRANCH   1   8
ATOM      7  O   UNL     1       4.076   6.474  17.344  0.00  0.00    +0.000 OA
ATOM      8  C   UNL     1       4.606   5.356  17.366  0.00  0.00    +0.000 C 
ATOM      9  N   UNL     1       5.296   4.935  16.254  0.00  0.00    +0.000 N 
ATOM     10  C   UNL     1       5.538   5.861  15.162  0.00  0.00    +0.000 C 
ATOM     11  C   UNL     1       5.677   4.972  13.944  0.00  0.00    +0.000 C 
ATOM     12  C   UNL     1       6.330   3.715  14.500  0.00  0.00    +0.000 C 
ATOM     13  C   UNL     1       5.850   3.629  15.948  0.00  0.00    +0.000 C 
ENDBRANCH   1   8
BRANCH   5  14
ATOM     14  C   UNL     1       1.847   6.335  20.700  0.00  0.00    +0.000 C 
BRANCH  14  15
ATOM     15  C   UNL     1       1.482   7.783  20.422  0.00  0.00    +0.000 A 
ATOM     16  C   UNL     1       1.615   8.334  19.127  0.00  0.00    +0.000 A 
ATOM     17  C   UNL     1       1.323   9.680  18.881  0.00  0.00    +0.000 A 
ATOM     18  C   UNL     1       0.899  10.451  19.945  0.00  0.00    +0.000 A 
ATOM     19  C   UNL     1       0.749   9.924  21.204  0.00  0.00    +0.000 A 
ATOM     20  C   UNL     1       1.020   8.600  21.472  0.00  0.00    +0.000 A 
ATOM     21  O   UNL     1       0.326  10.847  22.108  0.00  0.00    +0.000 OA
ATOM     22  C   UNL     1       0.245  12.023  21.278  0.00  0.00    +0.000 C 
ATOM     23  O   UNL     1       0.590  11.775  19.898  0.00  0.00    +0.000 OA
ENDBRANCH  14  15
ENDBRANCH   5  14
TORSDOF 3
ENDMDL
MODEL 9
REMARK VINA RESULT:      -6.7      1.873      4.083
REMARK  Name = 
REMARK  3 active torsions:
REMARK  status: ('A' for Active; 'I' for Inactive)
REMARK    1  A    between atoms: C_2  and  C_3
REMARK    2  A    between atoms: N_7  and  C_8
REMARK    3  A    between atoms: C_8  and  C_9
REMARK                            x       y       z     vdW  Elec       q    Type
REMARK                         _______ _______ _______ _____ _____    ______ ____
ROOT
ATOM      1  C   UNL     1       4.246   4.160  18.542  0.00  0.00    +0.000 C 
ATOM      2  C   UNL     1       3.325   3.026  18.039  0.00  0.00    +0.000 C 
ATOM      3  C   UNL     1       1.898   3.547  17.830  0.00  0.00    +0.000 C 
ATOM      4  C   UNL     1       1.354   4.248  19.077  0.00  0.00    +0.000 C 
ATOM      5  N   UNL     1       2.282   5.233  19.642  0.00  0.00    +0.000 NA
ATOM      6  C   UNL     1       3.623   4.681  19.848  0.00  0.00    +0.000 C 
ENDROOT
BRANCH   1   8
ATOM      7  O   UNL     1       3.868   6.263  17.419  0.00  0.00    +0.000 OA
ATOM      8  C   UNL     1       4.463   5.177  17.399  0.00  0.00    +0.000 C 
ATOM      9  N   UNL     1       5.224   4.866  16.297  0.00  0.00    +0.000 N 
ATOM     10  C   UNL     1       5.455   5.871  15.273  0.00  0.00    +0.000 C 
ATOM     11  C   UNL     1       5.698   5.068  14.013  0.00  0.00    +0.000 C 
ATOM     12  C   UNL     1       6.402   3.818  14.522  0.00  0.00    +0.000 C 
ATOM     13  C   UNL     1       5.867   3.616  15.940  0.00  0.00    +0.000 C 
ENDBRANCH   1   8
BRANCH   5  14
ATOM     14  C   UNL     1       1.747   5.930  20.826  0.00  0.00    +0.000 C 
BRANCH  14  15
ATOM     15  C   UNL     1       1.384   7.395  20.656  0.00  0.00    +0.000 A 
ATOM     16  C   UNL     1       0.596   8.069  21.617  0.00  0.00    +0.000 A 
ATOM     17  C   UNL     1       0.223   9.405  21.437  0.00  0.00    +0.000 A 
ATOM     18  C   UNL     1       0.651  10.043  20.290  0.00  0.00    +0.000 A 
ATOM     19  C   UNL     1       1.430   9.405  19.356  0.00  0.00    +0.000 A 
ATOM     20  C   UNL     1       1.820   8.093  19.513  0.00  0.00    +0.000 A 
ATOM     21  O   UNL     1       1.740  10.205  18.301  0.00  0.00    +0.000 OA
ATOM     22  C   UNL     1       1.049  11.416  18.667  0.00  0.00    +0.000 C 
ATOM     23  O   UNL     1       0.370  11.328  19.939  0.00  0.00    +0.000 OA
ENDBRANCH  14  15
ENDBRANCH   5  14
TORSDOF 3
ENDMDL
