MODEL 1
REMARK VINA RESULT:      -4.2      0.000      0.000
REMARK  Name = 
REMARK  4 active torsions:
REMARK  status: ('A' for Active; 'I' for Inactive)
REMARK    1  A    between atoms: C_2  and  C_3
REMARK    2  A    between atoms: C_3  and  C_4
REMARK    3  A    between atoms: C_6  and  C_7
REMARK    4  A    between atoms: C_6  and  C_9
REMARK                            x       y       z     vdW  Elec       q    Type
REMARK                         _______ _______ _______ _____ _____    ______ ____
ROOT
ATOM      1  C   UNL     1       4.798   5.154  18.579  0.00  0.00    +0.000 C 
ATOM      2  C   UNL     1       4.035   4.040  18.745  0.00  0.00    +0.000 C 
ENDROOT
BRANCH   1   4
ATOM      3  N   UNL     1       7.257   5.360  19.860  0.00  0.00    +0.000 NA
ATOM      4  C   UNL     1       6.142   5.267  19.279  0.00  0.00    +0.000 C 
ENDBRANCH   1   4
BRANCH   1   5
ATOM      5  C   UNL     1       4.390   6.244  17.764  0.00  0.00    +0.000 C 
ATOM      6  N   UNL     1       4.070   7.133  17.093  0.00  0.00    +0.000 NA
ENDBRANCH   1   5
BRANCH   2   7
ATOM      7  C   UNL     1       4.441   2.950  19.560  0.00  0.00    +0.000 C 
ATOM      8  N   UNL     1       4.785   2.070  20.229  0.00  0.00    +0.000 NA
ENDBRANCH   2   7
BRANCH   2   9
ATOM      9  C   UNL     1       2.691   3.928  18.045  0.00  0.00    +0.000 C 
ATOM     10  N   UNL     1       1.576   3.835  17.464  0.00  0.00    +0.000 NA
ENDBRANCH   2   9
TORSDOF 4
ENDMDL
MODEL 2
REMARK VINA RESULT:      -4.2      0.062      4.636
REMARK  Name = 
REMARK  4 active torsions:
REMARK  status: ('A' for Active; 'I' for Inactive)
REMARK    1  A    between atoms: C_2  and  C_3
REMARK    2  A    between atoms: C_3  and  C_4
REMARK    3  A    between atoms: C_6  and  C_7
REMARK    4  A    between atoms: C_6  and  C_9
REMARK                            x       y       z     vdW  Elec       q    Type
REMARK                         _______ _______ _______ _____ _____    ______ ____
ROOT
ATOM      1  C   UNL     1       4.003   4.055  18.763  0.00  0.00    +0.000 C 
ATOM      2  C   UNL     1       4.758   5.175  18.605  0.00  0.00    +0.000 C 
ENDROOT
BRANCH   1   4
ATOM      3  N   UNL     1       1.524   3.863  17.517  0.00  0.00    +0.000 NA
ATOM      4  C   UNL     1       2.648   3.950  18.082  0.00  0.00    +0.000 C 
ENDBRANCH   1   4
BRANCH   1   5
ATOM      5  C   UNL     1       4.427   2.952  19.550  0.00  0.00    +0.000 C 
ATOM      6  N   UNL     1       4.776   2.061  20.203  0.00  0.00    +0.000 NA
ENDBRANCH   1   5
BRANCH   2   7
ATOM      7  C   UNL     1       4.335   6.279  17.818  0.00  0.00    +0.000 C 
ATOM      8  N   UNL     1       3.984   7.169  17.166  0.00  0.00    +0.000 NA
ENDBRANCH   2   7
BRANCH   2   9
ATOM      9  C   UNL     1       6.113   5.280  19.286  0.00  0.00    +0.000 C 
ATOM     10  N   UNL     1       7.237   5.367  19.851  0.00  0.00    +0.000 NA
ENDBRANCH   2   9
TORSDOF 4
ENDMDL
MODEL 3
REMARK VINA RESULT:      -4.1      0.605      3.305
REMARK  Name = 
REMARK  4 active torsions:
REMARK  status: ('A' for Active; 'I' for Inactive)
REMARK    1  A    between atoms: C_2  and  C_3
REMARK    2  A    between atoms: C_3  and  C_4
REMARK    3  A    between atoms: C_6  and  C_7
REMARK    4  A    between atoms: C_6  and  C_9
REMARK                            x       y       z     vdW  Elec       q    Type
REMARK                         _______ _______ _______ _____ _____    ______ ____
ROOT
ATOM      1  C   UNL     1       4.312   3.850  18.495  0.00  0.00    +0.000 C 
ATOM      2  C   UNL     1       5.126   4.929  18.343  0.00  0.00    +0.000 C 
ENDROOT
BRANCH   1   4
ATOM      3  N   UNL     1       4.804   2.011  20.522  0.00  0.00    +0.000 NA
ATOM      4  C   UNL     1       4.581   2.845  19.602  0.00  0.00    +0.000 C 
ENDBRANCH   1   4
BRANCH   1   5
ATOM      5  C   UNL     1       3.196   3.610  17.650  0.00  0.00    +0.000 C 
ATOM      6  N   UNL     1       2.289   3.402  16.959  0.00  0.00    +0.000 NA
ENDBRANCH   1   5
BRANCH   2   7
ATOM      7  C   UNL     1       6.243   5.169  19.187  0.00  0.00    +0.000 C 
ATOM      8  N   UNL     1       7.162   5.362  19.863  0.00  0.00    +0.000 NA
ENDBRANCH   2   7
BRANCH   2   9
ATOM      9  C   UNL     1       4.857   5.934  17.235  0.00  0.00    +0.000 C 
ATOM     10  N   UNL     1       4.633   6.768  16.316  0.00  0.00    +0.000 NA
ENDBRANCH   2   9
TORSDOF 4
ENDMDL
MODEL 4
REMARK VINA RESULT:      -4.1      0.628      3.312
REMARK  Name = 
REMARK  4 active torsions:
REMARK  status: ('A' for Active; 'I' for Inactive)
REMARK    1  A    between atoms: C_2  and  C_3
REMARK    2  A    between atoms: C_3  and  C_4
REMARK    3  A    between atoms: C_6  and  C_7
REMARK    4  A    between atoms: C_6  and  C_9
REMARK                            x       y       z     vdW  Elec       q    Type
REMARK                         _______ _______ _______ _____ _____    ______ ____
ROOT
ATOM      1  C   UNL     1       5.154   4.921  18.348  0.00  0.00    +0.000 C 
ATOM      2  C   UNL     1       4.329   3.852  18.506  0.00  0.00    +0.000 C 
ENDROOT
BRANCH   1   4
ATOM      3  N   UNL     1       4.694   6.743  16.299  0.00  0.00    +0.000 NA
ATOM      4  C   UNL     1       4.903   5.917  17.228  0.00  0.00    +0.000 C 
ENDBRANCH   1   4
BRANCH   1   5
ATOM      5  C   UNL     1       6.266   5.159  19.199  0.00  0.00    +0.000 C 
ATOM      6  N   UNL     1       7.182   5.349  19.883  0.00  0.00    +0.000 NA
ENDBRANCH   1   5
BRANCH   2   7
ATOM      7  C   UNL     1       3.217   3.612  17.655  0.00  0.00    +0.000 C 
ATOM      8  N   UNL     1       2.320   3.413  16.950  0.00  0.00    +0.000 NA
ENDBRANCH   2   7
BRANCH   2   9
ATOM      9  C   UNL     1       4.580   2.856  19.626  0.00  0.00    +0.000 C 
ATOM     10  N   UNL     1       4.789   2.029  20.555  0.00  0.00    +0.000 NA
ENDBRANCH   2   9
TORSDOF 4
ENDMDL
MODEL 5
REMARK VINA RESULT:      -3.9      1.286      3.524
REMARK  Name = 
REMARK  4 active torsions:
REMARK  status: ('A' for Active; 'I' for Inactive)
REMARK    1  A    between atoms: C_2  and  C_3
REMARK    2  A    between atoms: C_3  and  C_4
REMARK    3  A    between atoms: C_6  and  C_7
REMARK    4  A    between atoms: C_6  and  C_9
REMARK                            x       y       z     vdW  Elec       q    Type
REMARK                         _______ _______ _______ _____ _____    ______ ____
ROOT
ATOM      1  C   UNL     1       5.445   4.956  17.586  0.00  0.00    +0.000 C 
ATOM      2  C   UNL     1       4.400   4.348  18.209  0.00  0.00    +0.000 C 
ENDROOT
BRANCH   1   4
ATOM      3  N   UNL     1       4.971   6.878  15.633  0.00  0.00    +0.000 NA
ATOM      4  C   UNL     1       5.186   6.006  16.518  0.00  0.00    +0.000 C 
ENDBRANCH   1   4
BRANCH   1   5
ATOM      5  C   UNL     1       6.798   4.651  17.890  0.00  0.00    +0.000 C 
ATOM      6  N   UNL     1       7.904   4.414  18.143  0.00  0.00    +0.000 NA
ENDBRANCH   1   5
BRANCH   2   7
ATOM      7  C   UNL     1       3.046   4.652  17.906  0.00  0.00    +0.000 C 
ATOM      8  N   UNL     1       1.942   4.887  17.649  0.00  0.00    +0.000 NA
ENDBRANCH   2   7
BRANCH   2   9
ATOM      9  C   UNL     1       4.659   3.297  19.277  0.00  0.00    +0.000 C 
ATOM     10  N   UNL     1       4.874   2.426  20.162  0.00  0.00    +0.000 NA
ENDBRANCH   2   9
TORSDOF 4
ENDMDL
MODEL 6
REMARK VINA RESULT:      -3.9      2.012      3.147
REMARK  Name = 
REMARK  4 active torsions:
REMARK  status: ('A' for Active; 'I' for Inactive)
REMARK    1  A    between atoms: C_2  and  C_3
REMARK    2  A    between atoms: C_3  and  C_4
REMARK    3  A    between atoms: C_6  and  C_7
REMARK    4  A    between atoms: C_6  and  C_9
REMARK                            x       y       z     vdW  Elec       q    Type
REMARK                         _______ _______ _______ _____ _____    ______ ____
ROOT
ATOM      1  C   UNL     1       4.271   4.150  17.679  0.00  0.00    +0.000 C 
ATOM      2  C   UNL     1       4.529   4.647  18.919  0.00  0.00    +0.000 C 
ENDROOT
BRANCH   1   4
ATOM      3  N   UNL     1       6.312   3.977  15.799  0.00  0.00    +0.000 NA
ATOM      4  C   UNL     1       5.386   4.055  16.652  0.00  0.00    +0.000 C 
ENDBRANCH   1   4
BRANCH   1   5
ATOM      5  C   UNL     1       2.980   3.706  17.288  0.00  0.00    +0.000 C 
ATOM      6  N   UNL     1       1.929   3.332  16.976  0.00  0.00    +0.000 NA
ENDBRANCH   1   5
BRANCH   2   7
ATOM      7  C   UNL     1       5.819   5.092  19.312  0.00  0.00    +0.000 C 
ATOM      8  N   UNL     1       6.870   5.445  19.644  0.00  0.00    +0.000 NA
ENDBRANCH   2   7
BRANCH   2   9
ATOM      9  C   UNL     1       3.413   4.742  19.947  0.00  0.00    +0.000 C 
ATOM     10  N   UNL     1       2.487   4.820  20.800  0.00  0.00    +0.000 NA
ENDBRANCH   2   9
TORSDOF 4
ENDMDL
MODEL 7
REMARK VINA RESULT:      -3.9      0.982      3.402
REMARK  Name = 
REMARK  4 active torsions:
REMARK  status: ('A' for Active; 'I' for Inactive)
REMARK    1  A    between atoms: C_2  and  C_3
REMARK    2  A    between atoms: C_3  and  C_4
REMARK    3  A    between atoms: C_6  and  C_7
REMARK    4  A    between atoms: C_6  and  C_9
REMARK                            x       y       z     vdW  Elec       q    Type
REMARK                         _______ _______ _______ _____ _____    ______ ____
ROOT
ATOM      1  C   UNL     1       5.006   4.262  18.819  0.00  0.00    +0.000 C 
ATOM      2  C   UNL     1       4.364   4.563  17.658  0.00  0.00    +0.000 C 
ENDROOT
BRANCH   1   4
ATOM      3  N   UNL     1       4.060   2.209  20.438  0.00  0.00    +0.000 NA
ATOM      4  C   UNL     1       4.489   3.140  19.704  0.00  0.00    +0.000 C 
ENDBRANCH   1   4
BRANCH   1   5
ATOM      5  C   UNL     1       6.162   4.961  19.256  0.00  0.00    +0.000 C 
ATOM      6  N   UNL     1       7.108   5.522  19.621  0.00  0.00    +0.000 NA
ENDBRANCH   1   5
BRANCH   2   7
ATOM      7  C   UNL     1       3.207   3.866  17.220  0.00  0.00    +0.000 C 
ATOM      8  N   UNL     1       2.263   3.290  16.878  0.00  0.00    +0.000 NA
ENDBRANCH   2   7
BRANCH   2   9
ATOM      9  C   UNL     1       4.881   5.686  16.773  0.00  0.00    +0.000 C 
ATOM     10  N   UNL     1       5.310   6.617  16.038  0.00  0.00    +0.000 NA
ENDBRANCH   2   9
TORSDOF 4
ENDMDL
MODEL 8
REMARK VINA RESULT:      -3.9      1.176      1.187
REMARK  Name = 
REMARK  4 active torsions:
REMARK  status: ('A' for Active; 'I' for Inactive)
REMARK    1  A    between atoms: C_2  and  C_3
REMARK    2  A    between atoms: C_3  and  C_4
REMARK    3  A    between atoms: C_6  and  C_7
REMARK    4  A    between atoms: C_6  and  C_9
REMARK                            x       y       z     vdW  Elec       q    Type
REMARK                         _______ _______ _______ _____ _____    ______ ____
ROOT
ATOM      1  C   UNL     1       4.092   4.759  19.122  0.00  0.00    +0.000 C 
ATOM      2  C   UNL     1       3.608   3.525  19.426  0.00  0.00    +0.000 C 
ENDROOT
BRANCH   1   4
ATOM      3  N   UNL     1       6.759   5.369  19.621  0.00  0.00    +0.000 NA
ATOM      4  C   UNL     1       5.550   5.092  19.395  0.00  0.00    +0.000 C 
ENDBRANCH   1   4
BRANCH   1   5
ATOM      5  C   UNL     1       3.284   5.777  18.549  0.00  0.00    +0.000 C 
ATOM      6  N   UNL     1       2.623   6.599  18.070  0.00  0.00    +0.000 NA
ENDBRANCH   1   5
BRANCH   2   7
ATOM      7  C   UNL     1       4.415   2.507  20.000  0.00  0.00    +0.000 C 
ATOM      8  N   UNL     1       5.068   1.681  20.482  0.00  0.00    +0.000 NA
ENDBRANCH   2   7
BRANCH   2   9
ATOM      9  C   UNL     1       2.151   3.192  19.153  0.00  0.00    +0.000 C 
ATOM     10  N   UNL     1       0.941   2.916  18.927  0.00  0.00    +0.000 NA
ENDBRANCH   2   9
TORSDOF 4
ENDMDL
MODEL 9
REMARK VINA RESULT:      -3.9      2.013      3.433
REMARK  Name = 
REMARK  4 active torsions:
REMARK  status: ('A' for Active; 'I' for Inactive)
REMARK    1  A    between atoms: C_2  and  C_3
REMARK    2  A    between atoms: C_3  and  C_4
REMARK    3  A    between atoms: C_6  and  C_7
REMARK    4  A    between atoms: C_6  and  C_9
REMARK                            x       y       z     vdW  Elec       q    Type
REMARK                         _______ _______ _______ _____ _____    ______ ____
ROOT
ATOM      1  C   UNL     1       4.410   4.677  18.969  0.00  0.00    +0.000 C 
ATOM      2  C   UNL     1       4.105   4.173  17.743  0.00  0.00    +0.000 C 
ENDROOT
BRANCH   1   4
ATOM      3  N   UNL     1       2.419   4.962  20.890  0.00  0.00    +0.000 NA
ATOM      4  C   UNL     1       3.322   4.833  20.019  0.00  0.00    +0.000 C 
ENDBRANCH   1   4
BRANCH   1   5
ATOM      5  C   UNL     1       5.726   5.074  19.326  0.00  0.00    +0.000 C 
ATOM      6  N   UNL     1       6.796   5.410  19.617  0.00  0.00    +0.000 NA
ENDBRANCH   1   5
BRANCH   2   7
ATOM      7  C   UNL     1       2.790   3.776  17.385  0.00  0.00    +0.000 C 
ATOM      8  N   UNL     1       1.713   3.467  17.093  0.00  0.00    +0.000 NA
ENDBRANCH   2   7
BRANCH   2   9
ATOM      9  C   UNL     1       5.194   4.017  16.693  0.00  0.00    +0.000 C 
ATOM     10  N   UNL     1       6.096   3.887  15.823  0.00  0.00    +0.000 NA
ENDBRANCH   2   9
TORSDOF 4
ENDMDL
