MODEL 1
REMARK VINA RESULT:      -8.3      0.000      0.000
REMARK  Name = 
REMARK  8 active torsions:
REMARK  status: ('A' for Active; 'I' for Inactive)
REMARK    1  A    between atoms: C_1  and  N_2
REMARK    2  A    between atoms: C_3  and  S_4
REMARK    3  A    between atoms: N_5  and  C_6
REMARK    4  A    between atoms: N_5  and  C_19
REMARK    5  A    between atoms: C_6  and  C_7
REMARK    6  A    between atoms: C_7  and  C_8
REMARK    7  A    between atoms: C_9  and  C_10
REMARK    8  A    between atoms: C_19  and  C_20
REMARK                            x       y       z     vdW  Elec       q    Type
REMARK                         _______ _______ _______ _____ _____    ______ ____
ROOT
ATOM      1  C   UNL     1       3.814   4.599  17.336  0.00  0.00    +0.000 C 
ENDROOT
BRANCH   1   5
ATOM      2  C   UNL     1       1.221   2.990  21.172  0.00  0.00    +0.000 C 
ATOM      3  N   UNL     1       2.083   3.916  20.462  0.00  0.00    +0.000 NA
ATOM      4  C   UNL     1       2.766   3.617  19.413  0.00  0.00    +0.000 C 
ATOM      5  N   UNL     1       3.596   4.561  18.803  0.00  0.00    +0.000 N 
BRANCH   4   6
ATOM      6  S   UNL     1       2.787   1.990  18.717  0.00  0.00    +0.000 S 
ATOM      7  H   UNL     1       1.955   1.390  19.571  0.00  0.00    +0.000 HD
ENDBRANCH   4   6
BRANCH   5   8
ATOM      8  C   UNL     1       3.925   5.784  19.555  0.00  0.00    +0.000 C 
BRANCH   8   9
ATOM      9  C   UNL     1       3.022   6.935  19.169  0.00  0.00    +0.000 A 
ATOM     10  C   UNL     1       3.125   7.604  17.944  0.00  0.00    +0.000 A 
ATOM     11  C   UNL     1       2.324   8.710  17.678  0.00  0.00    +0.000 A 
ATOM     12  C   UNL     1       1.439   9.124  18.656  0.00  0.00    +0.000 A 
ATOM     13  N   UNL     1       1.300   8.509  19.849  0.00  0.00    +0.000 NA
ATOM     14  C   UNL     1       2.094   7.436  20.078  0.00  0.00    +0.000 A 
ENDBRANCH   8   9
ENDBRANCH   5   8
ENDBRANCH   1   5
BRANCH   1  15
ATOM     15  C   UNL     1       4.901   3.639  16.830  0.00  0.00    +0.000 C 
BRANCH  15  16
ATOM     16  C   UNL     1       5.956   4.318  16.006  0.00  0.00    +0.000 A 
ATOM     17  C   UNL     1       6.858   5.276  16.440  0.00  0.00    +0.000 A 
ATOM     18  C   UNL     1       7.094   5.860  17.787  0.00  0.00    +0.000 C 
ATOM     19  N   UNL     1       7.583   5.695  15.355  0.00  0.00    +0.000 N 
ATOM     20  C   UNL     1       7.193   5.019  14.221  0.00  0.00    +0.000 A 
ATOM     21  C   UNL     1       7.646   5.140  12.900  0.00  0.00    +0.000 A 
ATOM     22  C   UNL     1       7.066   4.308  11.940  0.00  0.00    +0.000 A 
ATOM     23  C   UNL     1       6.082   3.398  12.302  0.00  0.00    +0.000 A 
ATOM     24  F   UNL     1       5.547   2.605  11.362  0.00  0.00    +0.000 F 
ATOM     25  C   UNL     1       5.629   3.290  13.618  0.00  0.00    +0.000 A 
ATOM     26  C   UNL     1       6.192   4.126  14.603  0.00  0.00    +0.000 A 
ATOM     27  H   UNL     1       8.298   6.409  15.372  0.00  0.00    +0.000 HD
ENDBRANCH  15  16
ENDBRANCH   1  15
TORSDOF 6
ENDMDL
MODEL 2
REMARK VINA RESULT:      -8.3      2.741      7.219
REMARK  Name = 
REMARK  8 active torsions:
REMARK  status: ('A' for Active; 'I' for Inactive)
REMARK    1  A    between atoms: C_1  and  N_2
REMARK    2  A    between atoms: C_3  and  S_4
REMARK    3  A    between atoms: N_5  and  C_6
REMARK    4  A    between atoms: N_5  and  C_19
REMARK    5  A    between atoms: C_6  and  C_7
REMARK    6  A    between atoms: C_7  and  C_8
REMARK    7  A    between atoms: C_9  and  C_10
REMARK    8  A    between atoms: C_19  and  C_20
REMARK                            x       y       z     vdW  Elec       q    Type
REMARK                         _______ _______ _______ _____ _____    ______ ____
ROOT
ATOM      1  C   UNL     1       5.153   4.212  17.530  0.00  0.00    +0.000 C 
ENDROOT
BRANCH   1   5
ATOM      2  C   UNL     1       7.790   8.340  17.687  0.00  0.00    +0.000 C 
ATOM      3  N   UNL     1       6.874   7.387  17.091  0.00  0.00    +0.000 NA
ATOM      4  C   UNL     1       6.759   6.159  17.460  0.00  0.00    +0.000 C 
ATOM      5  N   UNL     1       5.872   5.294  16.815  0.00  0.00    +0.000 N 
BRANCH   4   6
ATOM      6  S   UNL     1       7.762   5.445  18.732  0.00  0.00    +0.000 S 
ATOM      7  H   UNL     1       7.861   6.505  19.535  0.00  0.00    +0.000 HD
ENDBRANCH   4   6
BRANCH   5   8
ATOM      8  C   UNL     1       5.317   5.714  15.516  0.00  0.00    +0.000 C 
BRANCH   8   9
ATOM      9  C   UNL     1       5.980   4.986  14.366  0.00  0.00    +0.000 A 
ATOM     10  C   UNL     1       7.237   5.343  13.864  0.00  0.00    +0.000 A 
ATOM     11  C   UNL     1       7.760   4.693  12.752  0.00  0.00    +0.000 A 
ATOM     12  C   UNL     1       7.002   3.698  12.161  0.00  0.00    +0.000 A 
ATOM     13  N   UNL     1       5.789   3.315  12.612  0.00  0.00    +0.000 NA
ATOM     14  C   UNL     1       5.307   3.968  13.696  0.00  0.00    +0.000 A 
ENDBRANCH   8   9
ENDBRANCH   5   8
ENDBRANCH   1   5
BRANCH   1  15
ATOM     15  C   UNL     1       3.624   4.351  17.521  0.00  0.00    +0.000 C 
BRANCH  15  16
ATOM     16  C   UNL     1       3.085   5.050  18.736  0.00  0.00    +0.000 A 
ATOM     17  C   UNL     1       2.876   4.492  19.987  0.00  0.00    +0.000 A 
ATOM     18  C   UNL     1       3.152   3.128  20.512  0.00  0.00    +0.000 C 
ATOM     19  N   UNL     1       2.293   5.446  20.781  0.00  0.00    +0.000 N 
ATOM     20  C   UNL     1       2.134   6.623  20.087  0.00  0.00    +0.000 A 
ATOM     21  C   UNL     1       1.570   7.841  20.495  0.00  0.00    +0.000 A 
ATOM     22  C   UNL     1       1.548   8.884  19.568  0.00  0.00    +0.000 A 
ATOM     23  C   UNL     1       2.073   8.705  18.296  0.00  0.00    +0.000 A 
ATOM     24  F   UNL     1       2.045   9.726  17.427  0.00  0.00    +0.000 F 
ATOM     25  C   UNL     1       2.623   7.487  17.892  0.00  0.00    +0.000 A 
ATOM     26  C   UNL     1       2.649   6.415  18.808  0.00  0.00    +0.000 A 
ATOM     27  H   UNL     1       2.005   5.309  21.741  0.00  0.00    +0.000 HD
ENDBRANCH  15  16
ENDBRANCH   1  15
TORSDOF 6
ENDMDL
MODEL 3
REMARK VINA RESULT:      -8.0      1.796      3.493
REMARK  Name = 
REMARK  8 active torsions:
REMARK  status: ('A' for Active; 'I' for Inactive)
REMARK    1  A    between atoms: C_1  and  N_2
REMARK    2  A    between atoms: C_3  and  S_4
REMARK    3  A    between atoms: N_5  and  C_6
REMARK    4  A    between atoms: N_5  and  C_19
REMARK    5  A    between atoms: C_6  and  C_7
REMARK    6  A    between atoms: C_7  and  C_8
REMARK    7  A    between atoms: C_9  and  C_10
REMARK    8  A    between atoms: C_19  and  C_20
REMARK                            x       y       z     vdW  Elec       q    Type
REMARK                         _______ _______ _______ _____ _____    ______ ____
ROOT
ATOM      1  C   UNL     1       4.026   6.598  17.465  0.00  0.00    +0.000 C 
ENDROOT
BRANCH   1   5
ATOM      2  C   UNL     1       1.209   8.996  20.680  0.00  0.00    +0.000 C 
ATOM      3  N   UNL     1       2.053   7.907  20.227  0.00  0.00    +0.000 NA
ATOM      4  C   UNL     1       2.315   7.654  18.992  0.00  0.00    +0.000 C 
ATOM      5  N   UNL     1       3.116   6.566  18.636  0.00  0.00    +0.000 N 
BRANCH   4   6
ATOM      6  S   UNL     1       1.621   8.586  17.657  0.00  0.00    +0.000 S 
ATOM      7  H   UNL     1       2.732   8.782  16.944  0.00  0.00    +0.000 HD
ENDBRANCH   4   6
BRANCH   5   8
ATOM      8  C   UNL     1       3.384   5.538  19.657  0.00  0.00    +0.000 C 
BRANCH   8   9
ATOM      9  C   UNL     1       2.347   4.437  19.623  0.00  0.00    +0.000 A 
ATOM     10  C   UNL     1       1.965   3.718  20.762  0.00  0.00    +0.000 A 
ATOM     11  C   UNL     1       1.069   2.659  20.657  0.00  0.00    +0.000 A 
ATOM     12  C   UNL     1       0.580   2.340  19.403  0.00  0.00    +0.000 A 
ATOM     13  N   UNL     1       0.914   3.007  18.278  0.00  0.00    +0.000 NA
ATOM     14  C   UNL     1       1.789   4.032  18.413  0.00  0.00    +0.000 A 
ENDBRANCH   8   9
ENDBRANCH   5   8
ENDBRANCH   1   5
BRANCH   1  15
ATOM     15  C   UNL     1       4.515   5.216  17.004  0.00  0.00    +0.000 C 
BRANCH  15  16
ATOM     16  C   UNL     1       5.747   5.279  16.148  0.00  0.00    +0.000 A 
ATOM     17  C   UNL     1       6.948   5.892  16.469  0.00  0.00    +0.000 A 
ATOM     18  C   UNL     1       7.393   6.591  17.703  0.00  0.00    +0.000 C 
ATOM     19  N   UNL     1       7.776   5.792  15.380  0.00  0.00    +0.000 N 
ATOM     20  C   UNL     1       7.154   5.109  14.360  0.00  0.00    +0.000 A 
ATOM     21  C   UNL     1       7.616   4.796  13.074  0.00  0.00    +0.000 A 
ATOM     22  C   UNL     1       6.760   4.076  12.239  0.00  0.00    +0.000 A 
ATOM     23  C   UNL     1       5.503   3.688  12.686  0.00  0.00    +0.000 A 
ATOM     24  F   UNL     1       4.704   2.991  11.866  0.00  0.00    +0.000 F 
ATOM     25  C   UNL     1       5.047   4.012  13.964  0.00  0.00    +0.000 A 
ATOM     26  C   UNL     1       5.889   4.748  14.822  0.00  0.00    +0.000 A 
ATOM     27  H   UNL     1       8.709   6.175  15.321  0.00  0.00    +0.000 HD
ENDBRANCH  15  16
ENDBRANCH   1  15
TORSDOF 6
ENDMDL
MODEL 4
REMARK VINA RESULT:      -8.0      3.626      7.770
REMARK  Name = 
REMARK  8 active torsions:
REMARK  status: ('A' for Active; 'I' for Inactive)
REMARK    1  A    between atoms: C_1  and  N_2
REMARK    2  A    between atoms: C_3  and  S_4
REMARK    3  A    between atoms: N_5  and  C_6
REMARK    4  A    between atoms: N_5  and  C_19
REMARK    5  A    between atoms: C_6  and  C_7
REMARK    6  A    between atoms: C_7  and  C_8
REMARK    7  A    between atoms: C_9  and  C_10
REMARK    8  A    between atoms: C_19  and  C_20
REMARK                            x       y       z     vdW  Elec       q    Type
REMARK                         _______ _______ _______ _____ _____    ______ ____
ROOT
ATOM      1  C   UNL     1       2.397   5.512  19.028  0.00  0.00    +0.000 C 
ENDROOT
BRANCH   1   5
ATOM      2  C   UNL     1       4.794   1.458  20.386  0.00  0.00    +0.000 C 
ATOM      3  N   UNL     1       4.682   2.843  19.971  0.00  0.00    +0.000 NA
ATOM      4  C   UNL     1       3.649   3.350  19.395  0.00  0.00    +0.000 C 
ATOM      5  N   UNL     1       3.631   4.690  18.999  0.00  0.00    +0.000 N 
BRANCH   4   6
ATOM      6  S   UNL     1       2.221   2.391  18.978  0.00  0.00    +0.000 S 
ATOM      7  H   UNL     1       2.122   2.721  17.689  0.00  0.00    +0.000 HD
ENDBRANCH   4   6
BRANCH   5   8
ATOM      8  C   UNL     1       4.912   5.416  18.955  0.00  0.00    +0.000 C 
BRANCH   8   9
ATOM      9  C   UNL     1       5.630   5.199  17.640  0.00  0.00    +0.000 A 
ATOM     10  C   UNL     1       4.994   5.317  16.399  0.00  0.00    +0.000 A 
ATOM     11  C   UNL     1       5.682   5.022  15.226  0.00  0.00    +0.000 A 
ATOM     12  C   UNL     1       6.998   4.608  15.329  0.00  0.00    +0.000 A 
ATOM     13  N   UNL     1       7.654   4.484  16.501  0.00  0.00    +0.000 NA
ATOM     14  C   UNL     1       6.957   4.777  17.625  0.00  0.00    +0.000 A 
ENDBRANCH   8   9
ENDBRANCH   5   8
ENDBRANCH   1   5
BRANCH   1  15
ATOM     15  C   UNL     1       2.341   6.533  20.174  0.00  0.00    +0.000 C 
BRANCH  15  16
ATOM     16  C   UNL     1       1.825   7.877  19.747  0.00  0.00    +0.000 A 
ATOM     17  C   UNL     1       2.078   8.517  18.545  0.00  0.00    +0.000 A 
ATOM     18  C   UNL     1       2.844   8.085  17.345  0.00  0.00    +0.000 C 
ATOM     19  N   UNL     1       1.491   9.755  18.596  0.00  0.00    +0.000 N 
ATOM     20  C   UNL     1       0.842   9.935  19.795  0.00  0.00    +0.000 A 
ATOM     21  C   UNL     1       0.133  11.044  20.279  0.00  0.00    +0.000 A 
ATOM     22  C   UNL     1      -0.437  10.942  21.549  0.00  0.00    +0.000 A 
ATOM     23  C   UNL     1      -0.300   9.775  22.289  0.00  0.00    +0.000 A 
ATOM     24  F   UNL     1      -0.864   9.700  23.503  0.00  0.00    +0.000 F 
ATOM     25  C   UNL     1       0.415   8.678  21.806  0.00  0.00    +0.000 A 
ATOM     26  C   UNL     1       1.009   8.761  20.529  0.00  0.00    +0.000 A 
ATOM     27  H   UNL     1       1.535  10.452  17.864  0.00  0.00    +0.000 HD
ENDBRANCH  15  16
ENDBRANCH   1  15
TORSDOF 6
ENDMDL
MODEL 5
REMARK VINA RESULT:      -8.0      1.663      3.544
REMARK  Name = 
REMARK  8 active torsions:
REMARK  status: ('A' for Active; 'I' for Inactive)
REMARK    1  A    between atoms: C_1  and  N_2
REMARK    2  A    between atoms: C_3  and  S_4
REMARK    3  A    between atoms: N_5  and  C_6
REMARK    4  A    between atoms: N_5  and  C_19
REMARK    5  A    between atoms: C_6  and  C_7
REMARK    6  A    between atoms: C_7  and  C_8
REMARK    7  A    between atoms: C_9  and  C_10
REMARK    8  A    between atoms: C_19  and  C_20
REMARK                            x       y       z     vdW  Elec       q    Type
REMARK                         _______ _______ _______ _____ _____    ______ ____
ROOT
ATOM      1  C   UNL     1       4.379   4.585  17.953  0.00  0.00    +0.000 C 
ENDROOT
BRANCH   1   5
ATOM      2  C   UNL     1       2.169   8.960  17.970  0.00  0.00    +0.000 C 
ATOM      3  N   UNL     1       2.218   7.511  18.014  0.00  0.00    +0.000 NA
ATOM      4  C   UNL     1       3.221   6.804  17.624  0.00  0.00    +0.000 C 
ATOM      5  N   UNL     1       3.178   5.408  17.671  0.00  0.00    +0.000 N 
BRANCH   4   6
ATOM      6  S   UNL     1       4.678   7.520  16.918  0.00  0.00    +0.000 S 
ATOM      7  H   UNL     1       4.710   6.835  15.774  0.00  0.00    +0.000 HD
ENDBRANCH   4   6
BRANCH   5   8
ATOM      8  C   UNL     1       1.869   4.761  17.864  0.00  0.00    +0.000 C 
BRANCH   8   9
ATOM      9  C   UNL     1       1.801   4.024  19.184  0.00  0.00    +0.000 A 
ATOM     10  C   UNL     1       1.986   4.658  20.418  0.00  0.00    +0.000 A 
ATOM     11  C   UNL     1       1.997   3.916  21.594  0.00  0.00    +0.000 A 
ATOM     12  C   UNL     1       1.829   2.546  21.503  0.00  0.00    +0.000 A 
ATOM     13  N   UNL     1       1.643   1.892  20.338  0.00  0.00    +0.000 NA
ATOM     14  C   UNL     1       1.638   2.642  19.210  0.00  0.00    +0.000 A 
ENDBRANCH   8   9
ENDBRANCH   5   8
ENDBRANCH   1   5
BRANCH   1  15
ATOM     15  C   UNL     1       4.775   3.630  16.817  0.00  0.00    +0.000 C 
BRANCH  15  16
ATOM     16  C   UNL     1       5.910   4.142  15.979  0.00  0.00    +0.000 A 
ATOM     17  C   UNL     1       7.014   4.851  16.424  0.00  0.00    +0.000 A 
ATOM     18  C   UNL     1       7.432   5.258  17.792  0.00  0.00    +0.000 C 
ATOM     19  N   UNL     1       7.760   5.200  15.328  0.00  0.00    +0.000 N 
ATOM     20  C   UNL     1       7.183   4.719  14.176  0.00  0.00    +0.000 A 
ATOM     21  C   UNL     1       7.589   4.855  12.841  0.00  0.00    +0.000 A 
ATOM     22  C   UNL     1       6.802   4.245  11.862  0.00  0.00    +0.000 A 
ATOM     23  C   UNL     1       5.665   3.532  12.218  0.00  0.00    +0.000 A 
ATOM     24  F   UNL     1       4.931   2.950  11.258  0.00  0.00    +0.000 F 
ATOM     25  C   UNL     1       5.261   3.410  13.548  0.00  0.00    +0.000 A 
ATOM     26  C   UNL     1       6.034   4.024  14.554  0.00  0.00    +0.000 A 
ATOM     27  H   UNL     1       8.610   5.746  15.352  0.00  0.00    +0.000 HD
ENDBRANCH  15  16
ENDBRANCH   1  15
TORSDOF 6
ENDMDL
MODEL 6
REMARK VINA RESULT:      -7.7      3.815      6.601
REMARK  Name = 
REMARK  8 active torsions:
REMARK  status: ('A' for Active; 'I' for Inactive)
REMARK    1  A    between atoms: C_1  and  N_2
REMARK    2  A    between atoms: C_3  and  S_4
REMARK    3  A    between atoms: N_5  and  C_6
REMARK    4  A    between atoms: N_5  and  C_19
REMARK    5  A    between atoms: C_6  and  C_7
REMARK    6  A    between atoms: C_7  and  C_8
REMARK    7  A    between atoms: C_9  and  C_10
REMARK    8  A    between atoms: C_19  and  C_20
REMARK                            x       y       z     vdW  Elec       q    Type
REMARK                         _______ _______ _______ _____ _____    ______ ____
ROOT
ATOM      1  C   UNL     1       2.099   9.913  18.168  0.00  0.00    +0.000 C 
ENDROOT
BRANCH   1   5
ATOM      2  C   UNL     1       0.843  13.878  20.762  0.00  0.00    +0.000 C 
ATOM      3  N   UNL     1       0.663  12.538  20.237  0.00  0.00    +0.000 NA
ATOM      4  C   UNL     1       1.294  12.061  19.222  0.00  0.00    +0.000 C 
ATOM      5  N   UNL     1       1.041  10.767  18.760  0.00  0.00    +0.000 N 
BRANCH   4   6
ATOM      6  S   UNL     1       2.448  13.017  18.279  0.00  0.00    +0.000 S 
ATOM      7  H   UNL     1       2.964  13.750  19.268  0.00  0.00    +0.000 HD
ENDBRANCH   4   6
BRANCH   5   8
ATOM      8  C   UNL     1      -0.172  10.084  19.242  0.00  0.00    +0.000 C 
BRANCH   8   9
ATOM      9  C   UNL     1      -1.368  10.390  18.368  0.00  0.00    +0.000 A 
ATOM     10  C   UNL     1      -1.553   9.815  17.105  0.00  0.00    +0.000 A 
ATOM     11  C   UNL     1      -2.628  10.197  16.309  0.00  0.00    +0.000 A 
ATOM     12  C   UNL     1      -3.492  11.159  16.799  0.00  0.00    +0.000 A 
ATOM     13  N   UNL     1      -3.359  11.737  18.011  0.00  0.00    +0.000 NA
ATOM     14  C   UNL     1      -2.302  11.345  18.761  0.00  0.00    +0.000 A 
ENDBRANCH   8   9
ENDBRANCH   5   8
ENDBRANCH   1   5
BRANCH   1  15
ATOM     15  C   UNL     1       1.646   8.485  17.828  0.00  0.00    +0.000 C 
BRANCH  15  16
ATOM     16  C   UNL     1       2.446   7.426  18.528  0.00  0.00    +0.000 A 
ATOM     17  C   UNL     1       2.272   6.981  19.829  0.00  0.00    +0.000 A 
ATOM     18  C   UNL     1       1.268   7.344  20.864  0.00  0.00    +0.000 C 
ATOM     19  N   UNL     1       3.263   6.073  20.100  0.00  0.00    +0.000 N 
ATOM     20  C   UNL     1       4.072   5.896  19.001  0.00  0.00    +0.000 A 
ATOM     21  C   UNL     1       5.205   5.087  18.837  0.00  0.00    +0.000 A 
ATOM     22  C   UNL     1       5.833   5.100  17.590  0.00  0.00    +0.000 A 
ATOM     23  C   UNL     1       5.335   5.888  16.561  0.00  0.00    +0.000 A 
ATOM     24  F   UNL     1       5.952   5.877  15.371  0.00  0.00    +0.000 F 
ATOM     25  C   UNL     1       4.212   6.699  16.734  0.00  0.00    +0.000 A 
ATOM     26  C   UNL     1       3.566   6.710  17.987  0.00  0.00    +0.000 A 
ATOM     27  H   UNL     1       3.398   5.604  20.985  0.00  0.00    +0.000 HD
ENDBRANCH  15  16
ENDBRANCH   1  15
TORSDOF 6
ENDMDL
MODEL 7
REMARK VINA RESULT:      -7.6      2.935      6.767
REMARK  Name = 
REMARK  8 active torsions:
REMARK  status: ('A' for Active; 'I' for Inactive)
REMARK    1  A    between atoms: C_1  and  N_2
REMARK    2  A    between atoms: C_3  and  S_4
REMARK    3  A    between atoms: N_5  and  C_6
REMARK    4  A    between atoms: N_5  and  C_19
REMARK    5  A    between atoms: C_6  and  C_7
REMARK    6  A    between atoms: C_7  and  C_8
REMARK    7  A    between atoms: C_9  and  C_10
REMARK    8  A    between atoms: C_19  and  C_20
REMARK                            x       y       z     vdW  Elec       q    Type
REMARK                         _______ _______ _______ _____ _____    ______ ____
ROOT
ATOM      1  C   UNL     1       5.078   3.824  16.167  0.00  0.00    +0.000 C 
ENDROOT
BRANCH   1   5
ATOM      2  C   UNL     1       8.330   5.466  12.887  0.00  0.00    +0.000 C 
ATOM      3  N   UNL     1       7.445   5.577  14.031  0.00  0.00    +0.000 NA
ATOM      4  C   UNL     1       6.484   4.761  14.290  0.00  0.00    +0.000 C 
ATOM      5  N   UNL     1       5.656   4.954  15.399  0.00  0.00    +0.000 N 
BRANCH   4   6
ATOM      6  S   UNL     1       6.072   3.403  13.233  0.00  0.00    +0.000 S 
ATOM      7  H   UNL     1       5.431   2.639  14.120  0.00  0.00    +0.000 HD
ENDBRANCH   4   6
BRANCH   5   8
ATOM      8  C   UNL     1       5.694   6.264  16.073  0.00  0.00    +0.000 C 
BRANCH   8   9
ATOM      9  C   UNL     1       6.545   6.222  17.323  0.00  0.00    +0.000 A 
ATOM     10  C   UNL     1       7.473   7.220  17.646  0.00  0.00    +0.000 A 
ATOM     11  C   UNL     1       8.288   7.087  18.764  0.00  0.00    +0.000 A 
ATOM     12  C   UNL     1       8.158   5.945  19.534  0.00  0.00    +0.000 A 
ATOM     13  N   UNL     1       7.276   4.960  19.268  0.00  0.00    +0.000 NA
ATOM     14  C   UNL     1       6.497   5.118  18.171  0.00  0.00    +0.000 A 
ENDBRANCH   8   9
ENDBRANCH   5   8
ENDBRANCH   1   5
BRANCH   1  15
ATOM     15  C   UNL     1       3.557   3.902  16.362  0.00  0.00    +0.000 C 
BRANCH  15  16
ATOM     16  C   UNL     1       3.150   4.058  17.799  0.00  0.00    +0.000 A 
ATOM     17  C   UNL     1       3.017   3.047  18.736  0.00  0.00    +0.000 A 
ATOM     18  C   UNL     1       3.272   1.585  18.645  0.00  0.00    +0.000 C 
ATOM     19  N   UNL     1       2.545   3.607  19.896  0.00  0.00    +0.000 N 
ATOM     20  C   UNL     1       2.385   4.966  19.748  0.00  0.00    +0.000 A 
ATOM     21  C   UNL     1       1.913   5.921  20.658  0.00  0.00    +0.000 A 
ATOM     22  C   UNL     1       1.864   7.250  20.232  0.00  0.00    +0.000 A 
ATOM     23  C   UNL     1       2.276   7.592  18.951  0.00  0.00    +0.000 A 
ATOM     24  F   UNL     1       2.225   8.877  18.569  0.00  0.00    +0.000 F 
ATOM     25  C   UNL     1       2.735   6.634  18.046  0.00  0.00    +0.000 A 
ATOM     26  C   UNL     1       2.785   5.284  18.450  0.00  0.00    +0.000 A 
ATOM     27  H   UNL     1       2.329   3.099  20.743  0.00  0.00    +0.000 HD
ENDBRANCH  15  16
ENDBRANCH   1  15
TORSDOF 6
ENDMDL
MODEL 8
REMARK VINA RESULT:      -7.6      2.939      7.345
REMARK  Name = 
REMARK  8 active torsions:
REMARK  status: ('A' for Active; 'I' for Inactive)
REMARK    1  A    between atoms: C_1  and  N_2
REMARK    2  A    between atoms: C_3  and  S_4
REMARK    3  A    between atoms: N_5  and  C_6
REMARK    4  A    between atoms: N_5  and  C_19
REMARK    5  A    between atoms: C_6  and  C_7
REMARK    6  A    between atoms: C_7  and  C_8
REMARK    7  A    between atoms: C_9  and  C_10
REMARK    8  A    between atoms: C_19  and  C_20
REMARK                            x       y       z     vdW  Elec       q    Type
REMARK                         _______ _______ _______ _____ _____    ______ ____
ROOT
ATOM      1  C   UNL     1       2.697   5.499  17.860  0.00  0.00    +0.000 C 
ENDROOT
BRANCH   1   5
ATOM      2  C   UNL     1       4.694   1.711  20.246  0.00  0.00    +0.000 C 
ATOM      3  N   UNL     1       4.713   2.974  19.532  0.00  0.00    +0.000 NA
ATOM      4  C   UNL     1       3.757   3.402  18.783  0.00  0.00    +0.000 C 
ATOM      5  N   UNL     1       3.865   4.619  18.105  0.00  0.00    +0.000 N 
BRANCH   4   6
ATOM      6  S   UNL     1       2.290   2.462  18.475  0.00  0.00    +0.000 S 
ATOM      7  H   UNL     1       2.287   2.515  17.142  0.00  0.00    +0.000 HD
ENDBRANCH   4   6
BRANCH   5   8
ATOM      8  C   UNL     1       5.198   5.239  18.002  0.00  0.00    +0.000 C 
BRANCH   8   9
ATOM      9  C   UNL     1       5.774   5.092  16.610  0.00  0.00    +0.000 A 
ATOM     10  C   UNL     1       5.160   4.329  15.610  0.00  0.00    +0.000 A 
ATOM     11  C   UNL     1       5.778   4.160  14.376  0.00  0.00    +0.000 A 
ATOM     12  C   UNL     1       7.009   4.758  14.175  0.00  0.00    +0.000 A 
ATOM     13  N   UNL     1       7.637   5.506  15.106  0.00  0.00    +0.000 NA
ATOM     14  C   UNL     1       7.010   5.651  16.298  0.00  0.00    +0.000 A 
ENDBRANCH   8   9
ENDBRANCH   5   8
ENDBRANCH   1   5
BRANCH   1  15
ATOM     15  C   UNL     1       2.964   6.991  18.111  0.00  0.00    +0.000 C 
BRANCH  15  16
ATOM     16  C   UNL     1       2.208   7.539  19.287  0.00  0.00    +0.000 A 
ATOM     17  C   UNL     1       1.909   6.871  20.463  0.00  0.00    +0.000 A 
ATOM     18  C   UNL     1       2.265   5.506  20.934  0.00  0.00    +0.000 C 
ATOM     19  N   UNL     1       1.133   7.700  21.233  0.00  0.00    +0.000 N 
ATOM     20  C   UNL     1       0.933   8.904  20.598  0.00  0.00    +0.000 A 
ATOM     21  C   UNL     1       0.196  10.025  21.004  0.00  0.00    +0.000 A 
ATOM     22  C   UNL     1       0.174  11.128  20.148  0.00  0.00    +0.000 A 
ATOM     23  C   UNL     1       0.867  11.098  18.946  0.00  0.00    +0.000 A 
ATOM     24  F   UNL     1       0.835  12.174  18.145  0.00  0.00    +0.000 F 
ATOM     25  C   UNL     1       1.591   9.975  18.543  0.00  0.00    +0.000 A 
ATOM     26  C   UNL     1       1.621   8.845  19.386  0.00  0.00    +0.000 A 
ATOM     27  H   UNL     1       0.746   7.464  22.136  0.00  0.00    +0.000 HD
ENDBRANCH  15  16
ENDBRANCH   1  15
TORSDOF 6
ENDMDL
MODEL 9
REMARK VINA RESULT:      -7.5      1.917      3.677
REMARK  Name = 
REMARK  8 active torsions:
REMARK  status: ('A' for Active; 'I' for Inactive)
REMARK    1  A    between atoms: C_1  and  N_2
REMARK    2  A    between atoms: C_3  and  S_4
REMARK    3  A    between atoms: N_5  and  C_6
REMARK    4  A    between atoms: N_5  and  C_19
REMARK    5  A    between atoms: C_6  and  C_7
REMARK    6  A    between atoms: C_7  and  C_8
REMARK    7  A    between atoms: C_9  and  C_10
REMARK    8  A    between atoms: C_19  and  C_20
REMARK                            x       y       z     vdW  Elec       q    Type
REMARK                         _______ _______ _______ _____ _____    ______ ____
ROOT
ATOM      1  C   UNL     1       4.457   6.443  18.105  0.00  0.00    +0.000 C 
ENDROOT
BRANCH   1   5
ATOM      2  C   UNL     1       0.979   8.891  20.542  0.00  0.00    +0.000 C 
ATOM      3  N   UNL     1       1.870   7.775  20.289  0.00  0.00    +0.000 NA
ATOM      4  C   UNL     1       2.443   7.541  19.161  0.00  0.00    +0.000 C 
ATOM      5  N   UNL     1       3.267   6.425  18.990  0.00  0.00    +0.000 N 
BRANCH   4   6
ATOM      6  S   UNL     1       2.168   8.538  17.725  0.00  0.00    +0.000 S 
ATOM      7  H   UNL     1       3.435   8.854  17.449  0.00  0.00    +0.000 HD
ENDBRANCH   4   6
BRANCH   5   8
ATOM      8  C   UNL     1       3.211   5.361  20.007  0.00  0.00    +0.000 C 
BRANCH   8   9
ATOM      9  C   UNL     1       3.059   3.994  19.374  0.00  0.00    +0.000 A 
ATOM     10  C   UNL     1       1.914   3.607  18.668  0.00  0.00    +0.000 A 
ATOM     11  C   UNL     1       1.794   2.310  18.181  0.00  0.00    +0.000 A 
ATOM     12  C   UNL     1       2.829   1.425  18.421  0.00  0.00    +0.000 A 
ATOM     13  N   UNL     1       3.954   1.753  19.091  0.00  0.00    +0.000 NA
ATOM     14  C   UNL     1       4.040   3.023  19.553  0.00  0.00    +0.000 A 
ENDBRANCH   8   9
ENDBRANCH   5   8
ENDBRANCH   1   5
BRANCH   1  15
ATOM     15  C   UNL     1       4.289   5.651  16.799  0.00  0.00    +0.000 C 
BRANCH  15  16
ATOM     16  C   UNL     1       5.567   5.508  16.024  0.00  0.00    +0.000 A 
ATOM     17  C   UNL     1       6.806   6.023  16.367  0.00  0.00    +0.000 A 
ATOM     18  C   UNL     1       7.254   6.786  17.562  0.00  0.00    +0.000 C 
ATOM     19  N   UNL     1       7.678   5.738  15.348  0.00  0.00    +0.000 N 
ATOM     20  C   UNL     1       7.045   5.029  14.353  0.00  0.00    +0.000 A 
ATOM     21  C   UNL     1       7.541   4.551  13.132  0.00  0.00    +0.000 A 
ATOM     22  C   UNL     1       6.661   3.846  12.309  0.00  0.00    +0.000 A 
ATOM     23  C   UNL     1       5.348   3.632  12.706  0.00  0.00    +0.000 A 
ATOM     24  F   UNL     1       4.525   2.945  11.900  0.00  0.00    +0.000 F 
ATOM     25  C   UNL     1       4.857   4.119  13.918  0.00  0.00    +0.000 A 
ATOM     26  C   UNL     1       5.724   4.843  14.762  0.00  0.00    +0.000 A 
ATOM     27  H   UNL     1       8.649   6.016  15.317  0.00  0.00    +0.000 HD
ENDBRANCH  15  16
ENDBRANCH   1  15
TORSDOF 6
ENDMDL
