MODEL 1
REMARK VINA RESULT:      -8.6      0.000      0.000
REMARK  Name = 
REMARK  7 active torsions:
REMARK  status: ('A' for Active; 'I' for Inactive)
REMARK    1  A    between atoms: C_2  and  O_3
REMARK    2  A    between atoms: C_2  and  C_4
REMARK    3  A    between atoms: C_4  and  C_5
REMARK    4  A    between atoms: C_5  and  N_6
REMARK    5  A    between atoms: C_16  and  O_17
REMARK    6  A    between atoms: O_17  and  C_18
REMARK    7  A    between atoms: C_18  and  C_19
REMARK                            x       y       z     vdW  Elec       q    Type
REMARK                         _______ _______ _______ _____ _____    ______ ____
ROOT
ATOM      1  N   UNL     1       4.229   3.460  17.736  0.00  0.00    +0.000 NA
ATOM      2  C   UNL     1       4.972   4.209  18.753  0.00  0.00    +0.000 C 
ATOM      3  C   UNL     1       4.521   5.659  18.905  0.00  0.00    +0.000 C 
ATOM      4  C   UNL     1       3.005   5.804  19.109  0.00  0.00    +0.000 C 
ATOM      5  C   UNL     1       2.183   4.856  18.211  0.00  0.00    +0.000 C 
ATOM      6  C   UNL     1       2.797   3.461  18.074  0.00  0.00    +0.000 C 
ATOM      7  C   UNL     1       2.605   5.660  20.601  0.00  0.00    +0.000 C 
ATOM      8  O   UNL     1       1.531   6.591  20.890  0.00  0.00    +0.000 OA
ATOM      9  C   UNL     1       1.696   7.570  19.948  0.00  0.00    +0.000 A 
ATOM     10  C   UNL     1       1.049   8.788  19.985  0.00  0.00    +0.000 A 
ATOM     11  C   UNL     1       1.257   9.672  18.924  0.00  0.00    +0.000 A 
ATOM     12  C   UNL     1       2.142   9.336  17.885  0.00  0.00    +0.000 A 
ATOM     13  C   UNL     1       2.782   8.094  17.866  0.00  0.00    +0.000 A 
ATOM     14  C   UNL     1       2.540   7.214  18.910  0.00  0.00    +0.000 A 
ENDROOT
BRANCH   1  15
ATOM     15  C   UNL     1       4.477   3.892  16.344  0.00  0.00    +0.000 C 
BRANCH  15  16
ATOM     16  C   UNL     1       5.973   3.993  16.029  0.00  0.00    +0.000 C 
BRANCH  16  18
ATOM     17  O   UNL     1       5.645   6.319  15.406  0.00  0.00    +0.000 OA
ATOM     18  C   UNL     1       6.321   5.303  15.366  0.00  0.00    +0.000 C 
BRANCH  18  19
ATOM     19  O   UNL     1       7.508   5.250  14.716  0.00  0.00    +0.000 OA
ATOM     20  H   UNL     1       7.440   4.930  13.796  0.00  0.00    +0.000 HD
ENDBRANCH  18  19
ENDBRANCH  16  18
ENDBRANCH  15  16
ENDBRANCH   1  15
BRANCH  11  21
ATOM     21  O   UNL     1       0.638  10.891  18.790  0.00  0.00    +0.000 OA
BRANCH  21  22
ATOM     22  C   UNL     1      -0.598  11.007  19.503  0.00  0.00    +0.000 C 
BRANCH  22  23
ATOM     23  C   UNL     1      -1.789  11.090  18.573  0.00  0.00    +0.000 A 
ATOM     24  C   UNL     1      -1.763  10.505  17.295  0.00  0.00    +0.000 A 
ATOM     25  C   UNL     1      -2.883  10.569  16.462  0.00  0.00    +0.000 A 
ATOM     26 CL   UNL     1      -2.834   9.838  14.906  0.00  0.00    +0.000 Cl
ATOM     27  C   UNL     1      -4.041  11.215  16.886  0.00  0.00    +0.000 A 
ATOM     28  C   UNL     1      -4.078  11.808  18.146  0.00  0.00    +0.000 A 
ATOM     29  C   UNL     1      -2.961  11.749  18.985  0.00  0.00    +0.000 A 
ATOM     30 CL   UNL     1      -3.081  12.503  20.536  0.00  0.00    +0.000 Cl
ENDBRANCH  22  23
ENDBRANCH  21  22
ENDBRANCH  11  21
TORSDOF 7
ENDMDL
MODEL 2
REMARK VINA RESULT:      -8.2      2.494      2.933
REMARK  Name = 
REMARK  7 active torsions:
REMARK  status: ('A' for Active; 'I' for Inactive)
REMARK    1  A    between atoms: C_2  and  O_3
REMARK    2  A    between atoms: C_2  and  C_4
REMARK    3  A    between atoms: C_4  and  C_5
REMARK    4  A    between atoms: C_5  and  N_6
REMARK    5  A    between atoms: C_16  and  O_17
REMARK    6  A    between atoms: O_17  and  C_18
REMARK    7  A    between atoms: C_18  and  C_19
REMARK                            x       y       z     vdW  Elec       q    Type
REMARK                         _______ _______ _______ _____ _____    ______ ____
ROOT
ATOM      1  N   UNL     1       4.436   3.557  17.460  0.00  0.00    +0.000 NA
ATOM      2  C   UNL     1       5.097   4.149  18.626  0.00  0.00    +0.000 C 
ATOM      3  C   UNL     1       4.558   5.523  19.012  0.00  0.00    +0.000 C 
ATOM      4  C   UNL     1       3.030   5.551  19.171  0.00  0.00    +0.000 C 
ATOM      5  C   UNL     1       2.296   4.738  18.083  0.00  0.00    +0.000 C 
ATOM      6  C   UNL     1       2.996   3.424  17.729  0.00  0.00    +0.000 C 
ATOM      7  C   UNL     1       2.588   5.122  20.595  0.00  0.00    +0.000 C 
ATOM      8  O   UNL     1       1.452   5.929  20.996  0.00  0.00    +0.000 OA
ATOM      9  C   UNL     1       1.592   7.069  20.250  0.00  0.00    +0.000 A 
ATOM     10  C   UNL     1       0.874   8.226  20.474  0.00  0.00    +0.000 A 
ATOM     11  C   UNL     1       1.066   9.294  19.596  0.00  0.00    +0.000 A 
ATOM     12  C   UNL     1       2.005   9.196  18.554  0.00  0.00    +0.000 A 
ATOM     13  C   UNL     1       2.717   8.012  18.345  0.00  0.00    +0.000 A 
ATOM     14  C   UNL     1       2.491   6.948  19.204  0.00  0.00    +0.000 A 
ENDROOT
BRANCH   1  15
ATOM     15  C   UNL     1       4.706   4.243  16.179  0.00  0.00    +0.000 C 
BRANCH  15  16
ATOM     16  C   UNL     1       5.970   3.712  15.495  0.00  0.00    +0.000 C 
BRANCH  16  18
ATOM     17  O   UNL     1       7.420   5.628  15.130  0.00  0.00    +0.000 OA
ATOM     18  C   UNL     1       7.162   4.604  15.743  0.00  0.00    +0.000 C 
BRANCH  18  19
ATOM     19  O   UNL     1       7.936   4.156  16.759  0.00  0.00    +0.000 OA
ATOM     20  H   UNL     1       7.572   4.345  17.646  0.00  0.00    +0.000 HD
ENDBRANCH  18  19
ENDBRANCH  16  18
ENDBRANCH  15  16
ENDBRANCH   1  15
BRANCH  11  21
ATOM     21  O   UNL     1       0.382  10.484  19.653  0.00  0.00    +0.000 OA
BRANCH  21  22
ATOM     22  C   UNL     1       0.681  11.284  20.801  0.00  0.00    +0.000 C 
BRANCH  22  23
ATOM     23  C   UNL     1      -0.568  11.816  21.469  0.00  0.00    +0.000 A 
ATOM     24  C   UNL     1      -1.279  12.903  20.933  0.00  0.00    +0.000 A 
ATOM     25  C   UNL     1      -2.446  13.362  21.549  0.00  0.00    +0.000 A 
ATOM     26 CL   UNL     1      -3.307  14.687  20.871  0.00  0.00    +0.000 Cl
ATOM     27  C   UNL     1      -2.920  12.749  22.706  0.00  0.00    +0.000 A 
ATOM     28  C   UNL     1      -2.220  11.676  23.254  0.00  0.00    +0.000 A 
ATOM     29  C   UNL     1      -1.052  11.211  22.643  0.00  0.00    +0.000 A 
ATOM     30 CL   UNL     1      -0.239   9.874  23.378  0.00  0.00    +0.000 Cl
ENDBRANCH  22  23
ENDBRANCH  21  22
ENDBRANCH  11  21
TORSDOF 7
ENDMDL
MODEL 3
REMARK VINA RESULT:      -8.1      0.925      1.067
REMARK  Name = 
REMARK  7 active torsions:
REMARK  status: ('A' for Active; 'I' for Inactive)
REMARK    1  A    between atoms: C_2  and  O_3
REMARK    2  A    between atoms: C_2  and  C_4
REMARK    3  A    between atoms: C_4  and  C_5
REMARK    4  A    between atoms: C_5  and  N_6
REMARK    5  A    between atoms: C_16  and  O_17
REMARK    6  A    between atoms: O_17  and  C_18
REMARK    7  A    between atoms: C_18  and  C_19
REMARK                            x       y       z     vdW  Elec       q    Type
REMARK                         _______ _______ _______ _____ _____    ______ ____
ROOT
ATOM      1  N   UNL     1       4.763   3.692  17.012  0.00  0.00    +0.000 NA
ATOM      2  C   UNL     1       5.481   4.394  18.080  0.00  0.00    +0.000 C 
ATOM      3  C   UNL     1       4.909   5.769  18.409  0.00  0.00    +0.000 C 
ATOM      4  C   UNL     1       3.397   5.747  18.683  0.00  0.00    +0.000 C 
ATOM      5  C   UNL     1       2.623   4.828  17.714  0.00  0.00    +0.000 C 
ATOM      6  C   UNL     1       3.354   3.521  17.399  0.00  0.00    +0.000 C 
ATOM      7  C   UNL     1       3.081   5.406  20.163  0.00  0.00    +0.000 C 
ATOM      8  O   UNL     1       1.943   6.194  20.592  0.00  0.00    +0.000 OA
ATOM      9  C   UNL     1       1.975   7.281  19.761  0.00  0.00    +0.000 A 
ATOM     10  C   UNL     1       1.223   8.421  19.957  0.00  0.00    +0.000 A 
ATOM     11  C   UNL     1       1.301   9.429  18.995  0.00  0.00    +0.000 A 
ATOM     12  C   UNL     1       2.164   9.294  17.894  0.00  0.00    +0.000 A 
ATOM     13  C   UNL     1       2.912   8.127  17.713  0.00  0.00    +0.000 A 
ATOM     14  C   UNL     1       2.799   7.120  18.659  0.00  0.00    +0.000 A 
ENDROOT
BRANCH   1  15
ATOM     15  C   UNL     1       4.906   4.293  15.669  0.00  0.00    +0.000 C 
BRANCH  15  16
ATOM     16  C   UNL     1       6.362   4.294  15.190  0.00  0.00    +0.000 C 
BRANCH  16  18
ATOM     17  O   UNL     1       7.396   4.700  13.028  0.00  0.00    +0.000 OA
ATOM     18  C   UNL     1       6.458   4.275  13.684  0.00  0.00    +0.000 C 
BRANCH  18  19
ATOM     19  O   UNL     1       5.374   3.703  13.108  0.00  0.00    +0.000 OA
ATOM     20  H   UNL     1       4.972   2.991  13.643  0.00  0.00    +0.000 HD
ENDBRANCH  18  19
ENDBRANCH  16  18
ENDBRANCH  15  16
ENDBRANCH   1  15
BRANCH  11  21
ATOM     21  O   UNL     1       0.570  10.592  19.021  0.00  0.00    +0.000 OA
BRANCH  21  22
ATOM     22  C   UNL     1      -0.752  10.446  19.550  0.00  0.00    +0.000 C 
BRANCH  22  23
ATOM     23  C   UNL     1      -1.818  10.711  18.509  0.00  0.00    +0.000 A 
ATOM     24  C   UNL     1      -1.788  10.084  17.253  0.00  0.00    +0.000 A 
ATOM     25  C   UNL     1      -2.796  10.321  16.315  0.00  0.00    +0.000 A 
ATOM     26 CL   UNL     1      -2.745   9.535  14.787  0.00  0.00    +0.000 Cl
ATOM     27  C   UNL     1      -3.846  11.186  16.613  0.00  0.00    +0.000 A 
ATOM     28  C   UNL     1      -3.884  11.823  17.852  0.00  0.00    +0.000 A 
ATOM     29  C   UNL     1      -2.878  11.591  18.795  0.00  0.00    +0.000 A 
ATOM     30 CL   UNL     1      -2.994  12.413  20.311  0.00  0.00    +0.000 Cl
ENDBRANCH  22  23
ENDBRANCH  21  22
ENDBRANCH  11  21
TORSDOF 7
ENDMDL
MODEL 4
REMARK VINA RESULT:      -8.0      1.364      2.527
REMARK  Name = 
REMARK  7 active torsions:
REMARK  status: ('A' for Active; 'I' for Inactive)
REMARK    1  A    between atoms: C_2  and  O_3
REMARK    2  A    between atoms: C_2  and  C_4
REMARK    3  A    between atoms: C_4  and  C_5
REMARK    4  A    between atoms: C_5  and  N_6
REMARK    5  A    between atoms: C_16  and  O_17
REMARK    6  A    between atoms: O_17  and  C_18
REMARK    7  A    between atoms: C_18  and  C_19
REMARK                            x       y       z     vdW  Elec       q    Type
REMARK                         _______ _______ _______ _____ _____    ______ ____
ROOT
ATOM      1  N   UNL     1       5.637   3.991  16.196  0.00  0.00    +0.000 NA
ATOM      2  C   UNL     1       6.355   4.733  17.237  0.00  0.00    +0.000 C 
ATOM      3  C   UNL     1       5.579   5.920  17.798  0.00  0.00    +0.000 C 
ATOM      4  C   UNL     1       4.160   5.553  18.261  0.00  0.00    +0.000 C 
ATOM      5  C   UNL     1       3.446   4.579  17.300  0.00  0.00    +0.000 C 
ATOM      6  C   UNL     1       4.365   3.490  16.740  0.00  0.00    +0.000 C 
ATOM      7  C   UNL     1       4.147   5.022  19.719  0.00  0.00    +0.000 C 
ATOM      8  O   UNL     1       2.953   5.508  20.383  0.00  0.00    +0.000 OA
ATOM      9  C   UNL     1       2.642   6.646  19.688  0.00  0.00    +0.000 A 
ATOM     10  C   UNL     1       1.718   7.578  20.114  0.00  0.00    +0.000 A 
ATOM     11  C   UNL     1       1.448   8.660  19.276  0.00  0.00    +0.000 A 
ATOM     12  C   UNL     1       2.143   8.810  18.063  0.00  0.00    +0.000 A 
ATOM     13  C   UNL     1       3.071   7.850  17.650  0.00  0.00    +0.000 A 
ATOM     14  C   UNL     1       3.305   6.763  18.478  0.00  0.00    +0.000 A 
ENDROOT
BRANCH   1  15
ATOM     15  C   UNL     1       5.453   4.725  14.927  0.00  0.00    +0.000 C 
BRANCH  15  16
ATOM     16  C   UNL     1       6.074   3.986  13.737  0.00  0.00    +0.000 C 
BRANCH  16  18
ATOM     17  O   UNL     1       7.589   4.729  11.987  0.00  0.00    +0.000 OA
ATOM     18  C   UNL     1       7.249   4.737  13.160  0.00  0.00    +0.000 C 
BRANCH  18  19
ATOM     19  O   UNL     1       7.904   5.463  14.096  0.00  0.00    +0.000 OA
ATOM     20  H   UNL     1       7.921   6.422  13.912  0.00  0.00    +0.000 HD
ENDBRANCH  18  19
ENDBRANCH  16  18
ENDBRANCH  15  16
ENDBRANCH   1  15
BRANCH  11  21
ATOM     21  O   UNL     1       0.512   9.633  19.533  0.00  0.00    +0.000 OA
BRANCH  21  22
ATOM     22  C   UNL     1      -0.073  10.214  18.363  0.00  0.00    +0.000 C 
BRANCH  22  23
ATOM     23  C   UNL     1      -1.389  10.898  18.662  0.00  0.00    +0.000 A 
ATOM     24  C   UNL     1      -1.548  11.721  19.790  0.00  0.00    +0.000 A 
ATOM     25  C   UNL     1      -2.764  12.366  20.034  0.00  0.00    +0.000 A 
ATOM     26 CL   UNL     1      -2.934  13.377  21.414  0.00  0.00    +0.000 Cl
ATOM     27  C   UNL     1      -3.836  12.201  19.161  0.00  0.00    +0.000 A 
ATOM     28  C   UNL     1      -3.696  11.380  18.044  0.00  0.00    +0.000 A 
ATOM     29  C   UNL     1      -2.483  10.731  17.794  0.00  0.00    +0.000 A 
ATOM     30 CL   UNL     1      -2.382   9.733  16.387  0.00  0.00    +0.000 Cl
ENDBRANCH  22  23
ENDBRANCH  21  22
ENDBRANCH  11  21
TORSDOF 7
ENDMDL
MODEL 5
REMARK VINA RESULT:      -7.9      1.214      1.652
REMARK  Name = 
REMARK  7 active torsions:
REMARK  status: ('A' for Active; 'I' for Inactive)
REMARK    1  A    between atoms: C_2  and  O_3
REMARK    2  A    between atoms: C_2  and  C_4
REMARK    3  A    between atoms: C_4  and  C_5
REMARK    4  A    between atoms: C_5  and  N_6
REMARK    5  A    between atoms: C_16  and  O_17
REMARK    6  A    between atoms: O_17  and  C_18
REMARK    7  A    between atoms: C_18  and  C_19
REMARK                            x       y       z     vdW  Elec       q    Type
REMARK                         _______ _______ _______ _____ _____    ______ ____
ROOT
ATOM      1  N   UNL     1       4.304   3.549  17.656  0.00  0.00    +0.000 NA
ATOM      2  C   UNL     1       5.001   4.269  18.725  0.00  0.00    +0.000 C 
ATOM      3  C   UNL     1       4.541   5.713  18.900  0.00  0.00    +0.000 C 
ATOM      4  C   UNL     1       3.017   5.851  19.044  0.00  0.00    +0.000 C 
ATOM      5  C   UNL     1       2.236   4.928  18.085  0.00  0.00    +0.000 C 
ATOM      6  C   UNL     1       2.859   3.538  17.933  0.00  0.00    +0.000 C 
ATOM      7  C   UNL     1       2.556   5.664  20.513  0.00  0.00    +0.000 C 
ATOM      8  O   UNL     1       1.469   6.584  20.783  0.00  0.00    +0.000 OA
ATOM      9  C   UNL     1       1.671   7.591  19.877  0.00  0.00    +0.000 A 
ATOM     10  C   UNL     1       1.020   8.807  19.922  0.00  0.00    +0.000 A 
ATOM     11  C   UNL     1       1.270   9.720  18.897  0.00  0.00    +0.000 A 
ATOM     12  C   UNL     1       2.199   9.416  17.887  0.00  0.00    +0.000 A 
ATOM     13  C   UNL     1       2.842   8.176  17.859  0.00  0.00    +0.000 A 
ATOM     14  C   UNL     1       2.558   7.266  18.866  0.00  0.00    +0.000 A 
ENDROOT
BRANCH   1  15
ATOM     15  C   UNL     1       4.609   4.021  16.289  0.00  0.00    +0.000 C 
BRANCH  15  16
ATOM     16  C   UNL     1       6.106   3.942  15.972  0.00  0.00    +0.000 C 
BRANCH  16  18
ATOM     17  O   UNL     1       7.596   5.307  14.621  0.00  0.00    +0.000 OA
ATOM     18  C   UNL     1       6.616   5.216  15.342  0.00  0.00    +0.000 C 
BRANCH  18  19
ATOM     19  O   UNL     1       5.843   6.284  15.649  0.00  0.00    +0.000 OA
ATOM     20  H   UNL     1       4.895   6.071  15.747  0.00  0.00    +0.000 HD
ENDBRANCH  18  19
ENDBRANCH  16  18
ENDBRANCH  15  16
ENDBRANCH   1  15
BRANCH  11  21
ATOM     21  O   UNL     1       0.654  10.942  18.772  0.00  0.00    +0.000 OA
BRANCH  21  22
ATOM     22  C   UNL     1       0.251  11.530  20.013  0.00  0.00    +0.000 C 
BRANCH  22  23
ATOM     23  C   UNL     1      -1.218  11.890  20.025  0.00  0.00    +0.000 A 
ATOM     24  C   UNL     1      -2.044  11.635  18.918  0.00  0.00    +0.000 A 
ATOM     25  C   UNL     1      -3.405  11.950  18.958  0.00  0.00    +0.000 A 
ATOM     26 CL   UNL     1      -4.401  11.621  17.596  0.00  0.00    +0.000 Cl
ATOM     27  C   UNL     1      -3.962  12.523  20.099  0.00  0.00    +0.000 A 
ATOM     28  C   UNL     1      -3.153  12.790  21.201  0.00  0.00    +0.000 A 
ATOM     29  C   UNL     1      -1.791  12.478  21.168  0.00  0.00    +0.000 A 
ATOM     30 CL   UNL     1      -0.851  12.834  22.574  0.00  0.00    +0.000 Cl
ENDBRANCH  22  23
ENDBRANCH  21  22
ENDBRANCH  11  21
TORSDOF 7
ENDMDL
MODEL 6
REMARK VINA RESULT:      -7.9      1.535      1.857
REMARK  Name = 
REMARK  7 active torsions:
REMARK  status: ('A' for Active; 'I' for Inactive)
REMARK    1  A    between atoms: C_2  and  O_3
REMARK    2  A    between atoms: C_2  and  C_4
REMARK    3  A    between atoms: C_4  and  C_5
REMARK    4  A    between atoms: C_5  and  N_6
REMARK    5  A    between atoms: C_16  and  O_17
REMARK    6  A    between atoms: O_17  and  C_18
REMARK    7  A    between atoms: C_18  and  C_19
REMARK                            x       y       z     vdW  Elec       q    Type
REMARK                         _______ _______ _______ _____ _____    ______ ____
ROOT
ATOM      1  N   UNL     1       5.783   3.994  16.135  0.00  0.00    +0.000 NA
ATOM      2  C   UNL     1       6.468   4.647  17.255  0.00  0.00    +0.000 C 
ATOM      3  C   UNL     1       5.683   5.801  17.871  0.00  0.00    +0.000 C 
ATOM      4  C   UNL     1       4.243   5.420  18.251  0.00  0.00    +0.000 C 
ATOM      5  C   UNL     1       3.557   4.530  17.193  0.00  0.00    +0.000 C 
ATOM      6  C   UNL     1       4.486   3.472  16.591  0.00  0.00    +0.000 C 
ATOM      7  C   UNL     1       4.166   4.785  19.664  0.00  0.00    +0.000 C 
ATOM      8  O   UNL     1       2.952   5.238  20.315  0.00  0.00    +0.000 OA
ATOM      9  C   UNL     1       2.682   6.428  19.694  0.00  0.00    +0.000 A 
ATOM     10  C   UNL     1       1.752   7.338  20.151  0.00  0.00    +0.000 A 
ATOM     11  C   UNL     1       1.527   8.483  19.385  0.00  0.00    +0.000 A 
ATOM     12  C   UNL     1       2.272   8.711  18.214  0.00  0.00    +0.000 A 
ATOM     13  C   UNL     1       3.205   7.771  17.768  0.00  0.00    +0.000 A 
ATOM     14  C   UNL     1       3.393   6.623  18.522  0.00  0.00    +0.000 A 
ENDROOT
BRANCH   1  15
ATOM     15  C   UNL     1       5.658   4.822  14.917  0.00  0.00    +0.000 C 
BRANCH  15  16
ATOM     16  C   UNL     1       6.844   4.630  13.965  0.00  0.00    +0.000 C 
BRANCH  16  18
ATOM     17  O   UNL     1       5.442   3.245  12.542  0.00  0.00    +0.000 OA
ATOM     18  C   UNL     1       6.432   3.945  12.685  0.00  0.00    +0.000 C 
BRANCH  18  19
ATOM     19  O   UNL     1       7.285   4.206  11.666  0.00  0.00    +0.000 OA
ATOM     20  H   UNL     1       7.646   3.406  11.238  0.00  0.00    +0.000 HD
ENDBRANCH  18  19
ENDBRANCH  16  18
ENDBRANCH  15  16
ENDBRANCH   1  15
BRANCH  11  21
ATOM     21  O   UNL     1       0.593   9.447  19.677  0.00  0.00    +0.000 OA
BRANCH  21  22
ATOM     22  C   UNL     1       0.473  10.473  18.685  0.00  0.00    +0.000 C 
BRANCH  22  23
ATOM     23  C   UNL     1      -0.964  10.700  18.268  0.00  0.00    +0.000 A 
ATOM     24  C   UNL     1      -1.473  10.165  17.073  0.00  0.00    +0.000 A 
ATOM     25  C   UNL     1      -2.810  10.363  16.719  0.00  0.00    +0.000 A 
ATOM     26 CL   UNL     1      -3.417   9.690  15.257  0.00  0.00    +0.000 Cl
ATOM     27  C   UNL     1      -3.658  11.095  17.546  0.00  0.00    +0.000 A 
ATOM     28  C   UNL     1      -3.164  11.640  18.730  0.00  0.00    +0.000 A 
ATOM     29  C   UNL     1      -1.827  11.447  19.090  0.00  0.00    +0.000 A 
ATOM     30 CL   UNL     1      -1.286  12.148  20.574  0.00  0.00    +0.000 Cl
ENDBRANCH  22  23
ENDBRANCH  21  22
ENDBRANCH  11  21
TORSDOF 7
ENDMDL
MODEL 7
REMARK VINA RESULT:      -7.8      0.755      2.030
REMARK  Name = 
REMARK  7 active torsions:
REMARK  status: ('A' for Active; 'I' for Inactive)
REMARK    1  A    between atoms: C_2  and  O_3
REMARK    2  A    between atoms: C_2  and  C_4
REMARK    3  A    between atoms: C_4  and  C_5
REMARK    4  A    between atoms: C_5  and  N_6
REMARK    5  A    between atoms: C_16  and  O_17
REMARK    6  A    between atoms: O_17  and  C_18
REMARK    7  A    between atoms: C_18  and  C_19
REMARK                            x       y       z     vdW  Elec       q    Type
REMARK                         _______ _______ _______ _____ _____    ______ ____
ROOT
ATOM      1  N   UNL     1       4.264   3.330  17.650  0.00  0.00    +0.000 NA
ATOM      2  C   UNL     1       5.002   4.046  18.694  0.00  0.00    +0.000 C 
ATOM      3  C   UNL     1       4.516   5.474  18.926  0.00  0.00    +0.000 C 
ATOM      4  C   UNL     1       3.000   5.568  19.158  0.00  0.00    +0.000 C 
ATOM      5  C   UNL     1       2.189   4.645  18.224  0.00  0.00    +0.000 C 
ATOM      6  C   UNL     1       2.838   3.275  18.007  0.00  0.00    +0.000 C 
ATOM      7  C   UNL     1       2.626   5.338  20.646  0.00  0.00    +0.000 C 
ATOM      8  O   UNL     1       1.533   6.224  20.997  0.00  0.00    +0.000 OA
ATOM      9  C   UNL     1       1.658   7.254  20.103  0.00  0.00    +0.000 A 
ATOM     10  C   UNL     1       0.981   8.451  20.211  0.00  0.00    +0.000 A 
ATOM     11  C   UNL     1       1.149   9.392  19.194  0.00  0.00    +0.000 A 
ATOM     12  C   UNL     1       2.027   9.133  18.127  0.00  0.00    +0.000 A 
ATOM     13  C   UNL     1       2.699   7.911  18.036  0.00  0.00    +0.000 A 
ATOM     14  C   UNL     1       2.496   6.973  19.037  0.00  0.00    +0.000 A 
ENDROOT
BRANCH   1  15
ATOM     15  C   UNL     1       4.479   3.838  16.279  0.00  0.00    +0.000 C 
BRANCH  15  16
ATOM     16  C   UNL     1       5.961   4.095  15.985  0.00  0.00    +0.000 C 
BRANCH  16  18
ATOM     17  O   UNL     1       5.614   6.445  15.469  0.00  0.00    +0.000 OA
ATOM     18  C   UNL     1       6.169   5.384  15.228  0.00  0.00    +0.000 C 
BRANCH  18  19
ATOM     19  O   UNL     1       7.076   5.254  14.232  0.00  0.00    +0.000 OA
ATOM     20  H   UNL     1       6.701   4.910  13.398  0.00  0.00    +0.000 HD
ENDBRANCH  18  19
ENDBRANCH  16  18
ENDBRANCH  15  16
ENDBRANCH   1  15
BRANCH  11  21
ATOM     21  O   UNL     1       0.497  10.599  19.131  0.00  0.00    +0.000 OA
BRANCH  21  22
ATOM     22  C   UNL     1      -0.457  10.700  18.068  0.00  0.00    +0.000 C 
BRANCH  22  23
ATOM     23  C   UNL     1      -1.794  11.223  18.547  0.00  0.00    +0.000 A 
ATOM     24  C   UNL     1      -1.892  12.065  19.667  0.00  0.00    +0.000 A 
ATOM     25  C   UNL     1      -3.133  12.560  20.078  0.00  0.00    +0.000 A 
ATOM     26 CL   UNL     1      -3.231  13.598  21.445  0.00  0.00    +0.000 Cl
ATOM     27  C   UNL     1      -4.291  12.223  19.382  0.00  0.00    +0.000 A 
ATOM     28  C   UNL     1      -4.210  11.381  18.274  0.00  0.00    +0.000 A 
ATOM     29  C   UNL     1      -2.972  10.882  17.858  0.00  0.00    +0.000 A 
ATOM     30 CL   UNL     1      -2.948   9.846  16.475  0.00  0.00    +0.000 Cl
ENDBRANCH  22  23
ENDBRANCH  21  22
ENDBRANCH  11  21
TORSDOF 7
ENDMDL
MODEL 8
REMARK VINA RESULT:      -7.8      2.321      3.003
REMARK  Name = 
REMARK  7 active torsions:
REMARK  status: ('A' for Active; 'I' for Inactive)
REMARK    1  A    between atoms: C_2  and  O_3
REMARK    2  A    between atoms: C_2  and  C_4
REMARK    3  A    between atoms: C_4  and  C_5
REMARK    4  A    between atoms: C_5  and  N_6
REMARK    5  A    between atoms: C_16  and  O_17
REMARK    6  A    between atoms: O_17  and  C_18
REMARK    7  A    between atoms: C_18  and  C_19
REMARK                            x       y       z     vdW  Elec       q    Type
REMARK                         _______ _______ _______ _____ _____    ______ ____
ROOT
ATOM      1  N   UNL     1       4.656   3.608  17.007  0.00  0.00    +0.000 NA
ATOM      2  C   UNL     1       5.380   4.195  18.139  0.00  0.00    +0.000 C 
ATOM      3  C   UNL     1       4.810   5.528  18.613  0.00  0.00    +0.000 C 
ATOM      4  C   UNL     1       3.299   5.477  18.891  0.00  0.00    +0.000 C 
ATOM      5  C   UNL     1       2.520   4.664  17.835  0.00  0.00    +0.000 C 
ATOM      6  C   UNL     1       3.249   3.397  17.382  0.00  0.00    +0.000 C 
ATOM      7  C   UNL     1       2.991   4.983  20.328  0.00  0.00    +0.000 C 
ATOM      8  O   UNL     1       1.855   5.721  20.844  0.00  0.00    +0.000 OA
ATOM      9  C   UNL     1       1.883   6.889  20.130  0.00  0.00    +0.000 A 
ATOM     10  C   UNL     1       1.133   8.002  20.449  0.00  0.00    +0.000 A 
ATOM     11  C   UNL     1       1.206   9.105  19.597  0.00  0.00    +0.000 A 
ATOM     12  C   UNL     1       2.063   9.086  18.483  0.00  0.00    +0.000 A 
ATOM     13  C   UNL     1       2.810   7.945  18.178  0.00  0.00    +0.000 A 
ATOM     14  C   UNL     1       2.701   6.845  19.014  0.00  0.00    +0.000 A 
ENDROOT
BRANCH   1  15
ATOM     15  C   UNL     1       4.793   4.346  15.734  0.00  0.00    +0.000 C 
BRANCH  15  16
ATOM     16  C   UNL     1       6.047   3.932  14.958  0.00  0.00    +0.000 C 
BRANCH  16  18
ATOM     17  O   UNL     1       7.463   5.719  15.800  0.00  0.00    +0.000 OA
ATOM     18  C   UNL     1       7.047   5.058  14.862  0.00  0.00    +0.000 C 
BRANCH  18  19
ATOM     19  O   UNL     1       7.470   5.262  13.591  0.00  0.00    +0.000 OA
ATOM     20  H   UNL     1       7.494   4.451  13.049  0.00  0.00    +0.000 HD
ENDBRANCH  18  19
ENDBRANCH  16  18
ENDBRANCH  15  16
ENDBRANCH   1  15
BRANCH  11  21
ATOM     21  O   UNL     1       0.474  10.258  19.748  0.00  0.00    +0.000 OA
BRANCH  21  22
ATOM     22  C   UNL     1       0.297  11.007  18.541  0.00  0.00    +0.000 C 
BRANCH  22  23
ATOM     23  C   UNL     1       0.712  12.454  18.700  0.00  0.00    +0.000 A 
ATOM     24  C   UNL     1       1.988  12.897  18.315  0.00  0.00    +0.000 A 
ATOM     25  C   UNL     1       2.342  14.243  18.445  0.00  0.00    +0.000 A 
ATOM     26 CL   UNL     1       3.906  14.766  17.957  0.00  0.00    +0.000 Cl
ATOM     27  C   UNL     1       1.434  15.164  18.960  0.00  0.00    +0.000 A 
ATOM     28  C   UNL     1       0.168  14.737  19.355  0.00  0.00    +0.000 A 
ATOM     29  C   UNL     1      -0.193  13.392  19.229  0.00  0.00    +0.000 A 
ATOM     30 CL   UNL     1      -1.781  12.937  19.736  0.00  0.00    +0.000 Cl
ENDBRANCH  22  23
ENDBRANCH  21  22
ENDBRANCH  11  21
TORSDOF 7
ENDMDL
MODEL 9
REMARK VINA RESULT:      -7.7      2.478      3.424
REMARK  Name = 
REMARK  7 active torsions:
REMARK  status: ('A' for Active; 'I' for Inactive)
REMARK    1  A    between atoms: C_2  and  O_3
REMARK    2  A    between atoms: C_2  and  C_4
REMARK    3  A    between atoms: C_4  and  C_5
REMARK    4  A    between atoms: C_5  and  N_6
REMARK    5  A    between atoms: C_16  and  O_17
REMARK    6  A    between atoms: O_17  and  C_18
REMARK    7  A    between atoms: C_18  and  C_19
REMARK                            x       y       z     vdW  Elec       q    Type
REMARK                         _______ _______ _______ _____ _____    ______ ____
ROOT
ATOM      1  N   UNL     1       6.219   3.882  15.705  0.00  0.00    +0.000 NA
ATOM      2  C   UNL     1       6.931   4.585  16.777  0.00  0.00    +0.000 C 
ATOM      3  C   UNL     1       6.125   5.709  17.421  0.00  0.00    +0.000 C 
ATOM      4  C   UNL     1       4.728   5.267  17.883  0.00  0.00    +0.000 C 
ATOM      5  C   UNL     1       4.030   4.328  16.876  0.00  0.00    +0.000 C 
ATOM      6  C   UNL     1       4.975   3.307  16.238  0.00  0.00    +0.000 C 
ATOM      7  C   UNL     1       4.757   4.650  19.306  0.00  0.00    +0.000 C 
ATOM      8  O   UNL     1       3.560   5.055  20.016  0.00  0.00    +0.000 OA
ATOM      9  C   UNL     1       3.200   6.221  19.396  0.00  0.00    +0.000 A 
ATOM     10  C   UNL     1       2.253   7.094  19.891  0.00  0.00    +0.000 A 
ATOM     11  C   UNL     1       1.932   8.215  19.124  0.00  0.00    +0.000 A 
ATOM     12  C   UNL     1       2.602   8.460  17.912  0.00  0.00    +0.000 A 
ATOM     13  C   UNL     1       3.554   7.558  17.428  0.00  0.00    +0.000 A 
ATOM     14  C   UNL     1       3.837   6.432  18.185  0.00  0.00    +0.000 A 
ENDROOT
BRANCH   1  15
ATOM     15  C   UNL     1       5.990   4.684  14.485  0.00  0.00    +0.000 C 
BRANCH  15  16
ATOM     16  C   UNL     1       5.398   3.847  13.347  0.00  0.00    +0.000 C 
BRANCH  16  18
ATOM     17  O   UNL     1       7.261   4.262  11.842  0.00  0.00    +0.000 OA
ATOM     18  C   UNL     1       6.437   3.493  12.310  0.00  0.00    +0.000 C 
BRANCH  18  19
ATOM     19  O   UNL     1       6.378   2.189  11.950  0.00  0.00    +0.000 OA
ATOM     20  H   UNL     1       5.562   1.736  12.237  0.00  0.00    +0.000 HD
ENDBRANCH  18  19
ENDBRANCH  16  18
ENDBRANCH  15  16
ENDBRANCH   1  15
BRANCH  11  21
ATOM     21  O   UNL     1       0.970   9.138  19.454  0.00  0.00    +0.000 OA
BRANCH  21  22
ATOM     22  C   UNL     1       0.450   9.872  18.340  0.00  0.00    +0.000 C 
BRANCH  22  23
ATOM     23  C   UNL     1       0.552  11.368  18.544  0.00  0.00    +0.000 A 
ATOM     24  C   UNL     1       1.791  11.997  18.746  0.00  0.00    +0.000 A 
ATOM     25  C   UNL     1       1.867  13.384  18.905  0.00  0.00    +0.000 A 
ATOM     26 CL   UNL     1       3.396  14.136  19.140  0.00  0.00    +0.000 Cl
ATOM     27  C   UNL     1       0.713  14.161  18.867  0.00  0.00    +0.000 A 
ATOM     28  C   UNL     1      -0.525  13.550  18.678  0.00  0.00    +0.000 A 
ATOM     29  C   UNL     1      -0.608  12.163  18.518  0.00  0.00    +0.000 A 
ATOM     30 CL   UNL     1      -2.176  11.475  18.284  0.00  0.00    +0.000 Cl
ENDBRANCH  22  23
ENDBRANCH  21  22
ENDBRANCH  11  21
TORSDOF 7
ENDMDL
