MODEL 1
REMARK VINA RESULT:      -8.1      0.000      0.000
REMARK  Name = 
REMARK  7 active torsions:
REMARK  status: ('A' for Active; 'I' for Inactive)
REMARK    1  A    between atoms: C_1  and  C_2
REMARK    2  A    between atoms: C_2  and  C_3
REMARK    3  A    between atoms: C_2  and  C_4
REMARK    4  A    between atoms: C_7  and  C_8
REMARK    5  A    between atoms: C_8  and  S_9
REMARK    6  A    between atoms: S_9  and  C_12
REMARK    7  A    between atoms: N_16  and  C_17
REMARK                            x       y       z     vdW  Elec       q    Type
REMARK                         _______ _______ _______ _____ _____    ______ ____
ROOT
ATOM      1  C   UNL     1       3.374   7.561  17.778  0.00  0.00    +0.000 C 
ENDROOT
BRANCH   1   5
ATOM      2  C   UNL     1       2.728   4.200  19.376  0.00  0.00    +0.000 C 
ATOM      3  C   UNL     1       1.605   4.391  18.636  0.00  0.00    +0.000 C 
ATOM      4  C   UNL     1       1.822   5.458  17.587  0.00  0.00    +0.000 C 
ATOM      5  C   UNL     1       2.998   6.142  18.280  0.00  0.00    +0.000 C 
ATOM      6  C   UNL     1       3.899   4.896  18.637  0.00  0.00    +0.000 C 
ATOM      7  C   UNL     1       5.183   5.231  19.330  0.00  0.00    +0.000 C 
ATOM      8  C   UNL     1       6.388   5.131  18.729  0.00  0.00    +0.000 C 
ATOM      9  C   UNL     1       6.536   4.656  17.312  0.00  0.00    +0.000 C 
ATOM     10  O   UNL     1       7.613   4.761  16.733  0.00  0.00    +0.000 OA
ATOM     11  C   UNL     1       5.342   4.043  16.630  0.00  0.00    +0.000 C 
ATOM     12  C   UNL     1       4.255   3.739  17.630  0.00  0.00    +0.000 C 
BRANCH   2  14
ATOM     13  C   UNL     1       3.697   2.278  20.718  0.00  0.00    +0.000 C 
ATOM     14  C   UNL     1       2.809   3.528  20.721  0.00  0.00    +0.000 C 
ATOM     15  C   UNL     1       1.395   3.120  21.162  0.00  0.00    +0.000 C 
ENDBRANCH   2  14
ENDBRANCH   1   5
BRANCH   1  16
ATOM     16  S   UNL     1       1.988   8.711  17.968  0.00  0.00    +0.000 S 
ATOM     17  O   UNL     1       2.430  10.049  17.615  0.00  0.00    +0.000 OA
ATOM     18  O   UNL     1       0.826   8.107  17.357  0.00  0.00    +0.000 OA
BRANCH  16  19
ATOM     19  C   UNL     1       1.548   8.858  19.654  0.00  0.00    +0.000 A 
ATOM     20  N   UNL     1       1.748   7.940  20.582  0.00  0.00    +0.000 NA
ATOM     21  N   UNL     1       1.147   8.402  21.719  0.00  0.00    +0.000 NA
ATOM     22  N   UNL     1       0.563   9.570  21.507  0.00  0.00    +0.000 NA
ATOM     23  N   UNL     1       0.859   9.924  20.226  0.00  0.00    +0.000 N 
BRANCH  23  24
ATOM     24  C   UNL     1       0.429  11.190  19.726  0.00  0.00    +0.000 A 
ATOM     25  C   UNL     1       1.122  12.374  19.998  0.00  0.00    +0.000 A 
ATOM     26  C   UNL     1       0.743  13.579  19.402  0.00  0.00    +0.000 A 
ATOM     27  C   UNL     1      -0.353  13.626  18.547  0.00  0.00    +0.000 A 
ATOM     28  C   UNL     1      -1.100  12.472  18.326  0.00  0.00    +0.000 A 
ATOM     29  C   UNL     1      -0.725  11.261  18.923  0.00  0.00    +0.000 A 
ENDBRANCH  23  24
ENDBRANCH  16  19
ENDBRANCH   1  16
TORSDOF 5
ENDMDL
MODEL 2
REMARK VINA RESULT:      -8.0      4.863      8.221
REMARK  Name = 
REMARK  7 active torsions:
REMARK  status: ('A' for Active; 'I' for Inactive)
REMARK    1  A    between atoms: C_1  and  C_2
REMARK    2  A    between atoms: C_2  and  C_3
REMARK    3  A    between atoms: C_2  and  C_4
REMARK    4  A    between atoms: C_7  and  C_8
REMARK    5  A    between atoms: C_8  and  S_9
REMARK    6  A    between atoms: S_9  and  C_12
REMARK    7  A    between atoms: N_16  and  C_17
REMARK                            x       y       z     vdW  Elec       q    Type
REMARK                         _______ _______ _______ _____ _____    ______ ____
ROOT
ATOM      1  C   UNL     1       6.048   5.680  17.113  0.00  0.00    +0.000 C 
ENDROOT
BRANCH   1   5
ATOM      2  C   UNL     1       2.879   6.611  18.943  0.00  0.00    +0.000 C 
ATOM      3  C   UNL     1       2.856   7.452  17.876  0.00  0.00    +0.000 C 
ATOM      4  C   UNL     1       3.792   6.973  16.789  0.00  0.00    +0.000 C 
ATOM      5  C   UNL     1       4.677   6.116  17.691  0.00  0.00    +0.000 C 
ATOM      6  C   UNL     1       3.586   5.307  18.496  0.00  0.00    +0.000 C 
ATOM      7  C   UNL     1       4.138   4.328  19.485  0.00  0.00    +0.000 C 
ATOM      8  C   UNL     1       4.082   2.992  19.304  0.00  0.00    +0.000 C 
ATOM      9  C   UNL     1       3.442   2.378  18.091  0.00  0.00    +0.000 C 
ATOM     10  O   UNL     1       3.578   1.180  17.859  0.00  0.00    +0.000 OA
ATOM     11  C   UNL     1       2.628   3.259  17.183  0.00  0.00    +0.000 C 
ATOM     12  C   UNL     1       2.349   4.588  17.840  0.00  0.00    +0.000 C 
BRANCH   2  14
ATOM     13  C   UNL     1       1.485   5.838  20.917  0.00  0.00    +0.000 C 
ATOM     14  C   UNL     1       2.401   6.923  20.337  0.00  0.00    +0.000 C 
ATOM     15  C   UNL     1       1.630   8.252  20.316  0.00  0.00    +0.000 C 
ENDBRANCH   2  14
ENDBRANCH   1   5
BRANCH   1  16
ATOM     16  S   UNL     1       5.838   4.603  15.673  0.00  0.00    +0.000 S 
ATOM     17  O   UNL     1       6.145   3.235  16.056  0.00  0.00    +0.000 OA
ATOM     18  O   UNL     1       4.589   4.953  15.037  0.00  0.00    +0.000 OA
BRANCH  16  19
ATOM     19  C   UNL     1       7.043   4.967  14.460  0.00  0.00    +0.000 A 
ATOM     20  N   UNL     1       8.077   5.773  14.624  0.00  0.00    +0.000 NA
ATOM     21  N   UNL     1       8.685   5.875  13.404  0.00  0.00    +0.000 NA
ATOM     22  N   UNL     1       8.038   5.171  12.490  0.00  0.00    +0.000 NA
ATOM     23  N   UNL     1       7.032   4.524  13.140  0.00  0.00    +0.000 N 
BRANCH  23  24
ATOM     24  C   UNL     1       6.199   3.612  12.423  0.00  0.00    +0.000 A 
ATOM     25  C   UNL     1       4.866   3.905  12.116  0.00  0.00    +0.000 A 
ATOM     26  C   UNL     1       4.110   3.044  11.316  0.00  0.00    +0.000 A 
ATOM     27  C   UNL     1       4.665   1.863  10.836  0.00  0.00    +0.000 A 
ATOM     28  C   UNL     1       5.965   1.519  11.197  0.00  0.00    +0.000 A 
ATOM     29  C   UNL     1       6.726   2.379  12.000  0.00  0.00    +0.000 A 
ENDBRANCH  23  24
ENDBRANCH  16  19
ENDBRANCH   1  16
TORSDOF 5
ENDMDL
MODEL 3
REMARK VINA RESULT:      -8.0      0.593      1.065
REMARK  Name = 
REMARK  7 active torsions:
REMARK  status: ('A' for Active; 'I' for Inactive)
REMARK    1  A    between atoms: C_1  and  C_2
REMARK    2  A    between atoms: C_2  and  C_3
REMARK    3  A    between atoms: C_2  and  C_4
REMARK    4  A    between atoms: C_7  and  C_8
REMARK    5  A    between atoms: C_8  and  S_9
REMARK    6  A    between atoms: S_9  and  C_12
REMARK    7  A    between atoms: N_16  and  C_17
REMARK                            x       y       z     vdW  Elec       q    Type
REMARK                         _______ _______ _______ _____ _____    ______ ____
ROOT
ATOM      1  C   UNL     1       3.339   7.575  17.683  0.00  0.00    +0.000 C 
ENDROOT
BRANCH   1   5
ATOM      2  C   UNL     1       2.728   4.235  19.337  0.00  0.00    +0.000 C 
ATOM      3  C   UNL     1       1.602   4.403  18.595  0.00  0.00    +0.000 C 
ATOM      4  C   UNL     1       1.808   5.453  17.528  0.00  0.00    +0.000 C 
ATOM      5  C   UNL     1       2.978   6.161  18.208  0.00  0.00    +0.000 C 
ATOM      6  C   UNL     1       3.891   4.930  18.585  0.00  0.00    +0.000 C 
ATOM      7  C   UNL     1       5.173   5.290  19.270  0.00  0.00    +0.000 C 
ATOM      8  C   UNL     1       6.377   5.191  18.670  0.00  0.00    +0.000 C 
ATOM      9  C   UNL     1       6.529   4.694  17.260  0.00  0.00    +0.000 C 
ATOM     10  O   UNL     1       7.604   4.799  16.679  0.00  0.00    +0.000 OA
ATOM     11  C   UNL     1       5.340   4.058  16.591  0.00  0.00    +0.000 C 
ATOM     12  C   UNL     1       4.257   3.760  17.598  0.00  0.00    +0.000 C 
BRANCH   2  14
ATOM     13  C   UNL     1       3.661   2.306  20.695  0.00  0.00    +0.000 C 
ATOM     14  C   UNL     1       2.817   3.587  20.694  0.00  0.00    +0.000 C 
ATOM     15  C   UNL     1       1.400   3.237  21.175  0.00  0.00    +0.000 C 
ENDBRANCH   2  14
ENDBRANCH   1   5
BRANCH   1  16
ATOM     16  S   UNL     1       2.023   8.764  18.047  0.00  0.00    +0.000 S 
ATOM     17  O   UNL     1       2.569  10.110  17.982  0.00  0.00    +0.000 OA
ATOM     18  O   UNL     1       0.856   8.379  17.286  0.00  0.00    +0.000 OA
BRANCH  16  19
ATOM     19  C   UNL     1       1.510   8.611  19.711  0.00  0.00    +0.000 A 
ATOM     20  N   UNL     1       1.875   7.651  20.541  0.00  0.00    +0.000 NA
ATOM     21  N   UNL     1       1.153   7.835  21.687  0.00  0.00    +0.000 NA
ATOM     22  N   UNL     1       0.337   8.871  21.574  0.00  0.00    +0.000 NA
ATOM     23  N   UNL     1       0.589   9.431  20.359  0.00  0.00    +0.000 N 
BRANCH  23  24
ATOM     24  C   UNL     1      -0.089  10.629  19.979  0.00  0.00    +0.000 A 
ATOM     25  C   UNL     1      -1.181  10.622  19.106  0.00  0.00    +0.000 A 
ATOM     26  C   UNL     1      -1.894  11.795  18.842  0.00  0.00    +0.000 A 
ATOM     27  C   UNL     1      -1.508  12.997  19.424  0.00  0.00    +0.000 A 
ATOM     28  C   UNL     1      -0.377  13.035  20.234  0.00  0.00    +0.000 A 
ATOM     29  C   UNL     1       0.343  11.863  20.499  0.00  0.00    +0.000 A 
ENDBRANCH  23  24
ENDBRANCH  16  19
ENDBRANCH   1  16
TORSDOF 5
ENDMDL
MODEL 4
REMARK VINA RESULT:      -7.7      5.656      7.441
REMARK  Name = 
REMARK  7 active torsions:
REMARK  status: ('A' for Active; 'I' for Inactive)
REMARK    1  A    between atoms: C_1  and  C_2
REMARK    2  A    between atoms: C_2  and  C_3
REMARK    3  A    between atoms: C_2  and  C_4
REMARK    4  A    between atoms: C_7  and  C_8
REMARK    5  A    between atoms: C_8  and  S_9
REMARK    6  A    between atoms: S_9  and  C_12
REMARK    7  A    between atoms: N_16  and  C_17
REMARK                            x       y       z     vdW  Elec       q    Type
REMARK                         _______ _______ _______ _____ _____    ______ ____
ROOT
ATOM      1  C   UNL     1       1.837  12.397  19.997  0.00  0.00    +0.000 C 
ENDROOT
BRANCH   1   5
ATOM      2  C   UNL     1      -0.954  10.204  18.703  0.00  0.00    +0.000 C 
ATOM      3  C   UNL     1       0.047   9.955  17.818  0.00  0.00    +0.000 C 
ATOM      4  C   UNL     1       1.384  10.389  18.375  0.00  0.00    +0.000 C 
ATOM      5  C   UNL     1       0.830  11.382  19.394  0.00  0.00    +0.000 C 
ATOM      6  C   UNL     1      -0.299  10.512  20.074  0.00  0.00    +0.000 C 
ATOM      7  C   UNL     1      -1.047  11.206  21.169  0.00  0.00    +0.000 C 
ATOM      8  C   UNL     1      -0.900  10.888  22.472  0.00  0.00    +0.000 C 
ATOM      9  C   UNL     1       0.023   9.794  22.928  0.00  0.00    +0.000 C 
ATOM     10  O   UNL     1       0.283   9.659  24.120  0.00  0.00    +0.000 OA
ATOM     11  C   UNL     1       0.606   8.868  21.894  0.00  0.00    +0.000 C 
ATOM     12  C   UNL     1      -0.101   9.033  20.572  0.00  0.00    +0.000 C 
BRANCH   2  14
ATOM     13  C   UNL     1      -2.788   9.641  17.045  0.00  0.00    +0.000 C 
ATOM     14  C   UNL     1      -2.425  10.274  18.394  0.00  0.00    +0.000 C 
ATOM     15  C   UNL     1      -2.863  11.747  18.373  0.00  0.00    +0.000 C 
ENDBRANCH   2  14
ENDBRANCH   1   5
BRANCH   1  16
ATOM     16  S   UNL     1       1.737  13.996  19.154  0.00  0.00    +0.000 S 
ATOM     17  O   UNL     1       2.938  14.188  18.358  0.00  0.00    +0.000 OA
ATOM     18  O   UNL     1       0.417  14.111  18.578  0.00  0.00    +0.000 OA
BRANCH  16  19
ATOM     19  C   UNL     1       1.804  15.301  20.315  0.00  0.00    +0.000 A 
ATOM     20  N   UNL     1       2.198  15.191  21.571  0.00  0.00    +0.000 NA
ATOM     21  N   UNL     1       1.976  16.406  22.154  0.00  0.00    +0.000 NA
ATOM     22  N   UNL     1       1.435  17.254  21.295  0.00  0.00    +0.000 NA
ATOM     23  N   UNL     1       1.378  16.609  20.098  0.00  0.00    +0.000 N 
BRANCH  23  24
ATOM     24  C   UNL     1       0.909  17.303  18.942  0.00  0.00    +0.000 A 
ATOM     25  C   UNL     1       1.755  17.638  17.879  0.00  0.00    +0.000 A 
ATOM     26  C   UNL     1       1.246  18.215  16.713  0.00  0.00    +0.000 A 
ATOM     27  C   UNL     1      -0.112  18.495  16.603  0.00  0.00    +0.000 A 
ATOM     28  C   UNL     1      -0.955  18.239  17.681  0.00  0.00    +0.000 A 
ATOM     29  C   UNL     1      -0.448  17.662  18.853  0.00  0.00    +0.000 A 
ENDBRANCH  23  24
ENDBRANCH  16  19
ENDBRANCH   1  16
TORSDOF 5
ENDMDL
MODEL 5
REMARK VINA RESULT:      -7.5      1.865      2.385
REMARK  Name = 
REMARK  7 active torsions:
REMARK  status: ('A' for Active; 'I' for Inactive)
REMARK    1  A    between atoms: C_1  and  C_2
REMARK    2  A    between atoms: C_2  and  C_3
REMARK    3  A    between atoms: C_2  and  C_4
REMARK    4  A    between atoms: C_7  and  C_8
REMARK    5  A    between atoms: C_8  and  S_9
REMARK    6  A    between atoms: S_9  and  C_12
REMARK    7  A    between atoms: N_16  and  C_17
REMARK                            x       y       z     vdW  Elec       q    Type
REMARK                         _______ _______ _______ _____ _____    ______ ____
ROOT
ATOM      1  C   UNL     1       2.908   7.999  17.836  0.00  0.00    +0.000 C 
ENDROOT
BRANCH   1   5
ATOM      2  C   UNL     1       3.046   4.415  19.021  0.00  0.00    +0.000 C 
ATOM      3  C   UNL     1       1.809   4.490  18.463  0.00  0.00    +0.000 C 
ATOM      4  C   UNL     1       1.697   5.692  17.553  0.00  0.00    +0.000 C 
ATOM      5  C   UNL     1       2.840   6.488  18.179  0.00  0.00    +0.000 C 
ATOM      6  C   UNL     1       3.969   5.387  18.243  0.00  0.00    +0.000 C 
ATOM      7  C   UNL     1       5.272   5.861  18.808  0.00  0.00    +0.000 C 
ATOM      8  C   UNL     1       6.375   6.043  18.052  0.00  0.00    +0.000 C 
ATOM      9  C   UNL     1       6.385   5.769  16.575  0.00  0.00    +0.000 C 
ATOM     10  O   UNL     1       7.334   6.127  15.884  0.00  0.00    +0.000 OA
ATOM     11  C   UNL     1       5.216   5.039  15.971  0.00  0.00    +0.000 C 
ATOM     12  C   UNL     1       4.350   4.435  17.049  0.00  0.00    +0.000 C 
BRANCH   2  14
ATOM     13  C   UNL     1       4.034   2.250  19.898  0.00  0.00    +0.000 C 
ATOM     14  C   UNL     1       3.430   3.618  20.239  0.00  0.00    +0.000 C 
ATOM     15  C   UNL     1       2.181   3.396  21.106  0.00  0.00    +0.000 C 
ENDBRANCH   2  14
ENDBRANCH   1   5
BRANCH   1  16
ATOM     16  S   UNL     1       1.512   8.898  18.558  0.00  0.00    +0.000 S 
ATOM     17  O   UNL     1       0.359   8.764  17.682  0.00  0.00    +0.000 OA
ATOM     18  O   UNL     1       1.445   8.558  19.961  0.00  0.00    +0.000 OA
BRANCH  16  19
ATOM     19  C   UNL     1       1.829  10.617  18.556  0.00  0.00    +0.000 A 
ATOM     20  N   UNL     1       2.682  11.239  17.762  0.00  0.00    +0.000 NA
ATOM     21  N   UNL     1       2.715  12.541  18.174  0.00  0.00    +0.000 NA
ATOM     22  N   UNL     1       1.921  12.731  19.215  0.00  0.00    +0.000 NA
ATOM     23  N   UNL     1       1.288  11.547  19.440  0.00  0.00    +0.000 N 
BRANCH  23  24
ATOM     24  C   UNL     1       0.296  11.459  20.463  0.00  0.00    +0.000 A 
ATOM     25  C   UNL     1       0.456  10.645  21.589  0.00  0.00    +0.000 A 
ATOM     26  C   UNL     1      -0.478  10.667  22.628  0.00  0.00    +0.000 A 
ATOM     27  C   UNL     1      -1.604  11.480  22.542  0.00  0.00    +0.000 A 
ATOM     28  C   UNL     1      -1.817  12.237  21.395  0.00  0.00    +0.000 A 
ATOM     29  C   UNL     1      -0.884  12.217  20.350  0.00  0.00    +0.000 A 
ENDBRANCH  23  24
ENDBRANCH  16  19
ENDBRANCH   1  16
TORSDOF 5
ENDMDL
MODEL 6
REMARK VINA RESULT:      -7.5      2.864      7.876
REMARK  Name = 
REMARK  7 active torsions:
REMARK  status: ('A' for Active; 'I' for Inactive)
REMARK    1  A    between atoms: C_1  and  C_2
REMARK    2  A    between atoms: C_2  and  C_3
REMARK    3  A    between atoms: C_2  and  C_4
REMARK    4  A    between atoms: C_7  and  C_8
REMARK    5  A    between atoms: C_8  and  S_9
REMARK    6  A    between atoms: S_9  and  C_12
REMARK    7  A    between atoms: N_16  and  C_17
REMARK                            x       y       z     vdW  Elec       q    Type
REMARK                         _______ _______ _______ _____ _____    ______ ____
ROOT
ATOM      1  C   UNL     1       1.972  10.005  18.113  0.00  0.00    +0.000 C 
ENDROOT
BRANCH   1   5
ATOM      2  C   UNL     1      -0.106  11.739  20.748  0.00  0.00    +0.000 C 
ATOM      3  C   UNL     1       1.028  12.489  20.732  0.00  0.00    +0.000 C 
ATOM      4  C   UNL     1       1.821  12.244  19.468  0.00  0.00    +0.000 C 
ATOM      5  C   UNL     1       1.216  10.879  19.148  0.00  0.00    +0.000 C 
ATOM      6  C   UNL     1      -0.323  11.190  19.315  0.00  0.00    +0.000 C 
ATOM      7  C   UNL     1      -1.228  10.028  19.043  0.00  0.00    +0.000 C 
ATOM      8  C   UNL     1      -2.010   9.950  17.946  0.00  0.00    +0.000 C 
ATOM      9  C   UNL     1      -2.045  11.039  16.912  0.00  0.00    +0.000 C 
ATOM     10  O   UNL     1      -2.611  10.855  15.838  0.00  0.00    +0.000 OA
ATOM     11  C   UNL     1      -1.385  12.353  17.228  0.00  0.00    +0.000 C 
ATOM     12  C   UNL     1      -1.049  12.441  18.696  0.00  0.00    +0.000 C 
BRANCH   2  14
ATOM     13  C   UNL     1      -1.091  12.591  22.925  0.00  0.00    +0.000 C 
ATOM     14  C   UNL     1      -0.944  11.412  21.955  0.00  0.00    +0.000 C 
ATOM     15  C   UNL     1      -0.298  10.239  22.709  0.00  0.00    +0.000 C 
ENDBRANCH   2  14
ENDBRANCH   1   5
BRANCH   1  16
ATOM     16  S   UNL     1       1.771   8.243  18.474  0.00  0.00    +0.000 S 
ATOM     17  O   UNL     1       1.720   8.056  19.914  0.00  0.00    +0.000 OA
ATOM     18  O   UNL     1       0.739   7.729  17.603  0.00  0.00    +0.000 OA
BRANCH  16  19
ATOM     19  C   UNL     1       3.202   7.358  17.998  0.00  0.00    +0.000 A 
ATOM     20  N   UNL     1       4.238   7.864  17.353  0.00  0.00    +0.000 NA
ATOM     21  N   UNL     1       5.067   6.815  17.070  0.00  0.00    +0.000 NA
ATOM     22  N   UNL     1       4.556   5.674  17.505  0.00  0.00    +0.000 NA
ATOM     23  N   UNL     1       3.407   5.990  18.162  0.00  0.00    +0.000 N 
BRANCH  23  24
ATOM     24  C   UNL     1       2.663   4.963  18.819  0.00  0.00    +0.000 A 
ATOM     25  C   UNL     1       2.690   4.796  20.207  0.00  0.00    +0.000 A 
ATOM     26  C   UNL     1       1.864   3.856  20.831  0.00  0.00    +0.000 A 
ATOM     27  C   UNL     1       1.021   3.050  20.074  0.00  0.00    +0.000 A 
ATOM     28  C   UNL     1       1.040   3.151  18.686  0.00  0.00    +0.000 A 
ATOM     29  C   UNL     1       1.867   4.090  18.056  0.00  0.00    +0.000 A 
ENDBRANCH  23  24
ENDBRANCH  16  19
ENDBRANCH   1  16
TORSDOF 5
ENDMDL
MODEL 7
REMARK VINA RESULT:      -7.3      0.765      1.202
REMARK  Name = 
REMARK  7 active torsions:
REMARK  status: ('A' for Active; 'I' for Inactive)
REMARK    1  A    between atoms: C_1  and  C_2
REMARK    2  A    between atoms: C_2  and  C_3
REMARK    3  A    between atoms: C_2  and  C_4
REMARK    4  A    between atoms: C_7  and  C_8
REMARK    5  A    between atoms: C_8  and  S_9
REMARK    6  A    between atoms: S_9  and  C_12
REMARK    7  A    between atoms: N_16  and  C_17
REMARK                            x       y       z     vdW  Elec       q    Type
REMARK                         _______ _______ _______ _____ _____    ______ ____
ROOT
ATOM      1  C   UNL     1       3.488   7.327  18.112  0.00  0.00    +0.000 C 
ENDROOT
BRANCH   1   5
ATOM      2  C   UNL     1       2.754   3.727  18.988  0.00  0.00    +0.000 C 
ATOM      3  C   UNL     1       1.618   4.107  18.346  0.00  0.00    +0.000 C 
ATOM      4  C   UNL     1       1.848   5.364  17.538  0.00  0.00    +0.000 C 
ATOM      5  C   UNL     1       3.070   5.847  18.316  0.00  0.00    +0.000 C 
ATOM      6  C   UNL     1       3.930   4.524  18.369  0.00  0.00    +0.000 C 
ATOM      7  C   UNL     1       5.246   4.663  19.070  0.00  0.00    +0.000 C 
ATOM      8  C   UNL     1       6.427   4.652  18.419  0.00  0.00    +0.000 C 
ATOM      9  C   UNL     1       6.516   4.484  16.929  0.00  0.00    +0.000 C 
ATOM     10  O   UNL     1       7.580   4.673  16.346  0.00  0.00    +0.000 OA
ATOM     11  C   UNL     1       5.280   4.069  16.177  0.00  0.00    +0.000 C 
ATOM     12  C   UNL     1       4.210   3.596  17.130  0.00  0.00    +0.000 C 
BRANCH   2  14
ATOM     13  C   UNL     1       2.488   3.444  21.495  0.00  0.00    +0.000 C 
ATOM     14  C   UNL     1       2.846   2.783  20.158  0.00  0.00    +0.000 C 
ATOM     15  C   UNL     1       4.281   2.241  20.251  0.00  0.00    +0.000 C 
ENDBRANCH   2  14
ENDBRANCH   1   5
BRANCH   1  16
ATOM     16  S   UNL     1       2.041   8.414  18.062  0.00  0.00    +0.000 S 
ATOM     17  O   UNL     1       2.456   9.736  17.624  0.00  0.00    +0.000 OA
ATOM     18  O   UNL     1       0.971   7.697  17.407  0.00  0.00    +0.000 OA
BRANCH  16  19
ATOM     19  C   UNL     1       1.433   8.692  19.677  0.00  0.00    +0.000 A 
ATOM     20  N   UNL     1       1.883   8.112  20.776  0.00  0.00    +0.000 NA
ATOM     21  N   UNL     1       1.056   8.510  21.789  0.00  0.00    +0.000 NA
ATOM     22  N   UNL     1       0.097   9.301  21.337  0.00  0.00    +0.000 NA
ATOM     23  N   UNL     1       0.347   9.496  20.013  0.00  0.00    +0.000 N 
BRANCH  23  24
ATOM     24  C   UNL     1      -0.482  10.382  19.260  0.00  0.00    +0.000 A 
ATOM     25  C   UNL     1      -0.251  11.760  19.213  0.00  0.00    +0.000 A 
ATOM     26  C   UNL     1      -1.009  12.585  18.378  0.00  0.00    +0.000 A 
ATOM     27  C   UNL     1      -2.028  12.049  17.599  0.00  0.00    +0.000 A 
ATOM     28  C   UNL     1      -2.321  10.692  17.691  0.00  0.00    +0.000 A 
ATOM     29  C   UNL     1      -1.565   9.861  18.529  0.00  0.00    +0.000 A 
ENDBRANCH  23  24
ENDBRANCH  16  19
ENDBRANCH   1  16
TORSDOF 5
ENDMDL
MODEL 8
REMARK VINA RESULT:      -7.2      2.811      7.997
REMARK  Name = 
REMARK  7 active torsions:
REMARK  status: ('A' for Active; 'I' for Inactive)
REMARK    1  A    between atoms: C_1  and  C_2
REMARK    2  A    between atoms: C_2  and  C_3
REMARK    3  A    between atoms: C_2  and  C_4
REMARK    4  A    between atoms: C_7  and  C_8
REMARK    5  A    between atoms: C_8  and  S_9
REMARK    6  A    between atoms: S_9  and  C_12
REMARK    7  A    between atoms: N_16  and  C_17
REMARK                            x       y       z     vdW  Elec       q    Type
REMARK                         _______ _______ _______ _____ _____    ______ ____
ROOT
ATOM      1  C   UNL     1       0.993   8.643  17.769  0.00  0.00    +0.000 C 
ENDROOT
BRANCH   1   5
ATOM      2  C   UNL     1      -0.231  11.223  20.241  0.00  0.00    +0.000 C 
ATOM      3  C   UNL     1       1.046  11.626  20.008  0.00  0.00    +0.000 C 
ATOM      4  C   UNL     1       1.588  11.003  18.742  0.00  0.00    +0.000 C 
ATOM      5  C   UNL     1       0.618   9.824  18.703  0.00  0.00    +0.000 C 
ATOM      6  C   UNL     1      -0.757  10.561  18.942  0.00  0.00    +0.000 C 
ATOM      7  C   UNL     1      -1.955   9.664  18.942  0.00  0.00    +0.000 C 
ATOM      8  C   UNL     1      -2.860   9.651  17.941  0.00  0.00    +0.000 C 
ATOM      9  C   UNL     1      -2.743  10.555  16.747  0.00  0.00    +0.000 C 
ATOM     10  O   UNL     1      -3.465  10.385  15.769  0.00  0.00    +0.000 OA
ATOM     11  C   UNL     1      -1.734  11.670  16.786  0.00  0.00    +0.000 C 
ATOM     12  C   UNL     1      -1.209  11.865  18.186  0.00  0.00    +0.000 C 
BRANCH   2  14
ATOM     13  C   UNL     1      -0.766  12.643  22.274  0.00  0.00    +0.000 C 
ATOM     14  C   UNL     1      -0.969  11.306  21.551  0.00  0.00    +0.000 C 
ATOM     15  C   UNL     1      -0.483  10.175  22.471  0.00  0.00    +0.000 C 
ENDBRANCH   2  14
ENDBRANCH   1   5
BRANCH   1  16
ATOM     16  S   UNL     1       2.422   7.732  18.406  0.00  0.00    +0.000 S 
ATOM     17  O   UNL     1       3.625   8.224  17.757  0.00  0.00    +0.000 OA
ATOM     18  O   UNL     1       2.303   7.674  19.845  0.00  0.00    +0.000 OA
BRANCH  16  19
ATOM     19  C   UNL     1       2.345   6.057  17.910  0.00  0.00    +0.000 A 
ATOM     20  N   UNL     1       1.238   5.381  17.659  0.00  0.00    +0.000 NA
ATOM     21  N   UNL     1       1.619   4.088  17.431  0.00  0.00    +0.000 NA
ATOM     22  N   UNL     1       2.928   3.948  17.558  0.00  0.00    +0.000 NA
ATOM     23  N   UNL     1       3.430   5.192  17.790  0.00  0.00    +0.000 N 
BRANCH  23  24
ATOM     24  C   UNL     1       4.842   5.377  17.893  0.00  0.00    +0.000 A 
ATOM     25  C   UNL     1       5.636   5.679  16.782  0.00  0.00    +0.000 A 
ATOM     26  C   UNL     1       6.996   5.967  16.931  0.00  0.00    +0.000 A 
ATOM     27  C   UNL     1       7.588   5.926  18.189  0.00  0.00    +0.000 A 
ATOM     28  C   UNL     1       6.829   5.551  19.293  0.00  0.00    +0.000 A 
ATOM     29  C   UNL     1       5.466   5.261  19.148  0.00  0.00    +0.000 A 
ENDBRANCH  23  24
ENDBRANCH  16  19
ENDBRANCH   1  16
TORSDOF 5
ENDMDL
MODEL 9
REMARK VINA RESULT:      -7.2      6.070     10.695
REMARK  Name = 
REMARK  7 active torsions:
REMARK  status: ('A' for Active; 'I' for Inactive)
REMARK    1  A    between atoms: C_1  and  C_2
REMARK    2  A    between atoms: C_2  and  C_3
REMARK    3  A    between atoms: C_2  and  C_4
REMARK    4  A    between atoms: C_7  and  C_8
REMARK    5  A    between atoms: C_8  and  S_9
REMARK    6  A    between atoms: S_9  and  C_12
REMARK    7  A    between atoms: N_16  and  C_17
REMARK                            x       y       z     vdW  Elec       q    Type
REMARK                         _______ _______ _______ _____ _____    ______ ____
ROOT
ATOM      1  C   UNL     1      -2.513  12.581  21.711  0.00  0.00    +0.000 C 
ENDROOT
BRANCH   1   5
ATOM      2  C   UNL     1      -3.101  15.601  23.902  0.00  0.00    +0.000 C 
ATOM      3  C   UNL     1      -2.819  16.166  22.698  0.00  0.00    +0.000 C 
ATOM      4  C   UNL     1      -2.968  15.159  21.580  0.00  0.00    +0.000 C 
ATOM      5  C   UNL     1      -2.810  13.914  22.449  0.00  0.00    +0.000 C 
ATOM      6  C   UNL     1      -3.803  14.247  23.630  0.00  0.00    +0.000 C 
ATOM      7  C   UNL     1      -3.904  13.184  24.680  0.00  0.00    +0.000 C 
ATOM      8  C   UNL     1      -4.993  12.401  24.828  0.00  0.00    +0.000 C 
ATOM      9  C   UNL     1      -6.205  12.547  23.953  0.00  0.00    +0.000 C 
ATOM     10  O   UNL     1      -7.094  11.701  23.980  0.00  0.00    +0.000 OA
ATOM     11  C   UNL     1      -6.306  13.752  23.058  0.00  0.00    +0.000 C 
ATOM     12  C   UNL     1      -5.269  14.782  23.433  0.00  0.00    +0.000 C 
BRANCH   2  14
ATOM     13  C   UNL     1      -2.790  17.667  25.340  0.00  0.00    +0.000 C 
ATOM     14  C   UNL     1      -2.713  16.138  25.254  0.00  0.00    +0.000 C 
ATOM     15  C   UNL     1      -1.273  15.704  25.570  0.00  0.00    +0.000 C 
ENDBRANCH   2  14
ENDBRANCH   1   5
BRANCH   1  16
ATOM     16  S   UNL     1      -0.874  11.945  22.143  0.00  0.00    +0.000 S 
ATOM     17  O   UNL     1      -0.467  12.511  23.418  0.00  0.00    +0.000 OA
ATOM     18  O   UNL     1      -0.878  10.519  21.910  0.00  0.00    +0.000 OA
BRANCH  16  19
ATOM     19  C   UNL     1       0.326  12.551  21.026  0.00  0.00    +0.000 A 
ATOM     20  N   UNL     1       1.365  13.300  21.348  0.00  0.00    +0.000 NA
ATOM     21  N   UNL     1       1.967  13.653  20.172  0.00  0.00    +0.000 NA
ATOM     22  N   UNL     1       1.311  13.159  19.135  0.00  0.00    +0.000 NA
ATOM     23  N   UNL     1       0.305  12.394  19.642  0.00  0.00    +0.000 N 
BRANCH  23  24
ATOM     24  C   UNL     1      -0.538  11.657  18.756  0.00  0.00    +0.000 A 
ATOM     25  C   UNL     1      -0.207  10.374  18.307  0.00  0.00    +0.000 A 
ATOM     26  C   UNL     1      -1.103   9.633  17.533  0.00  0.00    +0.000 A 
ATOM     27  C   UNL     1      -2.332  10.174  17.171  0.00  0.00    +0.000 A 
ATOM     28  C   UNL     1      -2.645  11.477  17.545  0.00  0.00    +0.000 A 
ATOM     29  C   UNL     1      -1.748  12.225  18.319  0.00  0.00    +0.000 A 
ENDBRANCH  23  24
ENDBRANCH  16  19
ENDBRANCH   1  16
TORSDOF 5
ENDMDL
