MODEL 1
REMARK VINA RESULT:      -9.0      0.000      0.000
REMARK  Name = 
REMARK  6 active torsions:
REMARK  status: ('A' for Active; 'I' for Inactive)
REMARK    1  A    between atoms: C_2  and  C_4
REMARK    2  A    between atoms: C_6  and  C_7
REMARK    3  A    between atoms: C_15  and  C_16
REMARK    4  A    between atoms: C_19  and  S_20
REMARK    5  A    between atoms: S_20  and  N_21
REMARK    6  A    between atoms: C_26  and  N_27
REMARK                            x       y       z     vdW  Elec       q    Type
REMARK                         _______ _______ _______ _____ _____    ______ ____
ROOT
ATOM      1  C   UNL     1       3.843   3.847  19.390  0.00  0.00    +0.000 A 
ATOM      2  C   UNL     1       4.575   3.751  18.193  0.00  0.00    +0.000 A 
ATOM      3  C   UNL     1       4.583   4.780  17.251  0.00  0.00    +0.000 A 
ATOM      4  C   UNL     1       3.796   5.906  17.550  0.00  0.00    +0.000 A 
ATOM      5  C   UNL     1       3.056   6.067  18.751  0.00  0.00    +0.000 A 
ATOM      6  C   UNL     1       3.118   5.023  19.713  0.00  0.00    +0.000 A 
ENDROOT
BRANCH   3   7
ATOM      7  C   UNL     1       5.389   4.708  16.008  0.00  0.00    +0.000 A 
ATOM      8  C   UNL     1       4.922   4.030  14.862  0.00  0.00    +0.000 A 
ATOM      9  C   UNL     1       5.669   3.985  13.681  0.00  0.00    +0.000 A 
ATOM     10  C   UNL     1       6.907   4.607  13.634  0.00  0.00    +0.000 A 
ATOM     11  F   UNL     1       7.631   4.558  12.509  0.00  0.00    +0.000 F 
ATOM     12  C   UNL     1       7.408   5.272  14.741  0.00  0.00    +0.000 A 
ATOM     13  C   UNL     1       6.650   5.329  15.917  0.00  0.00    +0.000 A 
ENDBRANCH   3   7
BRANCH   5  14
ATOM     14  C   UNL     1       2.342   7.365  18.950  0.00  0.00    +0.000 A 
ATOM     15  C   UNL     1       1.790   7.755  20.183  0.00  0.00    +0.000 A 
ATOM     16  C   UNL     1       1.210   9.015  20.358  0.00  0.00    +0.000 A 
ATOM     17  C   UNL     1       1.124   9.886  19.267  0.00  0.00    +0.000 A 
ATOM     18  C   UNL     1       1.583   9.503  18.013  0.00  0.00    +0.000 A 
ATOM     19  C   UNL     1       2.202   8.265  17.869  0.00  0.00    +0.000 A 
BRANCH  17  20
ATOM     20  S   UNL     1       0.575  11.541  19.503  0.00  0.00    +0.000 S 
ATOM     21  O   UNL     1      -0.830  11.630  19.184  0.00  0.00    +0.000 OA
ATOM     22  O   UNL     1       1.140  12.071  20.720  0.00  0.00    +0.000 OA
BRANCH  20  23
ATOM     23  N   UNL     1       1.413  12.244  18.234  0.00  0.00    +0.000 NA
ATOM     24  H   UNL     1       1.449  13.259  18.296  0.00  0.00    +0.000 HD
ATOM     25  H   UNL     1       2.274  11.753  18.008  0.00  0.00    +0.000 HD
ENDBRANCH  20  23
ENDBRANCH  17  20
ENDBRANCH   5  14
BRANCH   1  27
ATOM     26  N   UNL     1       5.075   1.881  20.161  0.00  0.00    +0.000 N 
ATOM     27  C   UNL     1       3.975   2.678  20.309  0.00  0.00    +0.000 C 
ATOM     28  O   UNL     1       3.151   2.450  21.185  0.00  0.00    +0.000 OA
ATOM     29  H   UNL     1       5.221   1.179  20.875  0.00  0.00    +0.000 HD
ATOM     30  H   UNL     1       5.878   2.218  19.642  0.00  0.00    +0.000 HD
ENDBRANCH   1  27
BRANCH   6  31
ATOM     31  N   UNL     1       2.341   5.079  20.901  0.00  0.00    +0.000 N 
ATOM     32  H   UNL     1       1.707   5.874  20.916  0.00  0.00    +0.000 HD
ATOM     33  H   UNL     1       2.923   5.075  21.739  0.00  0.00    +0.000 HD
ENDBRANCH   6  31
TORSDOF 6
ENDMDL
MODEL 2
REMARK VINA RESULT:      -9.0      0.705      1.253
REMARK  Name = 
REMARK  6 active torsions:
REMARK  status: ('A' for Active; 'I' for Inactive)
REMARK    1  A    between atoms: C_2  and  C_4
REMARK    2  A    between atoms: C_6  and  C_7
REMARK    3  A    between atoms: C_15  and  C_16
REMARK    4  A    between atoms: C_19  and  S_20
REMARK    5  A    between atoms: S_20  and  N_21
REMARK    6  A    between atoms: C_26  and  N_27
REMARK                            x       y       z     vdW  Elec       q    Type
REMARK                         _______ _______ _______ _____ _____    ______ ____
ROOT
ATOM      1  C   UNL     1       3.864   3.823  19.395  0.00  0.00    +0.000 A 
ATOM      2  C   UNL     1       4.580   3.745  18.187  0.00  0.00    +0.000 A 
ATOM      3  C   UNL     1       4.565   4.783  17.255  0.00  0.00    +0.000 A 
ATOM      4  C   UNL     1       3.773   5.900  17.575  0.00  0.00    +0.000 A 
ATOM      5  C   UNL     1       3.049   6.043  18.789  0.00  0.00    +0.000 A 
ATOM      6  C   UNL     1       3.133   4.991  19.740  0.00  0.00    +0.000 A 
ENDROOT
BRANCH   3   7
ATOM      7  C   UNL     1       5.354   4.730  16.000  0.00  0.00    +0.000 A 
ATOM      8  C   UNL     1       6.593   5.395  15.877  0.00  0.00    +0.000 A 
ATOM      9  C   UNL     1       7.351   5.322  14.705  0.00  0.00    +0.000 A 
ATOM     10  C   UNL     1       6.872   4.593  13.628  0.00  0.00    +0.000 A 
ATOM     11  F   UNL     1       7.590   4.529  12.500  0.00  0.00    +0.000 F 
ATOM     12  C   UNL     1       5.655   3.936  13.703  0.00  0.00    +0.000 A 
ATOM     13  C   UNL     1       4.906   3.997  14.884  0.00  0.00    +0.000 A 
ENDBRANCH   3   7
BRANCH   5  14
ATOM     14  C   UNL     1       2.327   7.332  19.010  0.00  0.00    +0.000 A 
ATOM     15  C   UNL     1       1.786   7.705  20.254  0.00  0.00    +0.000 A 
ATOM     16  C   UNL     1       1.198   8.958  20.449  0.00  0.00    +0.000 A 
ATOM     17  C   UNL     1       1.092   9.840  19.369  0.00  0.00    +0.000 A 
ATOM     18  C   UNL     1       1.539   9.474  18.105  0.00  0.00    +0.000 A 
ATOM     19  C   UNL     1       2.167   8.243  17.940  0.00  0.00    +0.000 A 
BRANCH  17  20
ATOM     20  S   UNL     1       0.533  11.488  19.628  0.00  0.00    +0.000 S 
ATOM     21  O   UNL     1       1.219  12.376  18.720  0.00  0.00    +0.000 OA
ATOM     22  O   UNL     1      -0.900  11.493  19.798  0.00  0.00    +0.000 OA
BRANCH  20  23
ATOM     23  N   UNL     1       1.201  11.722  21.145  0.00  0.00    +0.000 NA
ATOM     24  H   UNL     1       0.588  11.425  21.900  0.00  0.00    +0.000 HD
ATOM     25  H   UNL     1       2.179  11.447  21.194  0.00  0.00    +0.000 HD
ENDBRANCH  20  23
ENDBRANCH  17  20
ENDBRANCH   5  14
BRANCH   1  27
ATOM     26  N   UNL     1       5.119   1.856  20.124  0.00  0.00    +0.000 N 
ATOM     27  C   UNL     1       4.019   2.648  20.302  0.00  0.00    +0.000 C 
ATOM     28  O   UNL     1       3.214   2.408  21.192  0.00  0.00    +0.000 OA
ATOM     29  H   UNL     1       5.282   1.149  20.830  0.00  0.00    +0.000 HD
ATOM     30  H   UNL     1       5.911   2.201  19.593  0.00  0.00    +0.000 HD
ENDBRANCH   1  27
BRANCH   6  31
ATOM     31  N   UNL     1       2.374   5.029  20.939  0.00  0.00    +0.000 N 
ATOM     32  H   UNL     1       1.623   4.343  20.948  0.00  0.00    +0.000 HD
ATOM     33  H   UNL     1       2.004   5.960  21.130  0.00  0.00    +0.000 HD
ENDBRANCH   6  31
TORSDOF 6
ENDMDL
MODEL 3
REMARK VINA RESULT:      -9.0      0.371      1.363
REMARK  Name = 
REMARK  6 active torsions:
REMARK  status: ('A' for Active; 'I' for Inactive)
REMARK    1  A    between atoms: C_2  and  C_4
REMARK    2  A    between atoms: C_6  and  C_7
REMARK    3  A    between atoms: C_15  and  C_16
REMARK    4  A    between atoms: C_19  and  S_20
REMARK    5  A    between atoms: S_20  and  N_21
REMARK    6  A    between atoms: C_26  and  N_27
REMARK                            x       y       z     vdW  Elec       q    Type
REMARK                         _______ _______ _______ _____ _____    ______ ____
ROOT
ATOM      1  C   UNL     1       3.853   3.888  19.318  0.00  0.00    +0.000 A 
ATOM      2  C   UNL     1       4.570   3.781  18.112  0.00  0.00    +0.000 A 
ATOM      3  C   UNL     1       4.583   4.810  17.170  0.00  0.00    +0.000 A 
ATOM      4  C   UNL     1       3.818   5.948  17.477  0.00  0.00    +0.000 A 
ATOM      5  C   UNL     1       3.094   6.121  18.687  0.00  0.00    +0.000 A 
ATOM      6  C   UNL     1       3.151   5.076  19.649  0.00  0.00    +0.000 A 
ENDROOT
BRANCH   3   7
ATOM      7  C   UNL     1       5.373   4.724  15.917  0.00  0.00    +0.000 A 
ATOM      8  C   UNL     1       6.653   5.310  15.810  0.00  0.00    +0.000 A 
ATOM      9  C   UNL     1       7.411   5.206  14.640  0.00  0.00    +0.000 A 
ATOM     10  C   UNL     1       6.891   4.526  13.549  0.00  0.00    +0.000 A 
ATOM     11  F   UNL     1       7.609   4.433  12.423  0.00  0.00    +0.000 F 
ATOM     12  C   UNL     1       5.634   3.948  13.609  0.00  0.00    +0.000 A 
ATOM     13  C   UNL     1       4.884   4.040  14.788  0.00  0.00    +0.000 A 
ENDBRANCH   3   7
BRANCH   5  14
ATOM     14  C   UNL     1       2.405   7.430  18.894  0.00  0.00    +0.000 A 
ATOM     15  C   UNL     1       2.261   8.390  17.877  0.00  0.00    +0.000 A 
ATOM     16  C   UNL     1       1.530   9.565  18.079  0.00  0.00    +0.000 A 
ATOM     17  C   UNL     1       0.977   9.819  19.338  0.00  0.00    +0.000 A 
ATOM     18  C   UNL     1       1.170   8.934  20.392  0.00  0.00    +0.000 A 
ATOM     19  C   UNL     1       1.857   7.746  20.159  0.00  0.00    +0.000 A 
BRANCH  17  20
ATOM     20  S   UNL     1      -0.103  11.190  19.566  0.00  0.00    +0.000 S 
ATOM     21  O   UNL     1      -1.453  10.796  19.240  0.00  0.00    +0.000 OA
ATOM     22  O   UNL     1       0.241  11.880  20.786  0.00  0.00    +0.000 OA
BRANCH  20  23
ATOM     23  N   UNL     1       0.454  12.135  18.301  0.00  0.00    +0.000 NA
ATOM     24  H   UNL     1       0.212  11.759  17.388  0.00  0.00    +0.000 HD
ATOM     25  H   UNL     1       0.308  13.130  18.457  0.00  0.00    +0.000 HD
ENDBRANCH  20  23
ENDBRANCH  17  20
ENDBRANCH   5  14
BRANCH   1  27
ATOM     26  N   UNL     1       5.096   1.941  20.119  0.00  0.00    +0.000 N 
ATOM     27  C   UNL     1       3.978   2.718  20.236  0.00  0.00    +0.000 C 
ATOM     28  O   UNL     1       3.131   2.471  21.084  0.00  0.00    +0.000 OA
ATOM     29  H   UNL     1       5.232   1.240  20.835  0.00  0.00    +0.000 HD
ATOM     30  H   UNL     1       5.910   2.296  19.628  0.00  0.00    +0.000 HD
ENDBRANCH   1  27
BRANCH   6  31
ATOM     31  N   UNL     1       2.390   5.145  20.846  0.00  0.00    +0.000 N 
ATOM     32  H   UNL     1       2.049   4.235  21.144  0.00  0.00    +0.000 HD
ATOM     33  H   UNL     1       1.616   5.805  20.771  0.00  0.00    +0.000 HD
ENDBRANCH   6  31
TORSDOF 6
ENDMDL
MODEL 4
REMARK VINA RESULT:      -8.9      0.593      1.102
REMARK  Name = 
REMARK  6 active torsions:
REMARK  status: ('A' for Active; 'I' for Inactive)
REMARK    1  A    between atoms: C_2  and  C_4
REMARK    2  A    between atoms: C_6  and  C_7
REMARK    3  A    between atoms: C_15  and  C_16
REMARK    4  A    between atoms: C_19  and  S_20
REMARK    5  A    between atoms: S_20  and  N_21
REMARK    6  A    between atoms: C_26  and  N_27
REMARK                            x       y       z     vdW  Elec       q    Type
REMARK                         _______ _______ _______ _____ _____    ______ ____
ROOT
ATOM      1  C   UNL     1       3.846   3.869  19.360  0.00  0.00    +0.000 A 
ATOM      2  C   UNL     1       4.578   3.767  18.163  0.00  0.00    +0.000 A 
ATOM      3  C   UNL     1       4.595   4.798  17.223  0.00  0.00    +0.000 A 
ATOM      4  C   UNL     1       3.819   5.931  17.522  0.00  0.00    +0.000 A 
ATOM      5  C   UNL     1       3.079   6.097  18.724  0.00  0.00    +0.000 A 
ATOM      6  C   UNL     1       3.131   5.052  19.685  0.00  0.00    +0.000 A 
ENDROOT
BRANCH   3   7
ATOM      7  C   UNL     1       5.401   4.719  15.980  0.00  0.00    +0.000 A 
ATOM      8  C   UNL     1       4.915   4.072  14.823  0.00  0.00    +0.000 A 
ATOM      9  C   UNL     1       5.663   4.022  13.643  0.00  0.00    +0.000 A 
ATOM     10  C   UNL     1       6.919   4.607  13.606  0.00  0.00    +0.000 A 
ATOM     11  F   UNL     1       7.643   4.552  12.482  0.00  0.00    +0.000 F 
ATOM     12  C   UNL     1       7.438   5.240  14.724  0.00  0.00    +0.000 A 
ATOM     13  C   UNL     1       6.680   5.304  15.899  0.00  0.00    +0.000 A 
ENDBRANCH   3   7
BRANCH   5  14
ATOM     14  C   UNL     1       2.378   7.401  18.924  0.00  0.00    +0.000 A 
ATOM     15  C   UNL     1       2.184   8.334  17.889  0.00  0.00    +0.000 A 
ATOM     16  C   UNL     1       1.444   9.503  18.089  0.00  0.00    +0.000 A 
ATOM     17  C   UNL     1       0.933   9.781  19.361  0.00  0.00    +0.000 A 
ATOM     18  C   UNL     1       1.175   8.924  20.428  0.00  0.00    +0.000 A 
ATOM     19  C   UNL     1       1.871   7.741  20.199  0.00  0.00    +0.000 A 
BRANCH  17  20
ATOM     20  S   UNL     1      -0.159  11.141  19.595  0.00  0.00    +0.000 S 
ATOM     21  O   UNL     1      -0.826  11.440  18.350  0.00  0.00    +0.000 OA
ATOM     22  O   UNL     1      -0.861  10.990  20.846  0.00  0.00    +0.000 OA
BRANCH  20  23
ATOM     23  N   UNL     1       0.999  12.328  19.830  0.00  0.00    +0.000 NA
ATOM     24  H   UNL     1       1.134  12.563  20.810  0.00  0.00    +0.000 HD
ATOM     25  H   UNL     1       1.829  12.190  19.258  0.00  0.00    +0.000 HD
ENDBRANCH  20  23
ENDBRANCH  17  20
ENDBRANCH   5  14
BRANCH   1  27
ATOM     26  N   UNL     1       5.066   1.899  20.139  0.00  0.00    +0.000 N 
ATOM     27  C   UNL     1       3.967   2.699  20.278  0.00  0.00    +0.000 C 
ATOM     28  O   UNL     1       3.134   2.470  21.146  0.00  0.00    +0.000 OA
ATOM     29  H   UNL     1       5.204   1.196  20.854  0.00  0.00    +0.000 HD
ATOM     30  H   UNL     1       5.876   2.236  19.629  0.00  0.00    +0.000 HD
ENDBRANCH   1  27
BRANCH   6  31
ATOM     31  N   UNL     1       2.356   5.114  20.872  0.00  0.00    +0.000 N 
ATOM     32  H   UNL     1       2.928   5.197  21.709  0.00  0.00    +0.000 HD
ATOM     33  H   UNL     1       1.720   4.320  20.957  0.00  0.00    +0.000 HD
ENDBRANCH   6  31
TORSDOF 6
ENDMDL
MODEL 5
REMARK VINA RESULT:      -8.7      1.037      1.400
REMARK  Name = 
REMARK  6 active torsions:
REMARK  status: ('A' for Active; 'I' for Inactive)
REMARK    1  A    between atoms: C_2  and  C_4
REMARK    2  A    between atoms: C_6  and  C_7
REMARK    3  A    between atoms: C_15  and  C_16
REMARK    4  A    between atoms: C_19  and  S_20
REMARK    5  A    between atoms: S_20  and  N_21
REMARK    6  A    between atoms: C_26  and  N_27
REMARK                            x       y       z     vdW  Elec       q    Type
REMARK                         _______ _______ _______ _____ _____    ______ ____
ROOT
ATOM      1  C   UNL     1       4.082   3.335  18.599  0.00  0.00    +0.000 A 
ATOM      2  C   UNL     1       4.772   3.313  17.373  0.00  0.00    +0.000 A 
ATOM      3  C   UNL     1       4.804   4.422  16.528  0.00  0.00    +0.000 A 
ATOM      4  C   UNL     1       4.086   5.554  16.953  0.00  0.00    +0.000 A 
ATOM      5  C   UNL     1       3.392   5.640  18.190  0.00  0.00    +0.000 A 
ATOM      6  C   UNL     1       3.429   4.511  19.052  0.00  0.00    +0.000 A 
ENDROOT
BRANCH   3   7
ATOM      7  C   UNL     1       5.568   4.425  15.256  0.00  0.00    +0.000 A 
ATOM      8  C   UNL     1       5.106   3.732  14.116  0.00  0.00    +0.000 A 
ATOM      9  C   UNL     1       5.812   3.756  12.909  0.00  0.00    +0.000 A 
ATOM     10  C   UNL     1       7.001   4.463  12.828  0.00  0.00    +0.000 A 
ATOM     11  F   UNL     1       7.684   4.481  11.678  0.00  0.00    +0.000 F 
ATOM     12  C   UNL     1       7.495   5.146  13.928  0.00  0.00    +0.000 A 
ATOM     13  C   UNL     1       6.778   5.133  15.131  0.00  0.00    +0.000 A 
ENDBRANCH   3   7
BRANCH   5  14
ATOM     14  C   UNL     1       2.753   6.947  18.529  0.00  0.00    +0.000 A 
ATOM     15  C   UNL     1       2.665   8.017  17.620  0.00  0.00    +0.000 A 
ATOM     16  C   UNL     1       1.980   9.192  17.939  0.00  0.00    +0.000 A 
ATOM     17  C   UNL     1       1.419   9.334  19.212  0.00  0.00    +0.000 A 
ATOM     18  C   UNL     1       1.559   8.333  20.166  0.00  0.00    +0.000 A 
ATOM     19  C   UNL     1       2.200   7.149  19.815  0.00  0.00    +0.000 A 
BRANCH  17  20
ATOM     20  S   UNL     1       0.392  10.716  19.575  0.00  0.00    +0.000 S 
ATOM     21  O   UNL     1      -0.635  10.319  20.508  0.00  0.00    +0.000 OA
ATOM     22  O   UNL     1       1.209  11.892  19.760  0.00  0.00    +0.000 OA
BRANCH  20  23
ATOM     23  N   UNL     1      -0.335  10.864  18.074  0.00  0.00    +0.000 NA
ATOM     24  H   UNL     1       0.296  11.218  17.360  0.00  0.00    +0.000 HD
ATOM     25  H   UNL     1      -0.918  10.064  17.837  0.00  0.00    +0.000 HD
ENDBRANCH  20  23
ENDBRANCH  17  20
ENDBRANCH   5  14
BRANCH   1  27
ATOM     26  N   UNL     1       4.173   0.895  18.728  0.00  0.00    +0.000 N 
ATOM     27  C   UNL     1       4.181   2.082  19.405  0.00  0.00    +0.000 C 
ATOM     28  O   UNL     1       4.294   2.105  20.623  0.00  0.00    +0.000 OA
ATOM     29  H   UNL     1       4.379   0.067  19.271  0.00  0.00    +0.000 HD
ATOM     30  H   UNL     1       4.362   0.880  17.731  0.00  0.00    +0.000 HD
ENDBRANCH   1  27
BRANCH   6  31
ATOM     31  N   UNL     1       2.693   4.496  20.266  0.00  0.00    +0.000 N 
ATOM     32  H   UNL     1       1.842   3.943  20.200  0.00  0.00    +0.000 HD
ATOM     33  H   UNL     1       2.478   5.437  20.596  0.00  0.00    +0.000 HD
ENDBRANCH   6  31
TORSDOF 6
ENDMDL
MODEL 6
REMARK VINA RESULT:      -8.5      1.425      2.049
REMARK  Name = 
REMARK  6 active torsions:
REMARK  status: ('A' for Active; 'I' for Inactive)
REMARK    1  A    between atoms: C_2  and  C_4
REMARK    2  A    between atoms: C_6  and  C_7
REMARK    3  A    between atoms: C_15  and  C_16
REMARK    4  A    between atoms: C_19  and  S_20
REMARK    5  A    between atoms: S_20  and  N_21
REMARK    6  A    between atoms: C_26  and  N_27
REMARK                            x       y       z     vdW  Elec       q    Type
REMARK                         _______ _______ _______ _____ _____    ______ ____
ROOT
ATOM      1  C   UNL     1       3.076   3.234  18.274  0.00  0.00    +0.000 A 
ATOM      2  C   UNL     1       4.033   3.359  17.251  0.00  0.00    +0.000 A 
ATOM      3  C   UNL     1       4.419   4.605  16.755  0.00  0.00    +0.000 A 
ATOM      4  C   UNL     1       3.780   5.726  17.313  0.00  0.00    +0.000 A 
ATOM      5  C   UNL     1       2.826   5.660  18.363  0.00  0.00    +0.000 A 
ATOM      6  C   UNL     1       2.499   4.379  18.883  0.00  0.00    +0.000 A 
ENDROOT
BRANCH   3   7
ATOM      7  C   UNL     1       5.462   4.750  15.709  0.00  0.00    +0.000 A 
ATOM      8  C   UNL     1       6.632   5.508  15.932  0.00  0.00    +0.000 A 
ATOM      9  C   UNL     1       7.627   5.623  14.957  0.00  0.00    +0.000 A 
ATOM     10  C   UNL     1       7.460   4.992  13.735  0.00  0.00    +0.000 A 
ATOM     11  F   UNL     1       8.406   5.107  12.795  0.00  0.00    +0.000 F 
ATOM     12  C   UNL     1       6.321   4.250  13.471  0.00  0.00    +0.000 A 
ATOM     13  C   UNL     1       5.333   4.123  14.455  0.00  0.00    +0.000 A 
ENDBRANCH   3   7
BRANCH   5  14
ATOM     14  C   UNL     1       2.307   6.953  18.902  0.00  0.00    +0.000 A 
ATOM     15  C   UNL     1       2.111   8.094  18.103  0.00  0.00    +0.000 A 
ATOM     16  C   UNL     1       1.538   9.259  18.621  0.00  0.00    +0.000 A 
ATOM     17  C   UNL     1       1.206   9.314  19.978  0.00  0.00    +0.000 A 
ATOM     18  C   UNL     1       1.464   8.236  20.817  0.00  0.00    +0.000 A 
ATOM     19  C   UNL     1       1.987   7.067  20.275  0.00  0.00    +0.000 A 
BRANCH  17  20
ATOM     20  S   UNL     1       0.313  10.691  20.613  0.00  0.00    +0.000 S 
ATOM     21  O   UNL     1       1.242  11.659  21.147  0.00  0.00    +0.000 OA
ATOM     22  O   UNL     1      -0.750  11.041  19.702  0.00  0.00    +0.000 OA
BRANCH  20  23
ATOM     23  N   UNL     1      -0.400   9.922  21.918  0.00  0.00    +0.000 NA
ATOM     24  H   UNL     1      -1.243   9.411  21.666  0.00  0.00    +0.000 HD
ATOM     25  H   UNL     1       0.275   9.455  22.519  0.00  0.00    +0.000 HD
ENDBRANCH  20  23
ENDBRANCH  17  20
ENDBRANCH   5  14
BRANCH   1  27
ATOM     26  N   UNL     1       3.786   0.906  18.511  0.00  0.00    +0.000 N 
ATOM     27  C   UNL     1       2.806   1.836  18.721  0.00  0.00    +0.000 C 
ATOM     28  O   UNL     1       1.763   1.527  19.281  0.00  0.00    +0.000 OA
ATOM     29  H   UNL     1       3.646   0.001  18.941  0.00  0.00    +0.000 HD
ATOM     30  H   UNL     1       4.734   1.207  18.312  0.00  0.00    +0.000 HD
ENDBRANCH   1  27
BRANCH   6  31
ATOM     31  N   UNL     1       1.496   4.229  19.877  0.00  0.00    +0.000 N 
ATOM     32  H   UNL     1       1.521   4.971  20.572  0.00  0.00    +0.000 HD
ATOM     33  H   UNL     1       1.540   3.317  20.332  0.00  0.00    +0.000 HD
ENDBRANCH   6  31
TORSDOF 6
ENDMDL
MODEL 7
REMARK VINA RESULT:      -8.4      1.375      1.919
REMARK  Name = 
REMARK  6 active torsions:
REMARK  status: ('A' for Active; 'I' for Inactive)
REMARK    1  A    between atoms: C_2  and  C_4
REMARK    2  A    between atoms: C_6  and  C_7
REMARK    3  A    between atoms: C_15  and  C_16
REMARK    4  A    between atoms: C_19  and  S_20
REMARK    5  A    between atoms: S_20  and  N_21
REMARK    6  A    between atoms: C_26  and  N_27
REMARK                            x       y       z     vdW  Elec       q    Type
REMARK                         _______ _______ _______ _____ _____    ______ ____
ROOT
ATOM      1  C   UNL     1       2.504   3.776  19.070  0.00  0.00    +0.000 A 
ATOM      2  C   UNL     1       3.481   3.806  18.058  0.00  0.00    +0.000 A 
ATOM      3  C   UNL     1       3.944   5.006  17.518  0.00  0.00    +0.000 A 
ATOM      4  C   UNL     1       3.362   6.183  18.020  0.00  0.00    +0.000 A 
ATOM      5  C   UNL     1       2.390   6.215  19.056  0.00  0.00    +0.000 A 
ATOM      6  C   UNL     1       1.984   4.976  19.622  0.00  0.00    +0.000 A 
ENDROOT
BRANCH   3   7
ATOM      7  C   UNL     1       5.007   5.049  16.485  0.00  0.00    +0.000 A 
ATOM      8  C   UNL     1       6.106   5.929  16.591  0.00  0.00    +0.000 A 
ATOM      9  C   UNL     1       7.123   5.951  15.632  0.00  0.00    +0.000 A 
ATOM     10  C   UNL     1       7.048   5.101  14.540  0.00  0.00    +0.000 A 
ATOM     11  F   UNL     1       8.014   5.125  13.614  0.00  0.00    +0.000 F 
ATOM     12  C   UNL     1       5.980   4.231  14.392  0.00  0.00    +0.000 A 
ATOM     13  C   UNL     1       4.972   4.200  15.362  0.00  0.00    +0.000 A 
ENDBRANCH   3   7
BRANCH   5  14
ATOM     14  C   UNL     1       1.939   7.556  19.533  0.00  0.00    +0.000 A 
ATOM     15  C   UNL     1       1.772   8.659  18.677  0.00  0.00    +0.000 A 
ATOM     16  C   UNL     1       1.260   9.874  19.141  0.00  0.00    +0.000 A 
ATOM     17  C   UNL     1       0.961  10.016  20.500  0.00  0.00    +0.000 A 
ATOM     18  C   UNL     1       1.192   8.976  21.392  0.00  0.00    +0.000 A 
ATOM     19  C   UNL     1       1.654   7.758  20.904  0.00  0.00    +0.000 A 
BRANCH  17  20
ATOM     20  S   UNL     1       0.141  11.463  21.076  0.00  0.00    +0.000 S 
ATOM     21  O   UNL     1      -0.808  11.903  20.081  0.00  0.00    +0.000 OA
ATOM     22  O   UNL     1      -0.197  11.307  22.470  0.00  0.00    +0.000 OA
BRANCH  20  23
ATOM     23  N   UNL     1       1.446  12.510  21.008  0.00  0.00    +0.000 NA
ATOM     24  H   UNL     1       2.228  12.209  21.584  0.00  0.00    +0.000 HD
ATOM     25  H   UNL     1       1.649  12.829  20.064  0.00  0.00    +0.000 HD
ENDBRANCH  20  23
ENDBRANCH  17  20
ENDBRANCH   5  14
BRANCH   1  27
ATOM     26  N   UNL     1       2.118   1.398  18.657  0.00  0.00    +0.000 N 
ATOM     27  C   UNL     1       2.149   2.415  19.569  0.00  0.00    +0.000 C 
ATOM     28  O   UNL     1       1.920   2.200  20.752  0.00  0.00    +0.000 OA
ATOM     29  H   UNL     1       2.013   0.463  19.030  0.00  0.00    +0.000 HD
ATOM     30  H   UNL     1       2.570   1.512  17.756  0.00  0.00    +0.000 HD
ENDBRANCH   1  27
BRANCH   6  31
ATOM     31  N   UNL     1       0.960   4.924  20.605  0.00  0.00    +0.000 N 
ATOM     32  H   UNL     1       1.236   5.363  21.480  0.00  0.00    +0.000 HD
ATOM     33  H   UNL     1       0.639   3.971  20.774  0.00  0.00    +0.000 HD
ENDBRANCH   6  31
TORSDOF 6
ENDMDL
MODEL 8
REMARK VINA RESULT:      -8.4      1.530      1.919
REMARK  Name = 
REMARK  6 active torsions:
REMARK  status: ('A' for Active; 'I' for Inactive)
REMARK    1  A    between atoms: C_2  and  C_4
REMARK    2  A    between atoms: C_6  and  C_7
REMARK    3  A    between atoms: C_15  and  C_16
REMARK    4  A    between atoms: C_19  and  S_20
REMARK    5  A    between atoms: S_20  and  N_21
REMARK    6  A    between atoms: C_26  and  N_27
REMARK                            x       y       z     vdW  Elec       q    Type
REMARK                         _______ _______ _______ _____ _____    ______ ____
ROOT
ATOM      1  C   UNL     1       2.672   3.430  18.465  0.00  0.00    +0.000 A 
ATOM      2  C   UNL     1       3.677   3.533  17.487  0.00  0.00    +0.000 A 
ATOM      3  C   UNL     1       4.163   4.768  17.058  0.00  0.00    +0.000 A 
ATOM      4  C   UNL     1       3.574   5.906  17.636  0.00  0.00    +0.000 A 
ATOM      5  C   UNL     1       2.574   5.863  18.644  0.00  0.00    +0.000 A 
ATOM      6  C   UNL     1       2.144   4.586  19.098  0.00  0.00    +0.000 A 
ENDROOT
BRANCH   3   7
ATOM      7  C   UNL     1       5.255   4.885  16.061  0.00  0.00    +0.000 A 
ATOM      8  C   UNL     1       5.200   4.210  14.822  0.00  0.00    +0.000 A 
ATOM      9  C   UNL     1       6.217   4.342  13.871  0.00  0.00    +0.000 A 
ATOM     10  C   UNL     1       7.314   5.140  14.151  0.00  0.00    +0.000 A 
ATOM     11  F   UNL     1       8.294   5.261  13.248  0.00  0.00    +0.000 F 
ATOM     12  C   UNL     1       7.413   5.809  15.361  0.00  0.00    +0.000 A 
ATOM     13  C   UNL     1       6.386   5.689  16.305  0.00  0.00    +0.000 A 
ENDBRANCH   3   7
BRANCH   5  14
ATOM     14  C   UNL     1       2.117   7.165  19.216  0.00  0.00    +0.000 A 
ATOM     15  C   UNL     1       1.929   8.321  18.436  0.00  0.00    +0.000 A 
ATOM     16  C   UNL     1       1.414   9.498  18.987  0.00  0.00    +0.000 A 
ATOM     17  C   UNL     1       1.133   9.547  20.356  0.00  0.00    +0.000 A 
ATOM     18  C   UNL     1       1.385   8.452  21.174  0.00  0.00    +0.000 A 
ATOM     19  C   UNL     1       1.851   7.273  20.600  0.00  0.00    +0.000 A 
BRANCH  17  20
ATOM     20  S   UNL     1       0.308  10.945  21.037  0.00  0.00    +0.000 S 
ATOM     21  O   UNL     1       1.232  12.050  21.127  0.00  0.00    +0.000 OA
ATOM     22  O   UNL     1      -1.006  11.065  20.453  0.00  0.00    +0.000 OA
BRANCH  20  23
ATOM     23  N   UNL     1       0.095  10.353  22.589  0.00  0.00    +0.000 NA
ATOM     24  H   UNL     1       0.500  10.954  23.303  0.00  0.00    +0.000 HD
ATOM     25  H   UNL     1      -0.843   9.993  22.750  0.00  0.00    +0.000 HD
ENDBRANCH  20  23
ENDBRANCH  17  20
ENDBRANCH   5  14
BRANCH   1  27
ATOM     26  N   UNL     1       3.242   1.064  18.692  0.00  0.00    +0.000 N 
ATOM     27  C   UNL     1       2.294   2.037  18.843  0.00  0.00    +0.000 C 
ATOM     28  O   UNL     1       1.191   1.768  19.299  0.00  0.00    +0.000 OA
ATOM     29  H   UNL     1       3.020   0.156  19.079  0.00  0.00    +0.000 HD
ATOM     30  H   UNL     1       4.218   1.320  18.588  0.00  0.00    +0.000 HD
ENDBRANCH   1  27
BRANCH   6  31
ATOM     31  N   UNL     1       1.093   4.465  20.044  0.00  0.00    +0.000 N 
ATOM     32  H   UNL     1       0.807   5.362  20.428  0.00  0.00    +0.000 HD
ATOM     33  H   UNL     1       1.327   3.817  20.797  0.00  0.00    +0.000 HD
ENDBRANCH   6  31
TORSDOF 6
ENDMDL
MODEL 9
REMARK VINA RESULT:      -8.3      1.268      1.663
REMARK  Name = 
REMARK  6 active torsions:
REMARK  status: ('A' for Active; 'I' for Inactive)
REMARK    1  A    between atoms: C_2  and  C_4
REMARK    2  A    between atoms: C_6  and  C_7
REMARK    3  A    between atoms: C_15  and  C_16
REMARK    4  A    between atoms: C_19  and  S_20
REMARK    5  A    between atoms: S_20  and  N_21
REMARK    6  A    between atoms: C_26  and  N_27
REMARK                            x       y       z     vdW  Elec       q    Type
REMARK                         _______ _______ _______ _____ _____    ______ ____
ROOT
ATOM      1  C   UNL     1       3.052   3.305  18.320  0.00  0.00    +0.000 A 
ATOM      2  C   UNL     1       4.027   3.416  17.313  0.00  0.00    +0.000 A 
ATOM      3  C   UNL     1       4.382   4.651  16.768  0.00  0.00    +0.000 A 
ATOM      4  C   UNL     1       3.694   5.773  17.259  0.00  0.00    +0.000 A 
ATOM      5  C   UNL     1       2.718   5.723  18.290  0.00  0.00    +0.000 A 
ATOM      6  C   UNL     1       2.422   4.456  18.862  0.00  0.00    +0.000 A 
ENDROOT
BRANCH   3   7
ATOM      7  C   UNL     1       5.443   4.783  15.739  0.00  0.00    +0.000 A 
ATOM      8  C   UNL     1       6.632   5.501  15.992  0.00  0.00    +0.000 A 
ATOM      9  C   UNL     1       7.644   5.604  15.032  0.00  0.00    +0.000 A 
ATOM     10  C   UNL     1       7.475   5.001  13.796  0.00  0.00    +0.000 A 
ATOM     11  F   UNL     1       8.437   5.104  12.871  0.00  0.00    +0.000 F 
ATOM     12  C   UNL     1       6.318   4.298  13.503  0.00  0.00    +0.000 A 
ATOM     13  C   UNL     1       5.313   4.183  14.471  0.00  0.00    +0.000 A 
ENDBRANCH   3   7
BRANCH   5  14
ATOM     14  C   UNL     1       2.144   7.020  18.757  0.00  0.00    +0.000 A 
ATOM     15  C   UNL     1       1.857   7.291  20.107  0.00  0.00    +0.000 A 
ATOM     16  C   UNL     1       1.407   8.548  20.521  0.00  0.00    +0.000 A 
ATOM     17  C   UNL     1       1.181   9.543  19.565  0.00  0.00    +0.000 A 
ATOM     18  C   UNL     1       1.373   9.287  18.212  0.00  0.00    +0.000 A 
ATOM     19  C   UNL     1       1.869   8.046  17.823  0.00  0.00    +0.000 A 
BRANCH  17  20
ATOM     20  S   UNL     1       0.800  11.184  20.073  0.00  0.00    +0.000 S 
ATOM     21  O   UNL     1       1.787  12.092  19.541  0.00  0.00    +0.000 OA
ATOM     22  O   UNL     1      -0.621  11.411  19.956  0.00  0.00    +0.000 OA
BRANCH  20  23
ATOM     23  N   UNL     1       1.128  11.002  21.705  0.00  0.00    +0.000 NA
ATOM     24  H   UNL     1       1.319  11.885  22.173  0.00  0.00    +0.000 HD
ATOM     25  H   UNL     1       0.497  10.350  22.165  0.00  0.00    +0.000 HD
ENDBRANCH  20  23
ENDBRANCH  17  20
ENDBRANCH   5  14
BRANCH   1  27
ATOM     26  N   UNL     1       3.761   0.975  18.534  0.00  0.00    +0.000 N 
ATOM     27  C   UNL     1       2.818   1.920  18.826  0.00  0.00    +0.000 C 
ATOM     28  O   UNL     1       1.839   1.636  19.502  0.00  0.00    +0.000 OA
ATOM     29  H   UNL     1       3.660   0.081  18.997  0.00  0.00    +0.000 HD
ATOM     30  H   UNL     1       4.685   1.260  18.228  0.00  0.00    +0.000 HD
ENDBRANCH   1  27
BRANCH   6  31
ATOM     31  N   UNL     1       1.402   4.317  19.840  0.00  0.00    +0.000 N 
ATOM     32  H   UNL     1       0.823   3.496  19.687  0.00  0.00    +0.000 HD
ATOM     33  H   UNL     1       0.820   5.152  19.908  0.00  0.00    +0.000 HD
ENDBRANCH   6  31
TORSDOF 6
ENDMDL
