MODEL 1
REMARK VINA RESULT:      -7.2      0.000      0.000
REMARK  Name = 
REMARK  6 active torsions:
REMARK  status: ('A' for Active; 'I' for Inactive)
REMARK    1  A    between atoms: C_1  and  C_2
REMARK    2  A    between atoms: C_2  and  C_10
REMARK    3  A    between atoms: N_3  and  O_4
REMARK    4  A    between atoms: O_4  and  C_5
REMARK    5  A    between atoms: C_5  and  C_7
REMARK    6  A    between atoms: C_12  and  C_13
REMARK                            x       y       z     vdW  Elec       q    Type
REMARK                         _______ _______ _______ _____ _____    ______ ____
ROOT
ATOM      1  C   UNL     1       4.990   5.574  18.278  0.00  0.00    +0.000 C 
ATOM      2  C   UNL     1       3.737   6.049  17.585  0.00  0.00    +0.000 C 
ATOM      3  C   UNL     1       3.862   4.598  17.966  0.00  0.00    +0.000 C 
ENDROOT
BRANCH   3   4
ATOM      4  C   UNL     1       3.048   4.014  19.106  0.00  0.00    +0.000 A 
ATOM      5  C   UNL     1       3.574   3.056  19.993  0.00  0.00    +0.000 A 
ATOM      6  C   UNL     1       2.823   2.566  21.072  0.00  0.00    +0.000 A 
ATOM      7  C   UNL     1       1.533   3.032  21.274  0.00  0.00    +0.000 A 
ATOM      8  F   UNL     1       0.813   2.574  22.306  0.00  0.00    +0.000 F 
ATOM      9  C   UNL     1       0.979   3.976  20.422  0.00  0.00    +0.000 A 
ATOM     10  C   UNL     1       1.735   4.463  19.351  0.00  0.00    +0.000 A 
ENDBRANCH   3   4
BRANCH   1  12
ATOM     11  C   UNL     1       7.480   4.978  18.223  0.00  0.00    +0.000 C 
ATOM     12  C   UNL     1       6.280   5.572  17.535  0.00  0.00    +0.000 C 
ATOM     13  N   UNL     1       6.259   6.137  16.368  0.00  0.00    +0.000 NA
BRANCH  13  14
ATOM     14  O   UNL     1       7.523   6.122  15.750  0.00  0.00    +0.000 OA
BRANCH  14  15
ATOM     15  C   UNL     1       7.444   5.552  14.503  0.00  0.00    +0.000 C 
ATOM     16  O   UNL     1       8.271   5.600  13.607  0.00  0.00    +0.000 OA
BRANCH  15  17
ATOM     17  C   UNL     1       6.144   4.835  14.339  0.00  0.00    +0.000 C 
ATOM     18  C   UNL     1       6.004   3.777  13.268  0.00  0.00    +0.000 C 
ATOM     19  C   UNL     1       5.999   3.377  14.716  0.00  0.00    +0.000 C 
ENDBRANCH  15  17
ENDBRANCH  14  15
ENDBRANCH  13  14
ENDBRANCH   1  12
TORSDOF 5
ENDMDL
MODEL 2
REMARK VINA RESULT:      -7.2      0.950      1.132
REMARK  Name = 
REMARK  6 active torsions:
REMARK  status: ('A' for Active; 'I' for Inactive)
REMARK    1  A    between atoms: C_1  and  C_2
REMARK    2  A    between atoms: C_2  and  C_10
REMARK    3  A    between atoms: N_3  and  O_4
REMARK    4  A    between atoms: O_4  and  C_5
REMARK    5  A    between atoms: C_5  and  C_7
REMARK    6  A    between atoms: C_12  and  C_13
REMARK                            x       y       z     vdW  Elec       q    Type
REMARK                         _______ _______ _______ _____ _____    ______ ____
ROOT
ATOM      1  C   UNL     1       5.222   5.376  17.825  0.00  0.00    +0.000 C 
ATOM      2  C   UNL     1       4.059   6.133  17.232  0.00  0.00    +0.000 C 
ATOM      3  C   UNL     1       3.916   4.659  17.506  0.00  0.00    +0.000 C 
ENDROOT
BRANCH   3   4
ATOM      4  C   UNL     1       3.049   4.154  18.644  0.00  0.00    +0.000 A 
ATOM      5  C   UNL     1       2.313   2.957  18.556  0.00  0.00    +0.000 A 
ATOM      6  C   UNL     1       1.558   2.481  19.638  0.00  0.00    +0.000 A 
ATOM      7  C   UNL     1       1.530   3.201  20.822  0.00  0.00    +0.000 A 
ATOM      8  F   UNL     1       0.816   2.748  21.862  0.00  0.00    +0.000 F 
ATOM      9  C   UNL     1       2.241   4.385  20.948  0.00  0.00    +0.000 A 
ATOM     10  C   UNL     1       2.995   4.852  19.868  0.00  0.00    +0.000 A 
ENDBRANCH   3   4
BRANCH   1  12
ATOM     11  C   UNL     1       7.654   4.585  17.702  0.00  0.00    +0.000 C 
ATOM     12  C   UNL     1       6.458   5.187  17.016  0.00  0.00    +0.000 C 
ATOM     13  N   UNL     1       6.401   5.613  15.792  0.00  0.00    +0.000 NA
BRANCH  13  14
ATOM     14  O   UNL     1       7.619   5.427  15.112  0.00  0.00    +0.000 OA
BRANCH  14  15
ATOM     15  C   UNL     1       7.391   5.089  13.800  0.00  0.00    +0.000 C 
ATOM     16  O   UNL     1       7.852   5.620  12.802  0.00  0.00    +0.000 OA
BRANCH  15  17
ATOM     17  C   UNL     1       6.442   3.939  13.715  0.00  0.00    +0.000 C 
ATOM     18  C   UNL     1       5.147   4.094  12.950  0.00  0.00    +0.000 C 
ATOM     19  C   UNL     1       6.225   3.195  12.416  0.00  0.00    +0.000 C 
ENDBRANCH  15  17
ENDBRANCH  14  15
ENDBRANCH  13  14
ENDBRANCH   1  12
TORSDOF 5
ENDMDL
MODEL 3
REMARK VINA RESULT:      -7.1      1.373      1.859
REMARK  Name = 
REMARK  6 active torsions:
REMARK  status: ('A' for Active; 'I' for Inactive)
REMARK    1  A    between atoms: C_1  and  C_2
REMARK    2  A    between atoms: C_2  and  C_10
REMARK    3  A    between atoms: N_3  and  O_4
REMARK    4  A    between atoms: O_4  and  C_5
REMARK    5  A    between atoms: C_5  and  C_7
REMARK    6  A    between atoms: C_12  and  C_13
REMARK                            x       y       z     vdW  Elec       q    Type
REMARK                         _______ _______ _______ _____ _____    ______ ____
ROOT
ATOM      1  C   UNL     1       5.945   4.848  17.895  0.00  0.00    +0.000 C 
ATOM      2  C   UNL     1       5.996   5.331  19.324  0.00  0.00    +0.000 C 
ATOM      3  C   UNL     1       4.757   5.581  18.506  0.00  0.00    +0.000 C 
ENDROOT
BRANCH   3   4
ATOM      4  C   UNL     1       3.472   4.819  18.776  0.00  0.00    +0.000 A 
ATOM      5  C   UNL     1       2.777   4.134  17.761  0.00  0.00    +0.000 A 
ATOM      6  C   UNL     1       1.620   3.392  18.040  0.00  0.00    +0.000 A 
ATOM      7  C   UNL     1       1.144   3.330  19.340  0.00  0.00    +0.000 A 
ATOM      8  F   UNL     1       0.043   2.617  19.614  0.00  0.00    +0.000 F 
ATOM      9  C   UNL     1       1.801   3.992  20.367  0.00  0.00    +0.000 A 
ATOM     10  C   UNL     1       2.956   4.725  20.083  0.00  0.00    +0.000 A 
ENDBRANCH   3   4
BRANCH   1  12
ATOM     11  C   UNL     1       7.426   6.820  17.207  0.00  0.00    +0.000 C 
ATOM     12  C   UNL     1       6.837   5.474  16.881  0.00  0.00    +0.000 C 
ATOM     13  N   UNL     1       6.983   4.814  15.775  0.00  0.00    +0.000 NA
BRANCH  13  14
ATOM     14  O   UNL     1       7.812   5.491  14.861  0.00  0.00    +0.000 OA
BRANCH  14  15
ATOM     15  C   UNL     1       7.528   5.104  13.574  0.00  0.00    +0.000 C 
ATOM     16  O   UNL     1       7.933   5.605  12.537  0.00  0.00    +0.000 OA
BRANCH  15  17
ATOM     17  C   UNL     1       6.592   3.940  13.573  0.00  0.00    +0.000 C 
ATOM     18  C   UNL     1       5.214   4.089  12.970  0.00  0.00    +0.000 C 
ATOM     19  C   UNL     1       6.234   3.221  12.292  0.00  0.00    +0.000 C 
ENDBRANCH  15  17
ENDBRANCH  14  15
ENDBRANCH  13  14
ENDBRANCH   1  12
TORSDOF 5
ENDMDL
MODEL 4
REMARK VINA RESULT:      -7.0      3.454      4.848
REMARK  Name = 
REMARK  6 active torsions:
REMARK  status: ('A' for Active; 'I' for Inactive)
REMARK    1  A    between atoms: C_1  and  C_2
REMARK    2  A    between atoms: C_2  and  C_10
REMARK    3  A    between atoms: N_3  and  O_4
REMARK    4  A    between atoms: O_4  and  C_5
REMARK    5  A    between atoms: C_5  and  C_7
REMARK    6  A    between atoms: C_12  and  C_13
REMARK                            x       y       z     vdW  Elec       q    Type
REMARK                         _______ _______ _______ _____ _____    ______ ____
ROOT
ATOM      1  C   UNL     1       2.605   5.365  18.186  0.00  0.00    +0.000 C 
ATOM      2  C   UNL     1       2.133   5.019  19.577  0.00  0.00    +0.000 C 
ATOM      3  C   UNL     1       2.835   6.330  19.342  0.00  0.00    +0.000 C 
ENDROOT
BRANCH   3   4
ATOM      4  C   UNL     1       2.075   7.643  19.376  0.00  0.00    +0.000 A 
ATOM      5  C   UNL     1       1.484   8.140  20.554  0.00  0.00    +0.000 A 
ATOM      6  C   UNL     1       0.829   9.380  20.577  0.00  0.00    +0.000 A 
ATOM      7  C   UNL     1       0.758  10.138  19.419  0.00  0.00    +0.000 A 
ATOM      8  F   UNL     1       0.140  11.327  19.436  0.00  0.00    +0.000 F 
ATOM      9  C   UNL     1       1.328   9.683  18.239  0.00  0.00    +0.000 A 
ATOM     10  C   UNL     1       1.983   8.448  18.223  0.00  0.00    +0.000 A 
ENDBRANCH   3   4
BRANCH   1  12
ATOM     11  C   UNL     1       3.614   3.074  17.647  0.00  0.00    +0.000 C 
ATOM     12  C   UNL     1       3.706   4.574  17.570  0.00  0.00    +0.000 C 
ATOM     13  N   UNL     1       4.681   5.264  17.066  0.00  0.00    +0.000 NA
BRANCH  13  14
ATOM     14  O   UNL     1       5.693   4.441  16.538  0.00  0.00    +0.000 OA
BRANCH  14  15
ATOM     15  C   UNL     1       6.926   4.839  16.996  0.00  0.00    +0.000 C 
ATOM     16  O   UNL     1       8.005   4.309  16.788  0.00  0.00    +0.000 OA
BRANCH  15  17
ATOM     17  C   UNL     1       6.798   6.058  17.849  0.00  0.00    +0.000 C 
ATOM     18  C   UNL     1       7.932   6.451  18.767  0.00  0.00    +0.000 C 
ATOM     19  C   UNL     1       7.614   7.300  17.570  0.00  0.00    +0.000 C 
ENDBRANCH  15  17
ENDBRANCH  14  15
ENDBRANCH  13  14
ENDBRANCH   1  12
TORSDOF 5
ENDMDL
MODEL 5
REMARK VINA RESULT:      -6.9      4.167      7.352
REMARK  Name = 
REMARK  6 active torsions:
REMARK  status: ('A' for Active; 'I' for Inactive)
REMARK    1  A    between atoms: C_1  and  C_2
REMARK    2  A    between atoms: C_2  and  C_10
REMARK    3  A    between atoms: N_3  and  O_4
REMARK    4  A    between atoms: O_4  and  C_5
REMARK    5  A    between atoms: C_5  and  C_7
REMARK    6  A    between atoms: C_12  and  C_13
REMARK                            x       y       z     vdW  Elec       q    Type
REMARK                         _______ _______ _______ _____ _____    ______ ____
ROOT
ATOM      1  C   UNL     1       4.403   5.623  16.981  0.00  0.00    +0.000 C 
ATOM      2  C   UNL     1       5.777   5.513  17.595  0.00  0.00    +0.000 C 
ATOM      3  C   UNL     1       5.320   4.461  16.620  0.00  0.00    +0.000 C 
ENDROOT
BRANCH   3   4
ATOM      4  C   UNL     1       5.904   4.382  15.221  0.00  0.00    +0.000 A 
ATOM      5  C   UNL     1       5.258   3.698  14.174  0.00  0.00    +0.000 A 
ATOM      6  C   UNL     1       5.788   3.680  12.875  0.00  0.00    +0.000 A 
ATOM      7  C   UNL     1       6.974   4.347  12.611  0.00  0.00    +0.000 A 
ATOM      8  F   UNL     1       7.482   4.340  11.371  0.00  0.00    +0.000 F 
ATOM      9  C   UNL     1       7.640   5.032  13.617  0.00  0.00    +0.000 A 
ATOM     10  C   UNL     1       7.104   5.050  14.907  0.00  0.00    +0.000 A 
ENDBRANCH   3   4
BRANCH   1  12
ATOM     11  C   UNL     1       3.057   6.383  19.023  0.00  0.00    +0.000 C 
ATOM     12  C   UNL     1       3.202   5.457  17.845  0.00  0.00    +0.000 C 
ATOM     13  N   UNL     1       2.408   4.483  17.526  0.00  0.00    +0.000 NA
BRANCH  13  14
ATOM     14  O   UNL     1       1.320   4.375  18.411  0.00  0.00    +0.000 OA
BRANCH  14  15
ATOM     15  C   UNL     1       1.408   3.218  19.145  0.00  0.00    +0.000 C 
ATOM     16  O   UNL     1       1.679   2.098  18.743  0.00  0.00    +0.000 OA
BRANCH  15  17
ATOM     17  C   UNL     1       1.094   3.485  20.581  0.00  0.00    +0.000 C 
ATOM     18  C   UNL     1       1.511   2.486  21.636  0.00  0.00    +0.000 C 
ATOM     19  C   UNL     1       2.185   3.827  21.571  0.00  0.00    +0.000 C 
ENDBRANCH  15  17
ENDBRANCH  14  15
ENDBRANCH  13  14
ENDBRANCH   1  12
TORSDOF 5
ENDMDL
MODEL 6
REMARK VINA RESULT:      -6.8      1.416      1.719
REMARK  Name = 
REMARK  6 active torsions:
REMARK  status: ('A' for Active; 'I' for Inactive)
REMARK    1  A    between atoms: C_1  and  C_2
REMARK    2  A    between atoms: C_2  and  C_10
REMARK    3  A    between atoms: N_3  and  O_4
REMARK    4  A    between atoms: O_4  and  C_5
REMARK    5  A    between atoms: C_5  and  C_7
REMARK    6  A    between atoms: C_12  and  C_13
REMARK                            x       y       z     vdW  Elec       q    Type
REMARK                         _______ _______ _______ _____ _____    ______ ____
ROOT
ATOM      1  C   UNL     1       4.277   4.282  17.201  0.00  0.00    +0.000 C 
ATOM      2  C   UNL     1       3.104   3.697  16.452  0.00  0.00    +0.000 C 
ATOM      3  C   UNL     1       3.694   2.934  17.609  0.00  0.00    +0.000 C 
ENDROOT
BRANCH   3   4
ATOM      4  C   UNL     1       2.953   2.813  18.927  0.00  0.00    +0.000 A 
ATOM      5  C   UNL     1       3.621   2.605  20.149  0.00  0.00    +0.000 A 
ATOM      6  C   UNL     1       2.922   2.548  21.365  0.00  0.00    +0.000 A 
ATOM      7  C   UNL     1       1.544   2.697  21.369  0.00  0.00    +0.000 A 
ATOM      8  F   UNL     1       0.872   2.650  22.527  0.00  0.00    +0.000 F 
ATOM      9  C   UNL     1       0.851   2.903  20.186  0.00  0.00    +0.000 A 
ATOM     10  C   UNL     1       1.553   2.964  18.979  0.00  0.00    +0.000 A 
ENDBRANCH   3   4
BRANCH   1  12
ATOM     11  C   UNL     1       6.806   4.645  17.370  0.00  0.00    +0.000 C 
ATOM     12  C   UNL     1       5.591   4.412  16.513  0.00  0.00    +0.000 C 
ATOM     13  N   UNL     1       5.556   4.363  15.218  0.00  0.00    +0.000 NA
BRANCH  13  14
ATOM     14  O   UNL     1       6.832   4.528  14.649  0.00  0.00    +0.000 OA
BRANCH  14  15
ATOM     15  C   UNL     1       6.786   4.321  13.292  0.00  0.00    +0.000 C 
ATOM     16  O   UNL     1       7.489   4.830  12.435  0.00  0.00    +0.000 OA
BRANCH  15  17
ATOM     17  C   UNL     1       5.697   3.357  12.948  0.00  0.00    +0.000 C 
ATOM     18  C   UNL     1       4.877   3.571  11.696  0.00  0.00    +0.000 C 
ATOM     19  C   UNL     1       5.828   2.412  11.775  0.00  0.00    +0.000 C 
ENDBRANCH  15  17
ENDBRANCH  14  15
ENDBRANCH  13  14
ENDBRANCH   1  12
TORSDOF 5
ENDMDL
MODEL 7
REMARK VINA RESULT:      -6.8      3.346      4.420
REMARK  Name = 
REMARK  6 active torsions:
REMARK  status: ('A' for Active; 'I' for Inactive)
REMARK    1  A    between atoms: C_1  and  C_2
REMARK    2  A    between atoms: C_2  and  C_10
REMARK    3  A    between atoms: N_3  and  O_4
REMARK    4  A    between atoms: O_4  and  C_5
REMARK    5  A    between atoms: C_5  and  C_7
REMARK    6  A    between atoms: C_12  and  C_13
REMARK                            x       y       z     vdW  Elec       q    Type
REMARK                         _______ _______ _______ _____ _____    ______ ____
ROOT
ATOM      1  C   UNL     1       2.636   5.087  18.280  0.00  0.00    +0.000 C 
ATOM      2  C   UNL     1       2.291   4.969  19.744  0.00  0.00    +0.000 C 
ATOM      3  C   UNL     1       3.025   6.191  19.256  0.00  0.00    +0.000 C 
ENDROOT
BRANCH   3   4
ATOM      4  C   UNL     1       2.332   7.538  19.168  0.00  0.00    +0.000 A 
ATOM      5  C   UNL     1       2.314   8.298  17.983  0.00  0.00    +0.000 A 
ATOM      6  C   UNL     1       1.624   9.517  17.906  0.00  0.00    +0.000 A 
ATOM      7  C   UNL     1       0.945   9.990  19.019  0.00  0.00    +0.000 A 
ATOM      8  F   UNL     1       0.278  11.150  18.950  0.00  0.00    +0.000 F 
ATOM      9  C   UNL     1       0.940   9.270  20.204  0.00  0.00    +0.000 A 
ATOM     10  C   UNL     1       1.625   8.054  20.273  0.00  0.00    +0.000 A 
ENDBRANCH   3   4
BRANCH   1  12
ATOM     11  C   UNL     1       3.295   2.687  17.676  0.00  0.00    +0.000 C 
ATOM     12  C   UNL     1       3.634   4.153  17.688  0.00  0.00    +0.000 C 
ATOM     13  N   UNL     1       4.740   4.695  17.281  0.00  0.00    +0.000 NA
BRANCH  13  14
ATOM     14  O   UNL     1       5.638   3.740  16.769  0.00  0.00    +0.000 OA
BRANCH  14  15
ATOM     15  C   UNL     1       6.656   4.355  16.082  0.00  0.00    +0.000 C 
ATOM     16  O   UNL     1       7.799   4.554  16.461  0.00  0.00    +0.000 OA
BRANCH  15  17
ATOM     17  C   UNL     1       6.182   4.805  14.739  0.00  0.00    +0.000 C 
ATOM     18  C   UNL     1       7.161   4.892  13.591  0.00  0.00    +0.000 C 
ATOM     19  C   UNL     1       6.088   3.842  13.577  0.00  0.00    +0.000 C 
ENDBRANCH  15  17
ENDBRANCH  14  15
ENDBRANCH  13  14
ENDBRANCH   1  12
TORSDOF 5
ENDMDL
MODEL 8
REMARK VINA RESULT:      -6.8      0.847      1.446
REMARK  Name = 
REMARK  6 active torsions:
REMARK  status: ('A' for Active; 'I' for Inactive)
REMARK    1  A    between atoms: C_1  and  C_2
REMARK    2  A    between atoms: C_2  and  C_10
REMARK    3  A    between atoms: N_3  and  O_4
REMARK    4  A    between atoms: O_4  and  C_5
REMARK    5  A    between atoms: C_5  and  C_7
REMARK    6  A    between atoms: C_12  and  C_13
REMARK                            x       y       z     vdW  Elec       q    Type
REMARK                         _______ _______ _______ _____ _____    ______ ____
ROOT
ATOM      1  C   UNL     1       5.072   6.049  17.947  0.00  0.00    +0.000 C 
ATOM      2  C   UNL     1       3.809   6.678  17.413  0.00  0.00    +0.000 C 
ATOM      3  C   UNL     1       3.854   5.188  17.633  0.00  0.00    +0.000 C 
ENDROOT
BRANCH   3   4
ATOM      4  C   UNL     1       3.089   4.541  18.772  0.00  0.00    +0.000 A 
ATOM      5  C   UNL     1       1.906   5.097  19.295  0.00  0.00    +0.000 A 
ATOM      6  C   UNL     1       1.184   4.458  20.313  0.00  0.00    +0.000 A 
ATOM      7  C   UNL     1       1.641   3.252  20.822  0.00  0.00    +0.000 A 
ATOM      8  F   UNL     1       0.952   2.632  21.790  0.00  0.00    +0.000 F 
ATOM      9  C   UNL     1       2.802   2.672  20.333  0.00  0.00    +0.000 A 
ATOM     10  C   UNL     1       3.514   3.313  19.315  0.00  0.00    +0.000 A 
ENDBRANCH   3   4
BRANCH   1  12
ATOM     11  C   UNL     1       7.419   6.966  17.491  0.00  0.00    +0.000 C 
ATOM     12  C   UNL     1       6.298   6.041  17.101  0.00  0.00    +0.000 C 
ATOM     13  N   UNL     1       6.262   5.264  16.064  0.00  0.00    +0.000 NA
BRANCH  13  14
ATOM     14  O   UNL     1       7.443   5.343  15.303  0.00  0.00    +0.000 OA
BRANCH  14  15
ATOM     15  C   UNL     1       7.182   5.088  13.979  0.00  0.00    +0.000 C 
ATOM     16  O   UNL     1       7.678   5.629  13.004  0.00  0.00    +0.000 OA
BRANCH  15  17
ATOM     17  C   UNL     1       6.142   4.024  13.848  0.00  0.00    +0.000 C 
ATOM     18  C   UNL     1       5.222   4.021  12.648  0.00  0.00    +0.000 C 
ATOM     19  C   UNL     1       6.256   2.942  12.796  0.00  0.00    +0.000 C 
ENDBRANCH  15  17
ENDBRANCH  14  15
ENDBRANCH  13  14
ENDBRANCH   1  12
TORSDOF 5
ENDMDL
MODEL 9
REMARK VINA RESULT:      -6.8      1.486      1.859
REMARK  Name = 
REMARK  6 active torsions:
REMARK  status: ('A' for Active; 'I' for Inactive)
REMARK    1  A    between atoms: C_1  and  C_2
REMARK    2  A    between atoms: C_2  and  C_10
REMARK    3  A    between atoms: N_3  and  O_4
REMARK    4  A    between atoms: O_4  and  C_5
REMARK    5  A    between atoms: C_5  and  C_7
REMARK    6  A    between atoms: C_12  and  C_13
REMARK                            x       y       z     vdW  Elec       q    Type
REMARK                         _______ _______ _______ _____ _____    ______ ____
ROOT
ATOM      1  C   UNL     1       5.352   5.708  17.805  0.00  0.00    +0.000 C 
ATOM      2  C   UNL     1       4.384   6.844  18.027  0.00  0.00    +0.000 C 
ATOM      3  C   UNL     1       3.920   5.614  17.291  0.00  0.00    +0.000 C 
ENDROOT
BRANCH   3   4
ATOM      4  C   UNL     1       2.962   4.629  17.936  0.00  0.00    +0.000 A 
ATOM      5  C   UNL     1       2.159   4.974  19.040  0.00  0.00    +0.000 A 
ATOM      6  C   UNL     1       1.243   4.066  19.590  0.00  0.00    +0.000 A 
ATOM      7  C   UNL     1       1.121   2.799  19.041  0.00  0.00    +0.000 A 
ATOM      8  F   UNL     1       0.243   1.929  19.557  0.00  0.00    +0.000 F 
ATOM      9  C   UNL     1       1.895   2.422  17.953  0.00  0.00    +0.000 A 
ATOM     10  C   UNL     1       2.803   3.333  17.407  0.00  0.00    +0.000 A 
ENDBRANCH   3   4
BRANCH   1  12
ATOM     11  C   UNL     1       7.365   7.132  17.115  0.00  0.00    +0.000 C 
ATOM     12  C   UNL     1       6.516   5.908  16.899  0.00  0.00    +0.000 C 
ATOM     13  N   UNL     1       6.660   5.023  15.962  0.00  0.00    +0.000 NA
BRANCH  13  14
ATOM     14  O   UNL     1       7.761   5.306  15.133  0.00  0.00    +0.000 OA
BRANCH  14  15
ATOM     15  C   UNL     1       7.464   5.019  13.823  0.00  0.00    +0.000 C 
ATOM     16  O   UNL     1       7.869   5.591  12.824  0.00  0.00    +0.000 OA
BRANCH  15  17
ATOM     17  C   UNL     1       6.513   3.870  13.742  0.00  0.00    +0.000 C 
ATOM     18  C   UNL     1       5.144   4.074  13.135  0.00  0.00    +0.000 C 
ATOM     19  C   UNL     1       6.161   3.235  12.416  0.00  0.00    +0.000 C 
ENDBRANCH  15  17
ENDBRANCH  14  15
ENDBRANCH  13  14
ENDBRANCH   1  12
TORSDOF 5
ENDMDL
