MODEL 1
REMARK VINA RESULT:      -8.0      0.000      0.000
REMARK  Name = 
REMARK  5 active torsions:
REMARK  status: ('A' for Active; 'I' for Inactive)
REMARK    1  A    between atoms: C_2  and  C_12
REMARK    2  A    between atoms: N_3  and  C_4
REMARK    3  A    between atoms: C_4  and  C_5
REMARK    4  A    between atoms: C_5  and  N_6
REMARK    5  A    between atoms: C_12  and  C_14
REMARK                            x       y       z     vdW  Elec       q    Type
REMARK                         _______ _______ _______ _____ _____    ______ ____
ROOT
ATOM      1  C   UNL     1       7.554   5.890  18.451  0.00  0.00    +0.000 C 
ATOM      2  O   UNL     1       8.261   5.522  19.389  0.00  0.00    +0.000 OA
ENDROOT
BRANCH   1   3
ATOM      3  C   UNL     1       6.575   5.025  17.809  0.00  0.00    +0.000 A 
ATOM      4  C   UNL     1       6.798   4.357  16.624  0.00  0.00    +0.000 A 
ATOM      5  N   UNL     1       5.713   3.576  16.350  0.00  0.00    +0.000 N 
ATOM      6  C   UNL     1       4.760   3.739  17.330  0.00  0.00    +0.000 A 
ATOM      7  C   UNL     1       3.507   3.126  17.470  0.00  0.00    +0.000 A 
ATOM      8  C   UNL     1       2.735   3.480  18.578  0.00  0.00    +0.000 A 
ATOM      9 BR   UNL     1       1.050   2.654  18.829  0.00  0.00    +0.000 Br
ATOM     10  C   UNL     1       3.181   4.419  19.501  0.00  0.00    +0.000 A 
ATOM     11  C   UNL     1       4.435   5.023  19.345  0.00  0.00    +0.000 A 
ATOM     12  C   UNL     1       5.256   4.664  18.251  0.00  0.00    +0.000 A 
ATOM     13  H   UNL     1       5.620   2.952  15.564  0.00  0.00    +0.000 HD
ENDBRANCH   1   3
BRANCH   1  15
ATOM     14  O   UNL     1       7.155   7.692  16.952  0.00  0.00    +0.000 OA
ATOM     15  C   UNL     1       7.704   7.336  17.982  0.00  0.00    +0.000 C 
ATOM     16  N   UNL     1       8.497   8.147  18.773  0.00  0.00    +0.000 N 
ATOM     17  H   UNL     1       9.065   7.711  19.490  0.00  0.00    +0.000 HD
BRANCH  16  18
ATOM     18  C   UNL     1       8.786   9.508  18.365  0.00  0.00    +0.000 C 
BRANCH  18  19
ATOM     19  C   UNL     1       9.341  10.419  19.495  0.00  0.00    +0.000 C 
BRANCH  19  20
ATOM     20  N   UNL     1      10.606  11.094  19.138  0.00  0.00    +0.000 NA
ATOM     21  C   UNL     1      11.088  11.984  20.225  0.00  0.00    +0.000 C 
ATOM     22  C   UNL     1      10.355  13.337  20.364  0.00  0.00    +0.000 C 
ATOM     23  O   UNL     1      10.200  14.025  19.116  0.00  0.00    +0.000 OA
ATOM     24  C   UNL     1       9.628  13.178  18.114  0.00  0.00    +0.000 C 
ATOM     25  C   UNL     1      10.493  11.926  17.919  0.00  0.00    +0.000 C 
ENDBRANCH  19  20
ENDBRANCH  18  19
ENDBRANCH  16  18
ENDBRANCH   1  15
TORSDOF 5
ENDMDL
MODEL 2
REMARK VINA RESULT:      -8.0      0.670      1.294
REMARK  Name = 
REMARK  5 active torsions:
REMARK  status: ('A' for Active; 'I' for Inactive)
REMARK    1  A    between atoms: C_2  and  C_12
REMARK    2  A    between atoms: N_3  and  C_4
REMARK    3  A    between atoms: C_4  and  C_5
REMARK    4  A    between atoms: C_5  and  N_6
REMARK    5  A    between atoms: C_12  and  C_14
REMARK                            x       y       z     vdW  Elec       q    Type
REMARK                         _______ _______ _______ _____ _____    ______ ____
ROOT
ATOM      1  C   UNL     1       7.571   5.873  18.440  0.00  0.00    +0.000 C 
ATOM      2  O   UNL     1       8.283   5.492  19.368  0.00  0.00    +0.000 OA
ENDROOT
BRANCH   1   3
ATOM      3  C   UNL     1       6.590   5.017  17.788  0.00  0.00    +0.000 A 
ATOM      4  C   UNL     1       6.814   4.357  16.599  0.00  0.00    +0.000 A 
ATOM      5  N   UNL     1       5.727   3.582  16.317  0.00  0.00    +0.000 N 
ATOM      6  C   UNL     1       4.772   3.742  17.296  0.00  0.00    +0.000 A 
ATOM      7  C   UNL     1       3.516   3.133  17.428  0.00  0.00    +0.000 A 
ATOM      8  C   UNL     1       2.743   3.481  18.536  0.00  0.00    +0.000 A 
ATOM      9 BR   UNL     1       1.054   2.660  18.777  0.00  0.00    +0.000 Br
ATOM     10  C   UNL     1       3.190   4.411  19.467  0.00  0.00    +0.000 A 
ATOM     11  C   UNL     1       4.446   5.012  19.319  0.00  0.00    +0.000 A 
ATOM     12  C   UNL     1       5.269   4.658  18.224  0.00  0.00    +0.000 A 
ATOM     13  H   UNL     1       5.633   2.965  15.526  0.00  0.00    +0.000 HD
ENDBRANCH   1   3
BRANCH   1  15
ATOM     14  O   UNL     1       7.217   7.683  16.937  0.00  0.00    +0.000 OA
ATOM     15  C   UNL     1       7.717   7.326  17.993  0.00  0.00    +0.000 C 
ATOM     16  N   UNL     1       8.449   8.146  18.833  0.00  0.00    +0.000 N 
ATOM     17  H   UNL     1       8.986   7.713  19.576  0.00  0.00    +0.000 HD
BRANCH  16  18
ATOM     18  C   UNL     1       8.732   9.516  18.454  0.00  0.00    +0.000 C 
BRANCH  18  19
ATOM     19  C   UNL     1       9.543  10.324  19.505  0.00  0.00    +0.000 C 
BRANCH  19  20
ATOM     20  N   UNL     1       9.451  11.788  19.318  0.00  0.00    +0.000 NA
ATOM     21  C   UNL     1       9.773  12.192  17.926  0.00  0.00    +0.000 C 
ATOM     22  C   UNL     1      11.273  12.195  17.555  0.00  0.00    +0.000 C 
ATOM     23  O   UNL     1      12.093  12.858  18.525  0.00  0.00    +0.000 OA
ATOM     24  C   UNL     1      11.844  12.370  19.848  0.00  0.00    +0.000 C 
ATOM     25  C   UNL     1      10.363  12.541  20.208  0.00  0.00    +0.000 C 
ENDBRANCH  19  20
ENDBRANCH  18  19
ENDBRANCH  16  18
ENDBRANCH   1  15
TORSDOF 5
ENDMDL
MODEL 3
REMARK VINA RESULT:      -7.7      1.310      1.740
REMARK  Name = 
REMARK  5 active torsions:
REMARK  status: ('A' for Active; 'I' for Inactive)
REMARK    1  A    between atoms: C_2  and  C_12
REMARK    2  A    between atoms: N_3  and  C_4
REMARK    3  A    between atoms: C_4  and  C_5
REMARK    4  A    between atoms: C_5  and  N_6
REMARK    5  A    between atoms: C_12  and  C_14
REMARK                            x       y       z     vdW  Elec       q    Type
REMARK                         _______ _______ _______ _____ _____    ______ ____
ROOT
ATOM      1  C   UNL     1       5.884   6.325  16.744  0.00  0.00    +0.000 C 
ATOM      2  O   UNL     1       5.566   7.011  15.773  0.00  0.00    +0.000 OA
ENDROOT
BRANCH   1   3
ATOM      3  C   UNL     1       5.201   5.089  17.099  0.00  0.00    +0.000 A 
ATOM      4  C   UNL     1       5.355   3.901  16.417  0.00  0.00    +0.000 A 
ATOM      5  N   UNL     1       4.643   2.931  17.059  0.00  0.00    +0.000 N 
ATOM      6  C   UNL     1       3.995   3.470  18.148  0.00  0.00    +0.000 A 
ATOM      7  C   UNL     1       3.175   2.848  19.099  0.00  0.00    +0.000 A 
ATOM      8  C   UNL     1       2.644   3.644  20.115  0.00  0.00    +0.000 A 
ATOM      9 BR   UNL     1       1.559   2.843  21.443  0.00  0.00    +0.000 Br
ATOM     10  C   UNL     1       2.902   5.009  20.173  0.00  0.00    +0.000 A 
ATOM     11  C   UNL     1       3.721   5.616  19.213  0.00  0.00    +0.000 A 
ATOM     12  C   UNL     1       4.301   4.832  18.189  0.00  0.00    +0.000 A 
ATOM     13  H   UNL     1       4.604   1.958  16.799  0.00  0.00    +0.000 HD
ENDBRANCH   1   3
BRANCH   1  15
ATOM     14  O   UNL     1       7.627   6.007  18.330  0.00  0.00    +0.000 OA
ATOM     15  C   UNL     1       7.076   6.793  17.576  0.00  0.00    +0.000 C 
ATOM     16  N   UNL     1       7.434   8.120  17.424  0.00  0.00    +0.000 N 
ATOM     17  H   UNL     1       6.796   8.735  16.930  0.00  0.00    +0.000 HD
BRANCH  16  18
ATOM     18  C   UNL     1       8.486   8.692  18.241  0.00  0.00    +0.000 C 
BRANCH  18  19
ATOM     19  C   UNL     1       8.600  10.240  18.161  0.00  0.00    +0.000 C 
BRANCH  19  20
ATOM     20  N   UNL     1       9.866  10.765  18.713  0.00  0.00    +0.000 NA
ATOM     21  C   UNL     1       9.652  11.519  19.974  0.00  0.00    +0.000 C 
ATOM     22  C   UNL     1       9.078  12.945  19.819  0.00  0.00    +0.000 C 
ATOM     23  O   UNL     1       9.756  13.720  18.822  0.00  0.00    +0.000 OA
ATOM     24  C   UNL     1       9.850  13.015  17.579  0.00  0.00    +0.000 C 
ATOM     25  C   UNL     1      10.569  11.675  17.781  0.00  0.00    +0.000 C 
ENDBRANCH  19  20
ENDBRANCH  18  19
ENDBRANCH  16  18
ENDBRANCH   1  15
TORSDOF 5
ENDMDL
MODEL 4
REMARK VINA RESULT:      -7.5      1.428      2.000
REMARK  Name = 
REMARK  5 active torsions:
REMARK  status: ('A' for Active; 'I' for Inactive)
REMARK    1  A    between atoms: C_2  and  C_12
REMARK    2  A    between atoms: N_3  and  C_4
REMARK    3  A    between atoms: C_4  and  C_5
REMARK    4  A    between atoms: C_5  and  N_6
REMARK    5  A    between atoms: C_12  and  C_14
REMARK                            x       y       z     vdW  Elec       q    Type
REMARK                         _______ _______ _______ _____ _____    ______ ____
ROOT
ATOM      1  C   UNL     1       5.978   6.417  16.736  0.00  0.00    +0.000 C 
ATOM      2  O   UNL     1       5.650   7.070  15.745  0.00  0.00    +0.000 OA
ENDROOT
BRANCH   1   3
ATOM      3  C   UNL     1       5.334   5.167  17.111  0.00  0.00    +0.000 A 
ATOM      4  C   UNL     1       5.558   3.965  16.475  0.00  0.00    +0.000 A 
ATOM      5  N   UNL     1       4.864   2.988  17.127  0.00  0.00    +0.000 N 
ATOM      6  C   UNL     1       4.159   3.536  18.175  0.00  0.00    +0.000 A 
ATOM      7  C   UNL     1       3.332   2.912  19.120  0.00  0.00    +0.000 A 
ATOM      8  C   UNL     1       2.736   3.719  20.090  0.00  0.00    +0.000 A 
ATOM      9 BR   UNL     1       1.639   2.918  21.408  0.00  0.00    +0.000 Br
ATOM     10  C   UNL     1       2.937   5.094  20.110  0.00  0.00    +0.000 A 
ATOM     11  C   UNL     1       3.763   5.702  19.157  0.00  0.00    +0.000 A 
ATOM     12  C   UNL     1       4.408   4.909  18.179  0.00  0.00    +0.000 A 
ATOM     13  H   UNL     1       4.873   2.006  16.899  0.00  0.00    +0.000 HD
ENDBRANCH   1   3
BRANCH   1  15
ATOM     14  O   UNL     1       7.733   6.187  18.325  0.00  0.00    +0.000 OA
ATOM     15  C   UNL     1       7.142   6.946  17.572  0.00  0.00    +0.000 C 
ATOM     16  N   UNL     1       7.429   8.291  17.425  0.00  0.00    +0.000 N 
ATOM     17  H   UNL     1       6.761   8.872  16.932  0.00  0.00    +0.000 HD
BRANCH  16  18
ATOM     18  C   UNL     1       8.448   8.914  18.246  0.00  0.00    +0.000 C 
BRANCH  18  19
ATOM     19  C   UNL     1       8.886  10.328  17.771  0.00  0.00    +0.000 C 
BRANCH  19  20
ATOM     20  N   UNL     1       9.092  11.283  18.881  0.00  0.00    +0.000 NA
ATOM     21  C   UNL     1       8.938  12.691  18.437  0.00  0.00    +0.000 C 
ATOM     22  C   UNL     1      10.127  13.284  17.649  0.00  0.00    +0.000 C 
ATOM     23  O   UNL     1      11.395  13.038  18.270  0.00  0.00    +0.000 OA
ATOM     24  C   UNL     1      11.567  11.652  18.585  0.00  0.00    +0.000 C 
ATOM     25  C   UNL     1      10.433  11.170  19.498  0.00  0.00    +0.000 C 
ENDBRANCH  19  20
ENDBRANCH  18  19
ENDBRANCH  16  18
ENDBRANCH   1  15
TORSDOF 5
ENDMDL
MODEL 5
REMARK VINA RESULT:      -7.4      1.915      2.491
REMARK  Name = 
REMARK  5 active torsions:
REMARK  status: ('A' for Active; 'I' for Inactive)
REMARK    1  A    between atoms: C_2  and  C_12
REMARK    2  A    between atoms: N_3  and  C_4
REMARK    3  A    between atoms: C_4  and  C_5
REMARK    4  A    between atoms: C_5  and  N_6
REMARK    5  A    between atoms: C_12  and  C_14
REMARK                            x       y       z     vdW  Elec       q    Type
REMARK                         _______ _______ _______ _____ _____    ______ ____
ROOT
ATOM      1  C   UNL     1       5.548   6.639  16.733  0.00  0.00    +0.000 C 
ATOM      2  O   UNL     1       5.518   6.433  15.520  0.00  0.00    +0.000 OA
ENDROOT
BRANCH   1   3
ATOM      3  C   UNL     1       4.366   6.560  17.580  0.00  0.00    +0.000 A 
ATOM      4  C   UNL     1       3.377   7.520  17.613  0.00  0.00    +0.000 A 
ATOM      5  N   UNL     1       2.383   7.097  18.445  0.00  0.00    +0.000 N 
ATOM      6  C   UNL     1       2.715   5.876  18.987  0.00  0.00    +0.000 A 
ATOM      7  C   UNL     1       1.991   5.062  19.870  0.00  0.00    +0.000 A 
ATOM      8  C   UNL     1       2.572   3.855  20.260  0.00  0.00    +0.000 A 
ATOM      9 BR   UNL     1       1.618   2.707  21.425  0.00  0.00    +0.000 Br
ATOM     10  C   UNL     1       3.831   3.478  19.808  0.00  0.00    +0.000 A 
ATOM     11  C   UNL     1       4.542   4.304  18.928  0.00  0.00    +0.000 A 
ATOM     12  C   UNL     1       3.968   5.519  18.487  0.00  0.00    +0.000 A 
ATOM     13  H   UNL     1       1.521   7.585  18.629  0.00  0.00    +0.000 HD
ENDBRANCH   1   3
BRANCH   1  15
ATOM     14  O   UNL     1       7.557   6.050  17.861  0.00  0.00    +0.000 OA
ATOM     15  C   UNL     1       6.904   6.953  17.360  0.00  0.00    +0.000 C 
ATOM     16  N   UNL     1       7.289   8.281  17.334  0.00  0.00    +0.000 N 
ATOM     17  H   UNL     1       6.596   8.975  17.078  0.00  0.00    +0.000 HD
BRANCH  16  18
ATOM     18  C   UNL     1       8.511   8.701  17.990  0.00  0.00    +0.000 C 
BRANCH  18  19
ATOM     19  C   UNL     1       8.516  10.183  18.462  0.00  0.00    +0.000 C 
BRANCH  19  20
ATOM     20  N   UNL     1       9.851  10.662  18.877  0.00  0.00    +0.000 NA
ATOM     21  C   UNL     1       9.794  11.435  20.144  0.00  0.00    +0.000 C 
ATOM     22  C   UNL     1       9.263  12.881  20.029  0.00  0.00    +0.000 C 
ATOM     23  O   UNL     1       9.866  13.620  18.959  0.00  0.00    +0.000 OA
ATOM     24  C   UNL     1       9.806  12.901  17.722  0.00  0.00    +0.000 C 
ATOM     25  C   UNL     1      10.490  11.536  17.867  0.00  0.00    +0.000 C 
ENDBRANCH  19  20
ENDBRANCH  18  19
ENDBRANCH  16  18
ENDBRANCH   1  15
TORSDOF 5
ENDMDL
MODEL 6
REMARK VINA RESULT:      -7.4      1.605      2.016
REMARK  Name = 
REMARK  5 active torsions:
REMARK  status: ('A' for Active; 'I' for Inactive)
REMARK    1  A    between atoms: C_2  and  C_12
REMARK    2  A    between atoms: N_3  and  C_4
REMARK    3  A    between atoms: C_4  and  C_5
REMARK    4  A    between atoms: C_5  and  N_6
REMARK    5  A    between atoms: C_12  and  C_14
REMARK                            x       y       z     vdW  Elec       q    Type
REMARK                         _______ _______ _______ _____ _____    ______ ____
ROOT
ATOM      1  C   UNL     1       6.790   6.524  17.103  0.00  0.00    +0.000 C 
ATOM      2  O   UNL     1       7.252   6.053  16.064  0.00  0.00    +0.000 OA
ENDROOT
BRANCH   1   3
ATOM      3  C   UNL     1       5.387   6.406  17.473  0.00  0.00    +0.000 A 
ATOM      4  C   UNL     1       4.412   7.301  17.088  0.00  0.00    +0.000 A 
ATOM      5  N   UNL     1       3.203   6.851  17.534  0.00  0.00    +0.000 N 
ATOM      6  C   UNL     1       3.371   5.677  18.235  0.00  0.00    +0.000 A 
ATOM      7  C   UNL     1       2.414   4.857  18.849  0.00  0.00    +0.000 A 
ATOM      8  C   UNL     1       2.868   3.708  19.497  0.00  0.00    +0.000 A 
ATOM      9 BR   UNL     1       1.610   2.552  20.312  0.00  0.00    +0.000 Br
ATOM     10  C   UNL     1       4.221   3.394  19.551  0.00  0.00    +0.000 A 
ATOM     11  C   UNL     1       5.165   4.225  18.934  0.00  0.00    +0.000 A 
ATOM     12  C   UNL     1       4.735   5.381  18.241  0.00  0.00    +0.000 A 
ATOM     13  H   UNL     1       2.312   7.289  17.365  0.00  0.00    +0.000 HD
ENDBRANCH   1   3
BRANCH   1  15
ATOM     14  O   UNL     1       8.270   6.600  18.964  0.00  0.00    +0.000 OA
ATOM     15  C   UNL     1       7.762   7.228  18.048  0.00  0.00    +0.000 C 
ATOM     16  N   UNL     1       7.978   8.572  17.801  0.00  0.00    +0.000 N 
ATOM     17  H   UNL     1       7.363   9.044  17.148  0.00  0.00    +0.000 HD
BRANCH  16  18
ATOM     18  C   UNL     1       8.803   9.356  18.698  0.00  0.00    +0.000 C 
BRANCH  18  19
ATOM     19  C   UNL     1       9.115  10.795  18.198  0.00  0.00    +0.000 C 
BRANCH  19  20
ATOM     20  N   UNL     1      10.248  11.429  18.905  0.00  0.00    +0.000 NA
ATOM     21  C   UNL     1       9.832  12.654  19.634  0.00  0.00    +0.000 C 
ATOM     22  C   UNL     1       9.612  13.914  18.767  0.00  0.00    +0.000 C 
ATOM     23  O   UNL     1      10.682  14.157  17.845  0.00  0.00    +0.000 OA
ATOM     24  C   UNL     1      10.988  12.992  17.073  0.00  0.00    +0.000 C 
ATOM     25  C   UNL     1      11.349  11.821  17.997  0.00  0.00    +0.000 C 
ENDBRANCH  19  20
ENDBRANCH  18  19
ENDBRANCH  16  18
ENDBRANCH   1  15
TORSDOF 5
ENDMDL
MODEL 7
REMARK VINA RESULT:      -7.3      1.317      1.718
REMARK  Name = 
REMARK  5 active torsions:
REMARK  status: ('A' for Active; 'I' for Inactive)
REMARK    1  A    between atoms: C_2  and  C_12
REMARK    2  A    between atoms: N_3  and  C_4
REMARK    3  A    between atoms: C_4  and  C_5
REMARK    4  A    between atoms: C_5  and  N_6
REMARK    5  A    between atoms: C_12  and  C_14
REMARK                            x       y       z     vdW  Elec       q    Type
REMARK                         _______ _______ _______ _____ _____    ______ ____
ROOT
ATOM      1  C   UNL     1       6.695   6.999  17.340  0.00  0.00    +0.000 C 
ATOM      2  O   UNL     1       6.345   7.493  16.268  0.00  0.00    +0.000 OA
ENDROOT
BRANCH   1   3
ATOM      3  C   UNL     1       6.118   5.773  17.874  0.00  0.00    +0.000 A 
ATOM      4  C   UNL     1       6.821   4.598  18.035  0.00  0.00    +0.000 A 
ATOM      5  N   UNL     1       6.009   3.679  18.632  0.00  0.00    +0.000 N 
ATOM      6  C   UNL     1       4.763   4.226  18.845  0.00  0.00    +0.000 A 
ATOM      7  C   UNL     1       3.629   3.660  19.445  0.00  0.00    +0.000 A 
ATOM      8  C   UNL     1       2.483   4.452  19.535  0.00  0.00    +0.000 A 
ATOM      9 BR   UNL     1       0.937   3.744  20.367  0.00  0.00    +0.000 Br
ATOM     10  C   UNL     1       2.457   5.748  19.033  0.00  0.00    +0.000 A 
ATOM     11  C   UNL     1       3.598   6.297  18.435  0.00  0.00    +0.000 A 
ATOM     12  C   UNL     1       4.786   5.533  18.356  0.00  0.00    +0.000 A 
ATOM     13  H   UNL     1       6.273   2.746  18.902  0.00  0.00    +0.000 HD
ENDBRANCH   1   3
BRANCH   1  15
ATOM     14  O   UNL     1       8.478   7.070  18.912  0.00  0.00    +0.000 OA
ATOM     15  C   UNL     1       7.812   7.702  18.107  0.00  0.00    +0.000 C 
ATOM     16  N   UNL     1       7.971   9.050  17.841  0.00  0.00    +0.000 N 
ATOM     17  H   UNL     1       7.246   9.523  17.313  0.00  0.00    +0.000 HD
BRANCH  16  18
ATOM     18  C   UNL     1       8.934   9.834  18.588  0.00  0.00    +0.000 C 
BRANCH  18  19
ATOM     19  C   UNL     1       9.117  11.291  18.080  0.00  0.00    +0.000 C 
BRANCH  19  20
ATOM     20  N   UNL     1      10.528  11.650  17.820  0.00  0.00    +0.000 NA
ATOM     21  C   UNL     1      11.361  11.548  19.044  0.00  0.00    +0.000 C 
ATOM     22  C   UNL     1      11.210  12.701  20.061  0.00  0.00    +0.000 C 
ATOM     23  O   UNL     1      11.276  13.999  19.456  0.00  0.00    +0.000 OA
ATOM     24  C   UNL     1      10.378  14.109  18.346  0.00  0.00    +0.000 C 
ATOM     25  C   UNL     1      10.687  13.028  17.303  0.00  0.00    +0.000 C 
ENDBRANCH  19  20
ENDBRANCH  18  19
ENDBRANCH  16  18
ENDBRANCH   1  15
TORSDOF 5
ENDMDL
MODEL 8
REMARK VINA RESULT:      -7.3      1.769      2.334
REMARK  Name = 
REMARK  5 active torsions:
REMARK  status: ('A' for Active; 'I' for Inactive)
REMARK    1  A    between atoms: C_2  and  C_12
REMARK    2  A    between atoms: N_3  and  C_4
REMARK    3  A    between atoms: C_4  and  C_5
REMARK    4  A    between atoms: C_5  and  N_6
REMARK    5  A    between atoms: C_12  and  C_14
REMARK                            x       y       z     vdW  Elec       q    Type
REMARK                         _______ _______ _______ _____ _____    ______ ____
ROOT
ATOM      1  C   UNL     1       5.834   6.538  16.603  0.00  0.00    +0.000 C 
ATOM      2  O   UNL     1       5.997   6.313  15.404  0.00  0.00    +0.000 OA
ENDROOT
BRANCH   1   3
ATOM      3  C   UNL     1       4.549   6.388  17.271  0.00  0.00    +0.000 A 
ATOM      4  C   UNL     1       3.751   7.445  17.652  0.00  0.00    +0.000 A 
ATOM      5  N   UNL     1       2.590   6.954  18.172  0.00  0.00    +0.000 N 
ATOM      6  C   UNL     1       2.620   5.577  18.164  0.00  0.00    +0.000 A 
ATOM      7  C   UNL     1       1.646   4.659  18.579  0.00  0.00    +0.000 A 
ATOM      8  C   UNL     1       1.942   3.301  18.454  0.00  0.00    +0.000 A 
ATOM      9 BR   UNL     1       0.645   2.022  18.969  0.00  0.00    +0.000 Br
ATOM     10  C   UNL     1       3.166   2.871  17.954  0.00  0.00    +0.000 A 
ATOM     11  C   UNL     1       4.130   3.802  17.546  0.00  0.00    +0.000 A 
ATOM     12  C   UNL     1       3.849   5.185  17.630  0.00  0.00    +0.000 A 
ATOM     13  H   UNL     1       1.810   7.503  18.497  0.00  0.00    +0.000 HD
ENDBRANCH   1   3
BRANCH   1  15
ATOM     14  O   UNL     1       7.657   6.121  18.073  0.00  0.00    +0.000 OA
ATOM     15  C   UNL     1       7.059   6.957  17.413  0.00  0.00    +0.000 C 
ATOM     16  N   UNL     1       7.392   8.298  17.353  0.00  0.00    +0.000 N 
ATOM     17  H   UNL     1       6.724   8.940  16.942  0.00  0.00    +0.000 HD
BRANCH  16  18
ATOM     18  C   UNL     1       8.476   8.818  18.162  0.00  0.00    +0.000 C 
BRANCH  18  19
ATOM     19  C   UNL     1       8.652  10.361  18.094  0.00  0.00    +0.000 C 
BRANCH  19  20
ATOM     20  N   UNL     1       9.887  10.841  18.750  0.00  0.00    +0.000 NA
ATOM     21  C   UNL     1       9.597  11.588  20.000  0.00  0.00    +0.000 C 
ATOM     22  C   UNL     1       9.080  13.033  19.818  0.00  0.00    +0.000 C 
ATOM     23  O   UNL     1       9.858  13.797  18.887  0.00  0.00    +0.000 OA
ATOM     24  C   UNL     1      10.027  13.102  17.647  0.00  0.00    +0.000 C 
ATOM     25  C   UNL     1      10.688  11.738  17.888  0.00  0.00    +0.000 C 
ENDBRANCH  19  20
ENDBRANCH  18  19
ENDBRANCH  16  18
ENDBRANCH   1  15
TORSDOF 5
ENDMDL
MODEL 9
REMARK VINA RESULT:      -7.3      1.632      2.200
REMARK  Name = 
REMARK  5 active torsions:
REMARK  status: ('A' for Active; 'I' for Inactive)
REMARK    1  A    between atoms: C_2  and  C_12
REMARK    2  A    between atoms: N_3  and  C_4
REMARK    3  A    between atoms: C_4  and  C_5
REMARK    4  A    between atoms: C_5  and  N_6
REMARK    5  A    between atoms: C_12  and  C_14
REMARK                            x       y       z     vdW  Elec       q    Type
REMARK                         _______ _______ _______ _____ _____    ______ ____
ROOT
ATOM      1  C   UNL     1       6.855   6.218  17.236  0.00  0.00    +0.000 C 
ATOM      2  O   UNL     1       7.385   5.556  16.344  0.00  0.00    +0.000 OA
ENDROOT
BRANCH   1   3
ATOM      3  C   UNL     1       5.420   6.213  17.482  0.00  0.00    +0.000 A 
ATOM      4  C   UNL     1       4.613   7.322  17.351  0.00  0.00    +0.000 A 
ATOM      5  N   UNL     1       3.319   6.952  17.575  0.00  0.00    +0.000 N 
ATOM      6  C   UNL     1       3.263   5.610  17.879  0.00  0.00    +0.000 A 
ATOM      7  C   UNL     1       2.152   4.801  18.159  0.00  0.00    +0.000 A 
ATOM      8  C   UNL     1       2.387   3.454  18.434  0.00  0.00    +0.000 A 
ATOM      9 BR   UNL     1       0.915   2.315  18.784  0.00  0.00    +0.000 Br
ATOM     10  C   UNL     1       3.675   2.932  18.452  0.00  0.00    +0.000 A 
ATOM     11  C   UNL     1       4.774   3.754  18.173  0.00  0.00    +0.000 A 
ATOM     12  C   UNL     1       4.569   5.117  17.858  0.00  0.00    +0.000 A 
ATOM     13  H   UNL     1       2.514   7.554  17.509  0.00  0.00    +0.000 HD
ENDBRANCH   1   3
BRANCH   1  15
ATOM     14  O   UNL     1       8.289   6.521  19.110  0.00  0.00    +0.000 OA
ATOM     15  C   UNL     1       7.771   7.045  18.135  0.00  0.00    +0.000 C 
ATOM     16  N   UNL     1       7.927   8.373  17.780  0.00  0.00    +0.000 N 
ATOM     17  H   UNL     1       7.305   8.758  17.079  0.00  0.00    +0.000 HD
BRANCH  16  18
ATOM     18  C   UNL     1       8.694   9.269  18.622  0.00  0.00    +0.000 C 
BRANCH  18  19
ATOM     19  C   UNL     1       9.068  10.623  17.955  0.00  0.00    +0.000 C 
BRANCH  19  20
ATOM     20  N   UNL     1       9.312  11.709  18.927  0.00  0.00    +0.000 NA
ATOM     21  C   UNL     1       9.395  13.037  18.268  0.00  0.00    +0.000 C 
ATOM     22  C   UNL     1      10.717  13.342  17.530  0.00  0.00    +0.000 C 
ATOM     23  O   UNL     1      11.881  13.041  18.310  0.00  0.00    +0.000 OA
ATOM     24  C   UNL     1      11.830  11.713  18.842  0.00  0.00    +0.000 C 
ATOM     25  C   UNL     1      10.566  11.529  19.692  0.00  0.00    +0.000 C 
ENDBRANCH  19  20
ENDBRANCH  18  19
ENDBRANCH  16  18
ENDBRANCH   1  15
TORSDOF 5
ENDMDL
