MODEL 1
REMARK VINA RESULT:      -7.9      0.000      0.000
REMARK  Name = 
REMARK  7 active torsions:
REMARK  status: ('A' for Active; 'I' for Inactive)
REMARK    1  A    between atoms: C_2  and  C_18
REMARK    2  A    between atoms: N_3  and  C_4
REMARK    3  A    between atoms: C_4  and  C_5
REMARK    4  A    between atoms: C_5  and  C_6
REMARK    5  A    between atoms: C_6  and  N_7
REMARK    6  A    between atoms: N_7  and  C_8
REMARK    7  A    between atoms: C_11  and  N_12
REMARK                            x       y       z     vdW  Elec       q    Type
REMARK                         _______ _______ _______ _____ _____    ______ ____
ROOT
ATOM      1  C   UNL     1       7.494   5.239  17.982  0.00  0.00    +0.000 C 
ENDROOT
BRANCH   1   2
ATOM      2  C   UNL     1       6.719   5.431  19.283  0.00  0.00    +0.000 C 
BRANCH   2   5
ATOM      3  O   UNL     1       4.093   6.461  19.234  0.00  0.00    +0.000 OA
ATOM      4  C   UNL     1       4.254   5.245  19.279  0.00  0.00    +0.000 C 
ATOM      5  N   UNL     1       5.500   4.661  19.304  0.00  0.00    +0.000 N 
ATOM      6  H   UNL     1       5.576   3.649  19.299  0.00  0.00    +0.000 HD
BRANCH   4   7
ATOM      7  C   UNL     1       3.078   4.333  19.306  0.00  0.00    +0.000 A 
ATOM      8  C   UNL     1       2.262   4.323  20.446  0.00  0.00    +0.000 A 
ATOM      9  C   UNL     1       1.142   3.487  20.508  0.00  0.00    +0.000 A 
ATOM     10  C   UNL     1       0.830   2.654  19.434  0.00  0.00    +0.000 A 
ATOM     11  C   UNL     1       1.638   2.652  18.299  0.00  0.00    +0.000 A 
ATOM     12  C   UNL     1       2.753   3.486  18.242  0.00  0.00    +0.000 A 
ATOM     13  F   UNL     1       3.503   3.448  17.129  0.00  0.00    +0.000 F 
ENDBRANCH   4   7
ENDBRANCH   2   5
ENDBRANCH   1   2
BRANCH   1  14
ATOM     14  C   UNL     1       6.776   5.986  16.866  0.00  0.00    +0.000 C 
BRANCH  14  15
ATOM     15  N   UNL     1       7.510   5.896  15.606  0.00  0.00    +0.000 N 
ATOM     16  H   UNL     1       8.508   5.712  15.739  0.00  0.00    +0.000 HD
BRANCH  15  17
ATOM     17  C   UNL     1       6.982   5.025  14.626  0.00  0.00    +0.000 A 
ATOM     18  C   UNL     1       5.820   4.273  14.867  0.00  0.00    +0.000 A 
ATOM     19  C   UNL     1       5.257   3.459  13.880  0.00  0.00    +0.000 A 
ATOM     20  C   UNL     1       5.834   3.414  12.610  0.00  0.00    +0.000 A 
ATOM     21  C   UNL     1       6.969   4.177  12.320  0.00  0.00    +0.000 A 
ATOM     22  C   UNL     1       7.527   4.979  13.322  0.00  0.00    +0.000 A 
ATOM     23 CL   UNL     1       8.946   5.891  12.932  0.00  0.00    +0.000 Cl
BRANCH  20  24
ATOM     24  N   UNL     1       5.233   2.565  11.577  0.00  0.00    +0.000 N 
ATOM     25  O   UNL     1       4.129   2.897  11.126  0.00  0.00    +0.000 OA
ATOM     26  O   UNL     1       5.868   1.562  11.218  0.00  0.00    +0.000 OA
ENDBRANCH  20  24
ENDBRANCH  15  17
ENDBRANCH  14  15
ENDBRANCH   1  14
TORSDOF 7
ENDMDL
MODEL 2
REMARK VINA RESULT:      -7.4      4.065      7.855
REMARK  Name = 
REMARK  7 active torsions:
REMARK  status: ('A' for Active; 'I' for Inactive)
REMARK    1  A    between atoms: C_2  and  C_18
REMARK    2  A    between atoms: N_3  and  C_4
REMARK    3  A    between atoms: C_4  and  C_5
REMARK    4  A    between atoms: C_5  and  C_6
REMARK    5  A    between atoms: C_6  and  N_7
REMARK    6  A    between atoms: N_7  and  C_8
REMARK    7  A    between atoms: C_11  and  N_12
REMARK                            x       y       z     vdW  Elec       q    Type
REMARK                         _______ _______ _______ _____ _____    ______ ____
ROOT
ATOM      1  C   UNL     1       1.320   4.286  19.739  0.00  0.00    +0.000 C 
ENDROOT
BRANCH   1   2
ATOM      2  C   UNL     1       2.233   3.174  19.228  0.00  0.00    +0.000 C 
BRANCH   2   5
ATOM      3  O   UNL     1       5.035   3.348  19.509  0.00  0.00    +0.000 OA
ATOM      4  C   UNL     1       4.520   3.705  18.453  0.00  0.00    +0.000 C 
ATOM      5  N   UNL     1       3.162   3.652  18.234  0.00  0.00    +0.000 N 
ATOM      6  H   UNL     1       2.793   3.922  17.328  0.00  0.00    +0.000 HD
BRANCH   4   7
ATOM      7  C   UNL     1       5.365   4.222  17.343  0.00  0.00    +0.000 A 
ATOM      8  C   UNL     1       5.263   3.616  16.082  0.00  0.00    +0.000 A 
ATOM      9  C   UNL     1       6.033   4.078  15.010  0.00  0.00    +0.000 A 
ATOM     10  C   UNL     1       6.913   5.145  15.189  0.00  0.00    +0.000 A 
ATOM     11  C   UNL     1       7.027   5.749  16.439  0.00  0.00    +0.000 A 
ATOM     12  C   UNL     1       6.258   5.286  17.504  0.00  0.00    +0.000 A 
ATOM     13  F   UNL     1       6.403   5.898  18.690  0.00  0.00    +0.000 F 
ENDBRANCH   4   7
ENDBRANCH   2   5
ENDBRANCH   1   2
BRANCH   1  14
ATOM     14  C   UNL     1       2.012   4.999  20.894  0.00  0.00    +0.000 C 
BRANCH  14  15
ATOM     15  N   UNL     1       2.781   6.149  20.426  0.00  0.00    +0.000 N 
ATOM     16  H   UNL     1       3.423   5.915  19.664  0.00  0.00    +0.000 HD
BRANCH  15  17
ATOM     17  C   UNL     1       2.047   7.313  20.102  0.00  0.00    +0.000 A 
ATOM     18  C   UNL     1       1.230   7.948  21.051  0.00  0.00    +0.000 A 
ATOM     19  C   UNL     1       0.552   9.135  20.758  0.00  0.00    +0.000 A 
ATOM     20  C   UNL     1       0.715   9.731  19.507  0.00  0.00    +0.000 A 
ATOM     21  C   UNL     1       1.550   9.149  18.548  0.00  0.00    +0.000 A 
ATOM     22  C   UNL     1       2.213   7.955  18.854  0.00  0.00    +0.000 A 
ATOM     23 CL   UNL     1       3.220   7.253  17.633  0.00  0.00    +0.000 Cl
BRANCH  20  24
ATOM     24  N   UNL     1       0.008  10.980  19.208  0.00  0.00    +0.000 N 
ATOM     25  O   UNL     1       0.128  11.917  20.007  0.00  0.00    +0.000 OA
ATOM     26  O   UNL     1      -0.670  11.022  18.170  0.00  0.00    +0.000 OA
ENDBRANCH  20  24
ENDBRANCH  15  17
ENDBRANCH  14  15
ENDBRANCH   1  14
TORSDOF 7
ENDMDL
MODEL 3
REMARK VINA RESULT:      -7.3      5.406      8.459
REMARK  Name = 
REMARK  7 active torsions:
REMARK  status: ('A' for Active; 'I' for Inactive)
REMARK    1  A    between atoms: C_2  and  C_18
REMARK    2  A    between atoms: N_3  and  C_4
REMARK    3  A    between atoms: C_4  and  C_5
REMARK    4  A    between atoms: C_5  and  C_6
REMARK    5  A    between atoms: C_6  and  N_7
REMARK    6  A    between atoms: N_7  and  C_8
REMARK    7  A    between atoms: C_11  and  N_12
REMARK                            x       y       z     vdW  Elec       q    Type
REMARK                         _______ _______ _______ _____ _____    ______ ____
ROOT
ATOM      1  C   UNL     1       7.772   6.890  17.817  0.00  0.00    +0.000 C 
ENDROOT
BRANCH   1   2
ATOM      2  C   UNL     1       7.554   8.391  17.646  0.00  0.00    +0.000 C 
BRANCH   2   5
ATOM      3  O   UNL     1       7.886  11.186  17.451  0.00  0.00    +0.000 OA
ATOM      4  C   UNL     1       8.730  10.527  18.052  0.00  0.00    +0.000 C 
ATOM      5  N   UNL     1       8.643   9.161  18.194  0.00  0.00    +0.000 N 
ATOM      6  H   UNL     1       9.348   8.671  18.735  0.00  0.00    +0.000 HD
BRANCH   4   7
ATOM      7  C   UNL     1       9.908  11.198  18.665  0.00  0.00    +0.000 A 
ATOM      8  C   UNL     1      10.911  11.698  17.823  0.00  0.00    +0.000 A 
ATOM      9  C   UNL     1      12.030  12.344  18.360  0.00  0.00    +0.000 A 
ATOM     10  C   UNL     1      12.157  12.492  19.740  0.00  0.00    +0.000 A 
ATOM     11  C   UNL     1      11.170  11.993  20.586  0.00  0.00    +0.000 A 
ATOM     12  C   UNL     1      10.057  11.350  20.047  0.00  0.00    +0.000 A 
ATOM     13  F   UNL     1       9.132  10.884  20.902  0.00  0.00    +0.000 F 
ENDBRANCH   4   7
ENDBRANCH   2   5
ENDBRANCH   1   2
BRANCH   1  14
ATOM     14  C   UNL     1       6.752   6.145  16.965  0.00  0.00    +0.000 C 
BRANCH  14  15
ATOM     15  N   UNL     1       5.427   6.751  17.069  0.00  0.00    +0.000 N 
ATOM     16  H   UNL     1       5.148   7.246  16.218  0.00  0.00    +0.000 HD
BRANCH  15  17
ATOM     17  C   UNL     1       4.378   5.911  17.509  0.00  0.00    +0.000 A 
ATOM     18  C   UNL     1       4.547   4.521  17.603  0.00  0.00    +0.000 A 
ATOM     19  C   UNL     1       3.537   3.692  18.098  0.00  0.00    +0.000 A 
ATOM     20  C   UNL     1       2.341   4.254  18.548  0.00  0.00    +0.000 A 
ATOM     21  C   UNL     1       2.149   5.639  18.505  0.00  0.00    +0.000 A 
ATOM     22  C   UNL     1       3.167   6.454  17.996  0.00  0.00    +0.000 A 
ATOM     23 CL   UNL     1       2.884   8.161  17.939  0.00  0.00    +0.000 Cl
BRANCH  20  24
ATOM     24  N   UNL     1       1.288   3.380  19.074  0.00  0.00    +0.000 N 
ATOM     25  O   UNL     1       1.075   2.314  18.484  0.00  0.00    +0.000 OA
ATOM     26  O   UNL     1       0.673   3.765  20.081  0.00  0.00    +0.000 OA
ENDBRANCH  20  24
ENDBRANCH  15  17
ENDBRANCH  14  15
ENDBRANCH   1  14
TORSDOF 7
ENDMDL
MODEL 4
REMARK VINA RESULT:      -7.2      1.323      1.597
REMARK  Name = 
REMARK  7 active torsions:
REMARK  status: ('A' for Active; 'I' for Inactive)
REMARK    1  A    between atoms: C_2  and  C_18
REMARK    2  A    between atoms: N_3  and  C_4
REMARK    3  A    between atoms: C_4  and  C_5
REMARK    4  A    between atoms: C_5  and  C_6
REMARK    5  A    between atoms: C_6  and  N_7
REMARK    6  A    between atoms: N_7  and  C_8
REMARK    7  A    between atoms: C_11  and  N_12
REMARK                            x       y       z     vdW  Elec       q    Type
REMARK                         _______ _______ _______ _____ _____    ______ ____
ROOT
ATOM      1  C   UNL     1       7.537   5.644  17.929  0.00  0.00    +0.000 C 
ENDROOT
BRANCH   1   2
ATOM      2  C   UNL     1       7.071   4.218  18.208  0.00  0.00    +0.000 C 
BRANCH   2   5
ATOM      3  O   UNL     1       4.580   3.213  17.344  0.00  0.00    +0.000 OA
ATOM      4  C   UNL     1       4.674   3.679  18.476  0.00  0.00    +0.000 C 
ATOM      5  N   UNL     1       5.851   4.188  18.975  0.00  0.00    +0.000 N 
ATOM      6  H   UNL     1       5.882   4.525  19.933  0.00  0.00    +0.000 HD
BRANCH   4   7
ATOM      7  C   UNL     1       3.488   3.712  19.374  0.00  0.00    +0.000 A 
ATOM      8  C   UNL     1       2.811   2.513  19.639  0.00  0.00    +0.000 A 
ATOM      9  C   UNL     1       1.698   2.500  20.485  0.00  0.00    +0.000 A 
ATOM     10  C   UNL     1       1.249   3.683  21.071  0.00  0.00    +0.000 A 
ATOM     11  C   UNL     1       1.910   4.881  20.809  0.00  0.00    +0.000 A 
ATOM     12  C   UNL     1       3.020   4.889  19.965  0.00  0.00    +0.000 A 
ATOM     13  F   UNL     1       3.623   6.068  19.742  0.00  0.00    +0.000 F 
ENDBRANCH   4   7
ENDBRANCH   2   5
ENDBRANCH   1   2
BRANCH   1  14
ATOM     14  C   UNL     1       6.772   6.185  16.727  0.00  0.00    +0.000 C 
BRANCH  14  15
ATOM     15  N   UNL     1       7.529   6.008  15.490  0.00  0.00    +0.000 N 
ATOM     16  H   UNL     1       8.515   5.789  15.655  0.00  0.00    +0.000 HD
BRANCH  15  17
ATOM     17  C   UNL     1       6.986   5.117  14.536  0.00  0.00    +0.000 A 
ATOM     18  C   UNL     1       5.801   4.408  14.792  0.00  0.00    +0.000 A 
ATOM     19  C   UNL     1       5.224   3.575  13.829  0.00  0.00    +0.000 A 
ATOM     20  C   UNL     1       5.811   3.468  12.568  0.00  0.00    +0.000 A 
ATOM     21  C   UNL     1       6.971   4.187  12.263  0.00  0.00    +0.000 A 
ATOM     22  C   UNL     1       7.542   5.008  13.242  0.00  0.00    +0.000 A 
ATOM     23 CL   UNL     1       8.991   5.865  12.834  0.00  0.00    +0.000 Cl
BRANCH  20  24
ATOM     24  N   UNL     1       5.196   2.599  11.560  0.00  0.00    +0.000 N 
ATOM     25  O   UNL     1       4.112   2.950  11.078  0.00  0.00    +0.000 OA
ATOM     26  O   UNL     1       5.801   1.560  11.251  0.00  0.00    +0.000 OA
ENDBRANCH  20  24
ENDBRANCH  15  17
ENDBRANCH  14  15
ENDBRANCH   1  14
TORSDOF 7
ENDMDL
MODEL 5
REMARK VINA RESULT:      -7.2      4.841      5.900
REMARK  Name = 
REMARK  7 active torsions:
REMARK  status: ('A' for Active; 'I' for Inactive)
REMARK    1  A    between atoms: C_2  and  C_18
REMARK    2  A    between atoms: N_3  and  C_4
REMARK    3  A    between atoms: C_4  and  C_5
REMARK    4  A    between atoms: C_5  and  C_6
REMARK    5  A    between atoms: C_6  and  N_7
REMARK    6  A    between atoms: N_7  and  C_8
REMARK    7  A    between atoms: C_11  and  N_12
REMARK                            x       y       z     vdW  Elec       q    Type
REMARK                         _______ _______ _______ _____ _____    ______ ____
ROOT
ATOM      1  C   UNL     1       2.285   5.424  20.445  0.00  0.00    +0.000 C 
ENDROOT
BRANCH   1   2
ATOM      2  C   UNL     1       2.381   6.822  19.837  0.00  0.00    +0.000 C 
BRANCH   2   5
ATOM      3  O   UNL     1       1.198   9.190  18.863  0.00  0.00    +0.000 OA
ATOM      4  C   UNL     1       1.116   8.933  20.061  0.00  0.00    +0.000 C 
ATOM      5  N   UNL     1       1.664   7.800  20.617  0.00  0.00    +0.000 N 
ATOM      6  H   UNL     1       1.532   7.617  21.607  0.00  0.00    +0.000 HD
BRANCH   4   7
ATOM      7  C   UNL     1       0.404   9.862  20.980  0.00  0.00    +0.000 A 
ATOM      8  C   UNL     1      -0.120   9.353  22.177  0.00  0.00    +0.000 A 
ATOM      9  C   UNL     1      -0.788  10.195  23.072  0.00  0.00    +0.000 A 
ATOM     10  C   UNL     1      -0.941  11.550  22.778  0.00  0.00    +0.000 A 
ATOM     11  C   UNL     1      -0.431  12.063  21.588  0.00  0.00    +0.000 A 
ATOM     12  C   UNL     1       0.234  11.221  20.699  0.00  0.00    +0.000 A 
ATOM     13  F   UNL     1       0.707  11.762  19.565  0.00  0.00    +0.000 F 
ENDBRANCH   4   7
ENDBRANCH   2   5
ENDBRANCH   1   2
BRANCH   1  14
ATOM     14  C   UNL     1       3.279   4.511  19.738  0.00  0.00    +0.000 C 
BRANCH  14  15
ATOM     15  N   UNL     1       4.561   5.180  19.530  0.00  0.00    +0.000 N 
ATOM     16  H   UNL     1       5.242   4.975  20.265  0.00  0.00    +0.000 HD
BRANCH  15  17
ATOM     17  C   UNL     1       5.158   5.024  18.257  0.00  0.00    +0.000 A 
ATOM     18  C   UNL     1       4.390   4.714  17.124  0.00  0.00    +0.000 A 
ATOM     19  C   UNL     1       4.963   4.621  15.853  0.00  0.00    +0.000 A 
ATOM     20  C   UNL     1       6.325   4.878  15.690  0.00  0.00    +0.000 A 
ATOM     21  C   UNL     1       7.117   5.226  16.790  0.00  0.00    +0.000 A 
ATOM     22  C   UNL     1       6.529   5.304  18.057  0.00  0.00    +0.000 A 
ATOM     23 CL   UNL     1       7.546   5.717  19.396  0.00  0.00    +0.000 Cl
BRANCH  20  24
ATOM     24  N   UNL     1       6.920   4.787  14.353  0.00  0.00    +0.000 N 
ATOM     25  O   UNL     1       6.459   3.944  13.572  0.00  0.00    +0.000 OA
ATOM     26  O   UNL     1       7.851   5.561  14.086  0.00  0.00    +0.000 OA
ENDBRANCH  20  24
ENDBRANCH  15  17
ENDBRANCH  14  15
ENDBRANCH   1  14
TORSDOF 7
ENDMDL
MODEL 6
REMARK VINA RESULT:      -7.2      1.043      1.198
REMARK  Name = 
REMARK  7 active torsions:
REMARK  status: ('A' for Active; 'I' for Inactive)
REMARK    1  A    between atoms: C_2  and  C_18
REMARK    2  A    between atoms: N_3  and  C_4
REMARK    3  A    between atoms: C_4  and  C_5
REMARK    4  A    between atoms: C_5  and  C_6
REMARK    5  A    between atoms: C_6  and  N_7
REMARK    6  A    between atoms: N_7  and  C_8
REMARK    7  A    between atoms: C_11  and  N_12
REMARK                            x       y       z     vdW  Elec       q    Type
REMARK                         _______ _______ _______ _____ _____    ______ ____
ROOT
ATOM      1  C   UNL     1       6.942   6.236  17.950  0.00  0.00    +0.000 C 
ENDROOT
BRANCH   1   2
ATOM      2  C   UNL     1       5.469   6.466  17.621  0.00  0.00    +0.000 C 
BRANCH   2   5
ATOM      3  O   UNL     1       3.696   4.395  16.894  0.00  0.00    +0.000 OA
ATOM      4  C   UNL     1       3.759   4.740  18.071  0.00  0.00    +0.000 C 
ATOM      5  N   UNL     1       4.597   5.739  18.509  0.00  0.00    +0.000 N 
ATOM      6  H   UNL     1       4.638   5.955  19.500  0.00  0.00    +0.000 HD
BRANCH   4   7
ATOM      7  C   UNL     1       2.910   4.071  19.094  0.00  0.00    +0.000 A 
ATOM      8  C   UNL     1       2.809   4.650  20.368  0.00  0.00    +0.000 A 
ATOM      9  C   UNL     1       2.014   4.057  21.353  0.00  0.00    +0.000 A 
ATOM     10  C   UNL     1       1.315   2.882  21.078  0.00  0.00    +0.000 A 
ATOM     11  C   UNL     1       1.414   2.296  19.819  0.00  0.00    +0.000 A 
ATOM     12  C   UNL     1       2.208   2.889  18.839  0.00  0.00    +0.000 A 
ATOM     13  F   UNL     1       2.273   2.286  17.641  0.00  0.00    +0.000 F 
ENDBRANCH   4   7
ENDBRANCH   2   5
ENDBRANCH   1   2
BRANCH   1  14
ATOM     14  C   UNL     1       7.514   5.227  16.962  0.00  0.00    +0.000 C 
BRANCH  14  15
ATOM     15  N   UNL     1       7.505   5.752  15.599  0.00  0.00    +0.000 N 
ATOM     16  H   UNL     1       8.417   6.111  15.305  0.00  0.00    +0.000 HD
BRANCH  15  17
ATOM     17  C   UNL     1       6.969   4.909  14.598  0.00  0.00    +0.000 A 
ATOM     18  C   UNL     1       5.843   4.107  14.846  0.00  0.00    +0.000 A 
ATOM     19  C   UNL     1       5.270   3.320  13.843  0.00  0.00    +0.000 A 
ATOM     20  C   UNL     1       5.799   3.354  12.552  0.00  0.00    +0.000 A 
ATOM     21  C   UNL     1       6.897   4.168  12.258  0.00  0.00    +0.000 A 
ATOM     22  C   UNL     1       7.466   4.942  13.276  0.00  0.00    +0.000 A 
ATOM     23 CL   UNL     1       8.838   5.920  12.877  0.00  0.00    +0.000 Cl
BRANCH  20  24
ATOM     24  N   UNL     1       5.188   2.532  11.503  0.00  0.00    +0.000 N 
ATOM     25  O   UNL     1       4.120   2.921  11.014  0.00  0.00    +0.000 OA
ATOM     26  O   UNL     1       5.779   1.494  11.169  0.00  0.00    +0.000 OA
ENDBRANCH  20  24
ENDBRANCH  15  17
ENDBRANCH  14  15
ENDBRANCH   1  14
TORSDOF 7
ENDMDL
MODEL 7
REMARK VINA RESULT:      -7.1      6.420      8.108
REMARK  Name = 
REMARK  7 active torsions:
REMARK  status: ('A' for Active; 'I' for Inactive)
REMARK    1  A    between atoms: C_2  and  C_18
REMARK    2  A    between atoms: N_3  and  C_4
REMARK    3  A    between atoms: C_4  and  C_5
REMARK    4  A    between atoms: C_5  and  C_6
REMARK    5  A    between atoms: C_6  and  N_7
REMARK    6  A    between atoms: N_7  and  C_8
REMARK    7  A    between atoms: C_11  and  N_12
REMARK                            x       y       z     vdW  Elec       q    Type
REMARK                         _______ _______ _______ _____ _____    ______ ____
ROOT
ATOM      1  C   UNL     1       0.704   9.141  21.836  0.00  0.00    +0.000 C 
ENDROOT
BRANCH   1   2
ATOM      2  C   UNL     1      -0.054  10.442  21.582  0.00  0.00    +0.000 C 
BRANCH   2   5
ATOM      3  O   UNL     1      -0.219  12.203  19.384  0.00  0.00    +0.000 OA
ATOM      4  C   UNL     1      -0.975  11.237  19.431  0.00  0.00    +0.000 C 
ATOM      5  N   UNL     1      -0.960  10.330  20.466  0.00  0.00    +0.000 N 
ATOM      6  H   UNL     1      -1.580   9.527  20.433  0.00  0.00    +0.000 HD
BRANCH   4   7
ATOM      7  C   UNL     1      -1.962  11.005  18.341  0.00  0.00    +0.000 A 
ATOM      8  C   UNL     1      -3.180  11.698  18.378  0.00  0.00    +0.000 A 
ATOM      9  C   UNL     1      -4.130  11.514  17.368  0.00  0.00    +0.000 A 
ATOM     10  C   UNL     1      -3.872  10.636  16.316  0.00  0.00    +0.000 A 
ATOM     11  C   UNL     1      -2.668   9.938  16.273  0.00  0.00    +0.000 A 
ATOM     12  C   UNL     1      -1.724  10.124  17.282  0.00  0.00    +0.000 A 
ATOM     13  F   UNL     1      -0.579   9.427  17.199  0.00  0.00    +0.000 F 
ENDBRANCH   4   7
ENDBRANCH   2   5
ENDBRANCH   1   2
BRANCH   1  14
ATOM     14  C   UNL     1       1.197   8.591  20.503  0.00  0.00    +0.000 C 
BRANCH  14  15
ATOM     15  N   UNL     1       2.293   7.644  20.690  0.00  0.00    +0.000 N 
ATOM     16  H   UNL     1       2.579   7.555  21.668  0.00  0.00    +0.000 HD
BRANCH  15  17
ATOM     17  C   UNL     1       2.129   6.364  20.113  0.00  0.00    +0.000 A 
ATOM     18  C   UNL     1       1.481   5.328  20.805  0.00  0.00    +0.000 A 
ATOM     19  C   UNL     1       1.260   4.080  20.216  0.00  0.00    +0.000 A 
ATOM     20  C   UNL     1       1.655   3.860  18.896  0.00  0.00    +0.000 A 
ATOM     21  C   UNL     1       2.270   4.879  18.161  0.00  0.00    +0.000 A 
ATOM     22  C   UNL     1       2.494   6.119  18.769  0.00  0.00    +0.000 A 
ATOM     23 CL   UNL     1       3.278   7.348  17.835  0.00  0.00    +0.000 Cl
BRANCH  20  24
ATOM     24  N   UNL     1       1.412   2.551  18.281  0.00  0.00    +0.000 N 
ATOM     25  O   UNL     1       0.291   2.046  18.421  0.00  0.00    +0.000 OA
ATOM     26  O   UNL     1       2.348   2.028  17.656  0.00  0.00    +0.000 OA
ENDBRANCH  20  24
ENDBRANCH  15  17
ENDBRANCH  14  15
ENDBRANCH   1  14
TORSDOF 7
ENDMDL
MODEL 8
REMARK VINA RESULT:      -7.1      4.005      7.755
REMARK  Name = 
REMARK  7 active torsions:
REMARK  status: ('A' for Active; 'I' for Inactive)
REMARK    1  A    between atoms: C_2  and  C_18
REMARK    2  A    between atoms: N_3  and  C_4
REMARK    3  A    between atoms: C_4  and  C_5
REMARK    4  A    between atoms: C_5  and  C_6
REMARK    5  A    between atoms: C_6  and  N_7
REMARK    6  A    between atoms: N_7  and  C_8
REMARK    7  A    between atoms: C_11  and  N_12
REMARK                            x       y       z     vdW  Elec       q    Type
REMARK                         _______ _______ _______ _____ _____    ______ ____
ROOT
ATOM      1  C   UNL     1       1.962   3.627  20.176  0.00  0.00    +0.000 C 
ENDROOT
BRANCH   1   2
ATOM      2  C   UNL     1       3.480   3.505  20.287  0.00  0.00    +0.000 C 
BRANCH   2   5
ATOM      3  O   UNL     1       5.571   5.266  19.591  0.00  0.00    +0.000 OA
ATOM      4  C   UNL     1       5.140   4.489  18.743  0.00  0.00    +0.000 C 
ATOM      5  N   UNL     1       4.124   3.598  19.000  0.00  0.00    +0.000 N 
ATOM      6  H   UNL     1       3.835   2.950  18.274  0.00  0.00    +0.000 HD
BRANCH   4   7
ATOM      7  C   UNL     1       5.717   4.482  17.372  0.00  0.00    +0.000 A 
ATOM      8  C   UNL     1       4.871   4.208  16.288  0.00  0.00    +0.000 A 
ATOM      9  C   UNL     1       5.372   4.201  14.982  0.00  0.00    +0.000 A 
ATOM     10  C   UNL     1       6.721   4.465  14.748  0.00  0.00    +0.000 A 
ATOM     11  C   UNL     1       7.571   4.733  15.819  0.00  0.00    +0.000 A 
ATOM     12  C   UNL     1       7.068   4.738  17.118  0.00  0.00    +0.000 A 
ATOM     13  F   UNL     1       7.926   4.999  18.117  0.00  0.00    +0.000 F 
ENDBRANCH   4   7
ENDBRANCH   2   5
ENDBRANCH   1   2
BRANCH   1  14
ATOM     14  C   UNL     1       1.536   4.981  20.731  0.00  0.00    +0.000 C 
BRANCH  14  15
ATOM     15  N   UNL     1       2.499   6.024  20.388  0.00  0.00    +0.000 N 
ATOM     16  H   UNL     1       3.178   5.723  19.684  0.00  0.00    +0.000 HD
BRANCH  15  17
ATOM     17  C   UNL     1       1.969   7.288  20.043  0.00  0.00    +0.000 A 
ATOM     18  C   UNL     1       1.292   8.078  20.986  0.00  0.00    +0.000 A 
ATOM     19  C   UNL     1       0.821   9.355  20.669  0.00  0.00    +0.000 A 
ATOM     20  C   UNL     1       1.057   9.882  19.398  0.00  0.00    +0.000 A 
ATOM     21  C   UNL     1       1.760   9.140  18.443  0.00  0.00    +0.000 A 
ATOM     22  C   UNL     1       2.215   7.859  18.773  0.00  0.00    +0.000 A 
ATOM     23 CL   UNL     1       3.061   6.963  17.557  0.00  0.00    +0.000 Cl
BRANCH  20  24
ATOM     24  N   UNL     1       0.567  11.226  19.074  0.00  0.00    +0.000 N 
ATOM     25  O   UNL     1      -0.568  11.326  18.592  0.00  0.00    +0.000 OA
ATOM     26  O   UNL     1       1.324  12.182  19.303  0.00  0.00    +0.000 OA
ENDBRANCH  20  24
ENDBRANCH  15  17
ENDBRANCH  14  15
ENDBRANCH   1  14
TORSDOF 7
ENDMDL
MODEL 9
REMARK VINA RESULT:      -7.1      6.074      6.845
REMARK  Name = 
REMARK  7 active torsions:
REMARK  status: ('A' for Active; 'I' for Inactive)
REMARK    1  A    between atoms: C_2  and  C_18
REMARK    2  A    between atoms: N_3  and  C_4
REMARK    3  A    between atoms: C_4  and  C_5
REMARK    4  A    between atoms: C_5  and  C_6
REMARK    5  A    between atoms: C_6  and  N_7
REMARK    6  A    between atoms: N_7  and  C_8
REMARK    7  A    between atoms: C_11  and  N_12
REMARK                            x       y       z     vdW  Elec       q    Type
REMARK                         _______ _______ _______ _____ _____    ______ ____
ROOT
ATOM      1  C   UNL     1       2.313   7.808  17.911  0.00  0.00    +0.000 C 
ENDROOT
BRANCH   1   2
ATOM      2  C   UNL     1       2.076   9.312  18.019  0.00  0.00    +0.000 C 
BRANCH   2   5
ATOM      3  O   UNL     1      -0.002  10.186  19.716  0.00  0.00    +0.000 OA
ATOM      4  C   UNL     1      -0.216  10.095  18.510  0.00  0.00    +0.000 C 
ATOM      5  N   UNL     1       0.742   9.679  17.614  0.00  0.00    +0.000 N 
ATOM      6  H   UNL     1       0.523   9.662  16.623  0.00  0.00    +0.000 HD
BRANCH   4   7
ATOM      7  C   UNL     1      -1.554  10.443  17.958  0.00  0.00    +0.000 A 
ATOM      8  C   UNL     1      -1.956   9.856  16.750  0.00  0.00    +0.000 A 
ATOM      9  C   UNL     1      -3.209  10.150  16.203  0.00  0.00    +0.000 A 
ATOM     10  C   UNL     1      -4.070  11.031  16.857  0.00  0.00    +0.000 A 
ATOM     11  C   UNL     1      -3.677  11.624  18.054  0.00  0.00    +0.000 A 
ATOM     12  C   UNL     1      -2.427  11.330  18.596  0.00  0.00    +0.000 A 
ATOM     13  F   UNL     1      -2.092  11.927  19.751  0.00  0.00    +0.000 F 
ENDBRANCH   4   7
ENDBRANCH   2   5
ENDBRANCH   1   2
BRANCH   1  14
ATOM     14  C   UNL     1       2.486   7.235  19.312  0.00  0.00    +0.000 C 
BRANCH  14  15
ATOM     15  N   UNL     1       3.137   5.928  19.277  0.00  0.00    +0.000 N 
ATOM     16  H   UNL     1       2.481   5.153  19.394  0.00  0.00    +0.000 HD
BRANCH  15  17
ATOM     17  C   UNL     1       3.994   5.678  18.180  0.00  0.00    +0.000 A 
ATOM     18  C   UNL     1       5.190   6.394  18.009  0.00  0.00    +0.000 A 
ATOM     19  C   UNL     1       6.073   6.107  16.964  0.00  0.00    +0.000 A 
ATOM     20  C   UNL     1       5.785   5.062  16.085  0.00  0.00    +0.000 A 
ATOM     21  C   UNL     1       4.623   4.301  16.245  0.00  0.00    +0.000 A 
ATOM     22  C   UNL     1       3.744   4.608  17.290  0.00  0.00    +0.000 A 
ATOM     23 CL   UNL     1       2.304   3.658  17.442  0.00  0.00    +0.000 Cl
BRANCH  20  24
ATOM     24  N   UNL     1       6.720   4.761  14.996  0.00  0.00    +0.000 N 
ATOM     25  O   UNL     1       6.396   3.886  14.183  0.00  0.00    +0.000 OA
ATOM     26  O   UNL     1       7.781   5.402  14.956  0.00  0.00    +0.000 OA
ENDBRANCH  20  24
ENDBRANCH  15  17
ENDBRANCH  14  15
ENDBRANCH   1  14
TORSDOF 7
ENDMDL
