MODEL 1
REMARK VINA RESULT:      -7.8      0.000      0.000
REMARK  Name = 
REMARK  2 active torsions:
REMARK  status: ('A' for Active; 'I' for Inactive)
REMARK    1  A    between atoms: N_8  and  C_9
REMARK    2  A    between atoms: C_17  and  N_18
REMARK                            x       y       z     vdW  Elec       q    Type
REMARK                         _______ _______ _______ _____ _____    ______ ____
ROOT
ATOM      1  O   UNL     1       2.315   9.726  17.402  0.00  0.00    +0.000 OA
ATOM      2  C   UNL     1       2.175   8.852  18.257  0.00  0.00    +0.000 A 
ATOM      3  N   UNL     1       2.886   7.688  18.136  0.00  0.00    +0.000 N 
ATOM      4  C   UNL     1       2.823   6.678  19.038  0.00  0.00    +0.000 A 
ATOM      5  C   UNL     1       2.050   6.751  20.112  0.00  0.00    +0.000 A 
ATOM      6  C   UNL     1       1.243   7.950  20.350  0.00  0.00    +0.000 A 
ATOM      7  O   UNL     1       0.559   8.019  21.368  0.00  0.00    +0.000 OA
ATOM      8  N   UNL     1       1.355   8.956  19.374  0.00  0.00    +0.000 N 
ATOM      9  C   UNL     1       2.195   5.557  20.986  0.00  0.00    +0.000 C 
ATOM     10  C   UNL     1       2.923   4.571  20.058  0.00  0.00    +0.000 C 
ATOM     11  C   UNL     1       3.641   5.424  18.992  0.00  0.00    +0.000 C 
ATOM     12  H   UNL     1       3.524   7.647  17.344  0.00  0.00    +0.000 HD
ENDROOT
BRANCH  11  13
ATOM     13  N   UNL     1       3.546   4.811  17.673  0.00  0.00    +0.000 N 
ATOM     14  C   UNL     1       4.755   4.762  16.962  0.00  0.00    +0.000 A 
ATOM     15  C   UNL     1       4.748   4.243  15.668  0.00  0.00    +0.000 A 
ATOM     16  C   UNL     1       5.950   4.109  14.971  0.00  0.00    +0.000 A 
ATOM     17  C   UNL     1       7.134   4.492  15.583  0.00  0.00    +0.000 A 
ATOM     18  C   UNL     1       7.058   5.004  16.864  0.00  0.00    +0.000 A 
ATOM     19  N   UNL     1       5.905   5.138  17.557  0.00  0.00    +0.000 NA
ATOM     20  H   UNL     1       2.813   5.198  17.094  0.00  0.00    +0.000 HD
ENDBRANCH  11  13
BRANCH   8  21
ATOM     21  C   UNL     1       0.657  10.216  19.634  0.00  0.00    +0.000 C 
ATOM     22  C   UNL     1       0.801  10.812  21.044  0.00  0.00    +0.000 C 
ATOM     23  C   UNL     1       0.378  12.285  20.968  0.00  0.00    +0.000 C 
ATOM     24  C   UNL     1      -1.033  12.471  20.388  0.00  0.00    +0.000 C 
ATOM     25  C   UNL     1      -1.325  11.620  19.145  0.00  0.00    +0.000 C 
ATOM     26  C   UNL     1      -0.846  10.176  19.309  0.00  0.00    +0.000 C 
ENDBRANCH   8  21
TORSDOF 2
ENDMDL
MODEL 2
REMARK VINA RESULT:      -7.7      0.458      1.102
REMARK  Name = 
REMARK  2 active torsions:
REMARK  status: ('A' for Active; 'I' for Inactive)
REMARK    1  A    between atoms: N_8  and  C_9
REMARK    2  A    between atoms: C_17  and  N_18
REMARK                            x       y       z     vdW  Elec       q    Type
REMARK                         _______ _______ _______ _____ _____    ______ ____
ROOT
ATOM      1  O   UNL     1       2.141   9.748  17.380  0.00  0.00    +0.000 OA
ATOM      2  C   UNL     1       2.022   8.888  18.252  0.00  0.00    +0.000 A 
ATOM      3  N   UNL     1       2.775   7.747  18.164  0.00  0.00    +0.000 N 
ATOM      4  C   UNL     1       2.737   6.754  19.086  0.00  0.00    +0.000 A 
ATOM      5  C   UNL     1       1.949   6.822  20.150  0.00  0.00    +0.000 A 
ATOM      6  C   UNL     1       1.099   7.997  20.354  0.00  0.00    +0.000 A 
ATOM      7  O   UNL     1       0.402   8.064  21.364  0.00  0.00    +0.000 OA
ATOM      8  N   UNL     1       1.186   8.987  19.358  0.00  0.00    +0.000 N 
ATOM      9  C   UNL     1       2.126   5.653  21.050  0.00  0.00    +0.000 C 
ATOM     10  C   UNL     1       2.898   4.674  20.152  0.00  0.00    +0.000 C 
ATOM     11  C   UNL     1       3.598   5.529  19.075  0.00  0.00    +0.000 C 
ATOM     12  H   UNL     1       3.422   7.711  17.379  0.00  0.00    +0.000 HD
ENDROOT
BRANCH  11  13
ATOM     13  N   UNL     1       3.539   4.885  17.769  0.00  0.00    +0.000 N 
ATOM     14  C   UNL     1       4.770   4.802  17.101  0.00  0.00    +0.000 A 
ATOM     15  C   UNL     1       4.800   4.252  15.820  0.00  0.00    +0.000 A 
ATOM     16  C   UNL     1       6.023   4.083  15.169  0.00  0.00    +0.000 A 
ATOM     17  C   UNL     1       7.191   4.464  15.813  0.00  0.00    +0.000 A 
ATOM     18  C   UNL     1       7.079   5.008  17.078  0.00  0.00    +0.000 A 
ATOM     19  N   UNL     1       5.905   5.176  17.727  0.00  0.00    +0.000 NA
ATOM     20  H   UNL     1       2.832   5.269  17.156  0.00  0.00    +0.000 HD
ENDBRANCH  11  13
BRANCH   8  21
ATOM     21  C   UNL     1       0.442  10.226  19.584  0.00  0.00    +0.000 C 
ATOM     22  C   UNL     1      -0.711  10.531  18.613  0.00  0.00    +0.000 C 
ATOM     23  C   UNL     1      -1.597  11.598  19.269  0.00  0.00    +0.000 C 
ATOM     24  C   UNL     1      -0.813  12.858  19.671  0.00  0.00    +0.000 C 
ATOM     25  C   UNL     1       0.528  12.577  20.360  0.00  0.00    +0.000 C 
ATOM     26  C   UNL     1       1.326  11.483  19.648  0.00  0.00    +0.000 C 
ENDBRANCH   8  21
TORSDOF 2
ENDMDL
MODEL 3
REMARK VINA RESULT:      -7.2      2.150      8.387
REMARK  Name = 
REMARK  2 active torsions:
REMARK  status: ('A' for Active; 'I' for Inactive)
REMARK    1  A    between atoms: N_8  and  C_9
REMARK    2  A    between atoms: C_17  and  N_18
REMARK                            x       y       z     vdW  Elec       q    Type
REMARK                         _______ _______ _______ _____ _____    ______ ____
ROOT
ATOM      1  O   UNL     1       1.834   5.885  21.085  0.00  0.00    +0.000 OA
ATOM      2  C   UNL     1       1.802   6.875  20.354  0.00  0.00    +0.000 A 
ATOM      3  N   UNL     1       1.336   8.058  20.862  0.00  0.00    +0.000 N 
ATOM      4  C   UNL     1       1.286   9.209  20.147  0.00  0.00    +0.000 A 
ATOM      5  C   UNL     1       1.687   9.262  18.884  0.00  0.00    +0.000 A 
ATOM      6  C   UNL     1       2.208   8.058  18.233  0.00  0.00    +0.000 A 
ATOM      7  O   UNL     1       2.611   8.131  17.075  0.00  0.00    +0.000 OA
ATOM      8  N   UNL     1       2.229   6.901  19.032  0.00  0.00    +0.000 N 
ATOM      9  C   UNL     1       1.601  10.638  18.329  0.00  0.00    +0.000 C 
ATOM     10  C   UNL     1       0.722  11.347  19.372  0.00  0.00    +0.000 C 
ATOM     11  C   UNL     1       0.863  10.542  20.681  0.00  0.00    +0.000 C 
ATOM     12  H   UNL     1       1.078   8.039  21.846  0.00  0.00    +0.000 HD
ENDROOT
BRANCH  11  13
ATOM     13  N   UNL     1      -0.417  10.425  21.369  0.00  0.00    +0.000 N 
ATOM     14  C   UNL     1      -0.791  11.557  22.108  0.00  0.00    +0.000 A 
ATOM     15  C   UNL     1      -1.974  11.514  22.845  0.00  0.00    +0.000 A 
ATOM     16  C   UNL     1      -2.408  12.654  23.521  0.00  0.00    +0.000 A 
ATOM     17  C   UNL     1      -1.654  13.816  23.445  0.00  0.00    +0.000 A 
ATOM     18  C   UNL     1      -0.490  13.778  22.700  0.00  0.00    +0.000 A 
ATOM     19  N   UNL     1      -0.055  12.685  22.035  0.00  0.00    +0.000 NA
ATOM     20  H   UNL     1      -0.500   9.591  21.936  0.00  0.00    +0.000 HD
ENDBRANCH  11  13
BRANCH   8  21
ATOM     21  C   UNL     1       2.850   5.707  18.457  0.00  0.00    +0.000 C 
ATOM     22  C   UNL     1       1.950   4.472  18.280  0.00  0.00    +0.000 C 
ATOM     23  C   UNL     1       2.652   3.526  17.297  0.00  0.00    +0.000 C 
ATOM     24  C   UNL     1       4.078   3.160  17.739  0.00  0.00    +0.000 C 
ATOM     25  C   UNL     1       4.910   4.347  18.244  0.00  0.00    +0.000 C 
ATOM     26  C   UNL     1       4.116   5.243  19.197  0.00  0.00    +0.000 C 
ENDBRANCH   8  21
TORSDOF 2
ENDMDL
MODEL 4
REMARK VINA RESULT:      -7.1      4.631      6.300
REMARK  Name = 
REMARK  2 active torsions:
REMARK  status: ('A' for Active; 'I' for Inactive)
REMARK    1  A    between atoms: N_8  and  C_9
REMARK    2  A    between atoms: C_17  and  N_18
REMARK                            x       y       z     vdW  Elec       q    Type
REMARK                         _______ _______ _______ _____ _____    ______ ____
ROOT
ATOM      1  O   UNL     1       2.736   2.544  16.900  0.00  0.00    +0.000 OA
ATOM      2  C   UNL     1       3.662   3.339  17.061  0.00  0.00    +0.000 A 
ATOM      3  N   UNL     1       4.441   3.674  15.986  0.00  0.00    +0.000 N 
ATOM      4  C   UNL     1       5.466   4.559  16.054  0.00  0.00    +0.000 A 
ATOM      5  C   UNL     1       5.790   5.164  17.188  0.00  0.00    +0.000 A 
ATOM      6  C   UNL     1       5.025   4.886  18.407  0.00  0.00    +0.000 A 
ATOM      7  O   UNL     1       5.313   5.481  19.442  0.00  0.00    +0.000 OA
ATOM      8  N   UNL     1       3.979   3.958  18.265  0.00  0.00    +0.000 N 
ATOM      9  C   UNL     1       6.899   6.135  17.005  0.00  0.00    +0.000 C 
ATOM     10  C   UNL     1       7.442   5.742  15.622  0.00  0.00    +0.000 C 
ATOM     11  C   UNL     1       6.291   5.018  14.892  0.00  0.00    +0.000 C 
ATOM     12  H   UNL     1       4.164   3.257  15.099  0.00  0.00    +0.000 HD
ENDROOT
BRANCH  11  13
ATOM     13  N   UNL     1       6.782   3.870  14.139  0.00  0.00    +0.000 N 
ATOM     14  C   UNL     1       5.948   3.457  13.090  0.00  0.00    +0.000 A 
ATOM     15  C   UNL     1       6.311   2.332  12.351  0.00  0.00    +0.000 A 
ATOM     16  C   UNL     1       5.540   1.950  11.252  0.00  0.00    +0.000 A 
ATOM     17  C   UNL     1       4.426   2.702  10.911  0.00  0.00    +0.000 A 
ATOM     18  C   UNL     1       4.128   3.800  11.696  0.00  0.00    +0.000 A 
ATOM     19  N   UNL     1       4.864   4.189  12.761  0.00  0.00    +0.000 NA
ATOM     20  H   UNL     1       7.036   3.080  14.719  0.00  0.00    +0.000 HD
ENDBRANCH  11  13
BRANCH   8  21
ATOM     21  C   UNL     1       3.119   3.741  19.428  0.00  0.00    +0.000 C 
ATOM     22  C   UNL     1       3.305   2.420  20.195  0.00  0.00    +0.000 C 
ATOM     23  C   UNL     1       2.648   2.588  21.571  0.00  0.00    +0.000 C 
ATOM     24  C   UNL     1       1.175   3.017  21.480  0.00  0.00    +0.000 C 
ATOM     25  C   UNL     1       0.900   4.131  20.461  0.00  0.00    +0.000 C 
ATOM     26  C   UNL     1       1.617   3.885  19.131  0.00  0.00    +0.000 C 
ENDBRANCH   8  21
TORSDOF 2
ENDMDL
MODEL 5
REMARK VINA RESULT:      -7.0      2.017      7.585
REMARK  Name = 
REMARK  2 active torsions:
REMARK  status: ('A' for Active; 'I' for Inactive)
REMARK    1  A    between atoms: N_8  and  C_9
REMARK    2  A    between atoms: C_17  and  N_18
REMARK                            x       y       z     vdW  Elec       q    Type
REMARK                         _______ _______ _______ _____ _____    ______ ____
ROOT
ATOM      1  O   UNL     1       3.008   8.160  17.107  0.00  0.00    +0.000 OA
ATOM      2  C   UNL     1       2.494   8.062  18.221  0.00  0.00    +0.000 A 
ATOM      3  N   UNL     1       1.920   9.170  18.785  0.00  0.00    +0.000 N 
ATOM      4  C   UNL     1       1.306   9.160  19.994  0.00  0.00    +0.000 A 
ATOM      5  C   UNL     1       1.225   8.056  20.724  0.00  0.00    +0.000 A 
ATOM      6  C   UNL     1       1.801   6.806  20.223  0.00  0.00    +0.000 A 
ATOM      7  O   UNL     1       1.686   5.783  20.893  0.00  0.00    +0.000 OA
ATOM      8  N   UNL     1       2.424   6.890  18.965  0.00  0.00    +0.000 N 
ATOM      9  C   UNL     1       0.453   8.271  21.975  0.00  0.00    +0.000 C 
ATOM     10  C   UNL     1       0.394   9.805  22.053  0.00  0.00    +0.000 C 
ATOM     11  C   UNL     1       0.596  10.323  20.614  0.00  0.00    +0.000 C 
ATOM     12  H   UNL     1       1.930  10.009  18.208  0.00  0.00    +0.000 HD
ENDROOT
BRANCH  11  13
ATOM     13  N   UNL     1       1.450  11.504  20.592  0.00  0.00    +0.000 N 
ATOM     14  C   UNL     1       0.923  12.596  19.887  0.00  0.00    +0.000 A 
ATOM     15  C   UNL     1       1.697  13.749  19.765  0.00  0.00    +0.000 A 
ATOM     16  C   UNL     1       1.162  14.876  19.139  0.00  0.00    +0.000 A 
ATOM     17  C   UNL     1      -0.135  14.828  18.650  0.00  0.00    +0.000 A 
ATOM     18  C   UNL     1      -0.835  13.647  18.802  0.00  0.00    +0.000 A 
ATOM     19  N   UNL     1      -0.337  12.546  19.409  0.00  0.00    +0.000 NA
ATOM     20  H   UNL     1       2.399  11.316  20.293  0.00  0.00    +0.000 HD
ENDBRANCH  11  13
BRANCH   8  21
ATOM     21  C   UNL     1       2.908   5.640  18.377  0.00  0.00    +0.000 C 
ATOM     22  C   UNL     1       1.884   4.503  18.222  0.00  0.00    +0.000 C 
ATOM     23  C   UNL     1       2.464   3.492  17.225  0.00  0.00    +0.000 C 
ATOM     24  C   UNL     1       3.856   2.984  17.632  0.00  0.00    +0.000 C 
ATOM     25  C   UNL     1       4.815   4.080  18.116  0.00  0.00    +0.000 C 
ATOM     26  C   UNL     1       4.138   5.051  19.086  0.00  0.00    +0.000 C 
ENDBRANCH   8  21
TORSDOF 2
ENDMDL
MODEL 6
REMARK VINA RESULT:      -6.9      2.170      8.345
REMARK  Name = 
REMARK  2 active torsions:
REMARK  status: ('A' for Active; 'I' for Inactive)
REMARK    1  A    between atoms: N_8  and  C_9
REMARK    2  A    between atoms: C_17  and  N_18
REMARK                            x       y       z     vdW  Elec       q    Type
REMARK                         _______ _______ _______ _____ _____    ______ ____
ROOT
ATOM      1  O   UNL     1       1.852   6.007  21.137  0.00  0.00    +0.000 OA
ATOM      2  C   UNL     1       1.808   6.988  20.395  0.00  0.00    +0.000 A 
ATOM      3  N   UNL     1       1.320   8.169  20.888  0.00  0.00    +0.000 N 
ATOM      4  C   UNL     1       1.256   9.311  20.161  0.00  0.00    +0.000 A 
ATOM      5  C   UNL     1       1.661   9.358  18.900  0.00  0.00    +0.000 A 
ATOM      6  C   UNL     1       2.205   8.155  18.264  0.00  0.00    +0.000 A 
ATOM      7  O   UNL     1       2.612   8.222  17.107  0.00  0.00    +0.000 OA
ATOM      8  N   UNL     1       2.241   7.007  19.075  0.00  0.00    +0.000 N 
ATOM      9  C   UNL     1       1.556  10.726  18.330  0.00  0.00    +0.000 C 
ATOM     10  C   UNL     1       0.661  11.432  19.361  0.00  0.00    +0.000 C 
ATOM     11  C   UNL     1       0.808  10.643  20.679  0.00  0.00    +0.000 C 
ATOM     12  H   UNL     1       1.058   8.156  21.872  0.00  0.00    +0.000 HD
ENDROOT
BRANCH  11  13
ATOM     13  N   UNL     1      -0.473  10.512  21.362  0.00  0.00    +0.000 N 
ATOM     14  C   UNL     1      -0.850  11.631  22.119  0.00  0.00    +0.000 A 
ATOM     15  C   UNL     1      -2.034  11.574  22.853  0.00  0.00    +0.000 A 
ATOM     16  C   UNL     1      -2.471  12.702  23.548  0.00  0.00    +0.000 A 
ATOM     17  C   UNL     1      -1.719  13.866  23.493  0.00  0.00    +0.000 A 
ATOM     18  C   UNL     1      -0.553  13.843  22.751  0.00  0.00    +0.000 A 
ATOM     19  N   UNL     1      -0.115  12.761  22.067  0.00  0.00    +0.000 NA
ATOM     20  H   UNL     1      -0.556   9.669  21.915  0.00  0.00    +0.000 HD
ENDBRANCH  11  13
BRANCH   8  21
ATOM     21  C   UNL     1       2.883   5.817  18.516  0.00  0.00    +0.000 C 
ATOM     22  C   UNL     1       4.129   6.045  17.643  0.00  0.00    +0.000 C 
ATOM     23  C   UNL     1       4.868   4.705  17.534  0.00  0.00    +0.000 C 
ATOM     24  C   UNL     1       3.974   3.572  17.005  0.00  0.00    +0.000 C 
ATOM     25  C   UNL     1       2.575   3.522  17.634  0.00  0.00    +0.000 C 
ATOM     26  C   UNL     1       1.932   4.908  17.720  0.00  0.00    +0.000 C 
ENDBRANCH   8  21
TORSDOF 2
ENDMDL
MODEL 7
REMARK VINA RESULT:      -6.9      2.865      4.348
REMARK  Name = 
REMARK  2 active torsions:
REMARK  status: ('A' for Active; 'I' for Inactive)
REMARK    1  A    between atoms: N_8  and  C_9
REMARK    2  A    between atoms: C_17  and  N_18
REMARK                            x       y       z     vdW  Elec       q    Type
REMARK                         _______ _______ _______ _____ _____    ______ ____
ROOT
ATOM      1  O   UNL     1      -0.669   9.173  22.514  0.00  0.00    +0.000 OA
ATOM      2  C   UNL     1      -0.006   9.316  21.487  0.00  0.00    +0.000 A 
ATOM      3  N   UNL     1       0.615   8.224  20.942  0.00  0.00    +0.000 N 
ATOM      4  C   UNL     1       1.344   8.272  19.801  0.00  0.00    +0.000 A 
ATOM      5  C   UNL     1       1.512   9.402  19.129  0.00  0.00    +0.000 A 
ATOM      6  C   UNL     1       0.893  10.638  19.614  0.00  0.00    +0.000 A 
ATOM      7  O   UNL     1       1.026  11.670  18.961  0.00  0.00    +0.000 OA
ATOM      8  N   UNL     1       0.153  10.516  20.803  0.00  0.00    +0.000 N 
ATOM      9  C   UNL     1       2.291   9.198  17.880  0.00  0.00    +0.000 C 
ATOM     10  C   UNL     1       2.886   7.798  18.101  0.00  0.00    +0.000 C 
ATOM     11  C   UNL     1       1.972   7.092  19.124  0.00  0.00    +0.000 C 
ATOM     12  H   UNL     1       0.446   7.341  21.421  0.00  0.00    +0.000 HD
ENDROOT
BRANCH  11  13
ATOM     13  N   UNL     1       2.751   6.319  20.083  0.00  0.00    +0.000 N 
ATOM     14  C   UNL     1       2.249   5.036  20.347  0.00  0.00    +0.000 A 
ATOM     15  C   UNL     1       2.898   4.246  21.295  0.00  0.00    +0.000 A 
ATOM     16  C   UNL     1       2.465   2.938  21.516  0.00  0.00    +0.000 A 
ATOM     17  C   UNL     1       1.396   2.444  20.783  0.00  0.00    +0.000 A 
ATOM     18  C   UNL     1       0.800   3.291  19.867  0.00  0.00    +0.000 A 
ATOM     19  N   UNL     1       1.207   4.559  19.636  0.00  0.00    +0.000 NA
ATOM     20  H   UNL     1       2.937   6.809  20.949  0.00  0.00    +0.000 HD
ENDBRANCH  11  13
BRANCH   8  21
ATOM     21  C   UNL     1      -0.578  11.699  21.257  0.00  0.00    +0.000 C 
ATOM     22  C   UNL     1      -0.879  11.795  22.763  0.00  0.00    +0.000 C 
ATOM     23  C   UNL     1      -1.240  13.254  23.069  0.00  0.00    +0.000 C 
ATOM     24  C   UNL     1      -2.394  13.779  22.200  0.00  0.00    +0.000 C 
ATOM     25  C   UNL     1      -2.288  13.407  20.715  0.00  0.00    +0.000 C 
ATOM     26  C   UNL     1      -1.901  11.941  20.513  0.00  0.00    +0.000 C 
ENDBRANCH   8  21
TORSDOF 2
ENDMDL
MODEL 8
REMARK VINA RESULT:      -6.8      2.108      7.589
REMARK  Name = 
REMARK  2 active torsions:
REMARK  status: ('A' for Active; 'I' for Inactive)
REMARK    1  A    between atoms: N_8  and  C_9
REMARK    2  A    between atoms: C_17  and  N_18
REMARK                            x       y       z     vdW  Elec       q    Type
REMARK                         _______ _______ _______ _____ _____    ______ ____
ROOT
ATOM      1  O   UNL     1       3.178   7.800  17.312  0.00  0.00    +0.000 OA
ATOM      2  C   UNL     1       2.575   7.836  18.385  0.00  0.00    +0.000 A 
ATOM      3  N   UNL     1       2.014   9.018  18.788  0.00  0.00    +0.000 N 
ATOM      4  C   UNL     1       1.308   9.155  19.938  0.00  0.00    +0.000 A 
ATOM      5  C   UNL     1       1.118   8.136  20.764  0.00  0.00    +0.000 A 
ATOM      6  C   UNL     1       1.670   6.819  20.436  0.00  0.00    +0.000 A 
ATOM      7  O   UNL     1       1.454   5.875  21.192  0.00  0.00    +0.000 OA
ATOM      8  N   UNL     1       2.392   6.750  19.232  0.00  0.00    +0.000 N 
ATOM      9  C   UNL     1       0.262   8.508  21.920  0.00  0.00    +0.000 C 
ATOM     10  C   UNL     1       0.271  10.043  21.842  0.00  0.00    +0.000 C 
ATOM     11  C   UNL     1       0.608  10.403  20.380  0.00  0.00    +0.000 C 
ATOM     12  H   UNL     1       2.108   9.792  18.134  0.00  0.00    +0.000 HD
ENDROOT
BRANCH  11  13
ATOM     13  N   UNL     1       1.518  11.541  20.313  0.00  0.00    +0.000 N 
ATOM     14  C   UNL     1       0.964  12.702  19.753  0.00  0.00    +0.000 A 
ATOM     15  C   UNL     1       1.778  13.822  19.597  0.00  0.00    +0.000 A 
ATOM     16  C   UNL     1       1.229  15.013  19.119  0.00  0.00    +0.000 A 
ATOM     17  C   UNL     1      -0.122  15.061  18.811  0.00  0.00    +0.000 A 
ATOM     18  C   UNL     1      -0.862  13.907  18.986  0.00  0.00    +0.000 A 
ATOM     19  N   UNL     1      -0.350  12.745  19.451  0.00  0.00    +0.000 NA
ATOM     20  H   UNL     1       2.405  11.328  19.875  0.00  0.00    +0.000 HD
ENDBRANCH  11  13
BRANCH   8  21
ATOM     21  C   UNL     1       2.859   5.428  18.811  0.00  0.00    +0.000 C 
ATOM     22  C   UNL     1       4.299   5.337  18.278  0.00  0.00    +0.000 C 
ATOM     23  C   UNL     1       4.711   3.860  18.312  0.00  0.00    +0.000 C 
ATOM     24  C   UNL     1       3.738   2.951  17.546  0.00  0.00    +0.000 C 
ATOM     25  C   UNL     1       2.255   3.244  17.810  0.00  0.00    +0.000 C 
ATOM     26  C   UNL     1       1.949   4.743  17.779  0.00  0.00    +0.000 C 
ENDBRANCH   8  21
TORSDOF 2
ENDMDL
MODEL 9
REMARK VINA RESULT:      -6.7      2.185      3.945
REMARK  Name = 
REMARK  2 active torsions:
REMARK  status: ('A' for Active; 'I' for Inactive)
REMARK    1  A    between atoms: N_8  and  C_9
REMARK    2  A    between atoms: C_17  and  N_18
REMARK                            x       y       z     vdW  Elec       q    Type
REMARK                         _______ _______ _______ _____ _____    ______ ____
ROOT
ATOM      1  O   UNL     1       0.516   9.616  23.394  0.00  0.00    +0.000 OA
ATOM      2  C   UNL     1       0.604   9.762  22.175  0.00  0.00    +0.000 A 
ATOM      3  N   UNL     1       1.113   8.739  21.421  0.00  0.00    +0.000 N 
ATOM      4  C   UNL     1       1.226   8.790  20.071  0.00  0.00    +0.000 A 
ATOM      5  C   UNL     1       0.849   9.858  19.382  0.00  0.00    +0.000 A 
ATOM      6  C   UNL     1       0.286  11.016  20.080  0.00  0.00    +0.000 A 
ATOM      7  O   UNL     1      -0.093  11.983  19.425  0.00  0.00    +0.000 OA
ATOM      8  N   UNL     1       0.201  10.895  21.478  0.00  0.00    +0.000 N 
ATOM      9  C   UNL     1       1.005   9.659  17.917  0.00  0.00    +0.000 C 
ATOM     10  C   UNL     1       1.898   8.409  17.859  0.00  0.00    +0.000 C 
ATOM     11  C   UNL     1       1.699   7.669  19.198  0.00  0.00    +0.000 C 
ATOM     12  H   UNL     1       1.354   7.894  21.937  0.00  0.00    +0.000 HD
ENDROOT
BRANCH  11  13
ATOM     13  N   UNL     1       2.961   7.139  19.701  0.00  0.00    +0.000 N 
ATOM     14  C   UNL     1       3.329   5.896  19.164  0.00  0.00    +0.000 A 
ATOM     15  C   UNL     1       4.493   5.286  19.630  0.00  0.00    +0.000 A 
ATOM     16  C   UNL     1       4.923   4.090  19.053  0.00  0.00    +0.000 A 
ATOM     17  C   UNL     1       4.184   3.530  18.023  0.00  0.00    +0.000 A 
ATOM     18  C   UNL     1       3.038   4.190  17.622  0.00  0.00    +0.000 A 
ATOM     19  N   UNL     1       2.607   5.351  18.164  0.00  0.00    +0.000 NA
ATOM     20  H   UNL     1       3.022   7.118  20.711  0.00  0.00    +0.000 HD
ENDBRANCH  11  13
BRANCH   8  21
ATOM     21  C   UNL     1      -0.463  11.981  22.201  0.00  0.00    +0.000 C 
ATOM     22  C   UNL     1      -2.001  11.965  22.219  0.00  0.00    +0.000 C 
ATOM     23  C   UNL     1      -2.458  12.894  23.351  0.00  0.00    +0.000 C 
ATOM     24  C   UNL     1      -1.881  14.314  23.227  0.00  0.00    +0.000 C 
ATOM     25  C   UNL     1      -0.389  14.363  22.875  0.00  0.00    +0.000 C 
ATOM     26  C   UNL     1      -0.028  13.386  21.755  0.00  0.00    +0.000 C 
ENDBRANCH   8  21
TORSDOF 2
ENDMDL
