MODEL 1
REMARK VINA RESULT:      -6.8      0.000      0.000
REMARK  Name = 
REMARK  13 active torsions:
REMARK  status: ('A' for Active; 'I' for Inactive)
REMARK    1  A    between atoms: C_1  and  C_2
REMARK    2  A    between atoms: C_2  and  C_3
REMARK    3  A    between atoms: C_2  and  C_4
REMARK    4  A    between atoms: C_2  and  O_5
REMARK    5  A    between atoms: O_5  and  C_6
REMARK    6  A    between atoms: N_8  and  C_9
REMARK    7  A    between atoms: C_9  and  C_10
REMARK    8  A    between atoms: C_10  and  C_11
REMARK    9  A    between atoms: C_11  and  C_12
REMARK   10  A    between atoms: C_12  and  N_13
REMARK   11  A    between atoms: C_12  and  C_17
REMARK   12  A    between atoms: N_13  and  C_14
REMARK   13  A    between atoms: C_14  and  C_15
REMARK                            x       y       z     vdW  Elec       q    Type
REMARK                         _______ _______ _______ _____ _____    ______ ____
ROOT
ATOM      1  C   UNL     1       5.077   6.057  16.107  0.00  0.00    +0.000 C 
ENDROOT
BRANCH   1   2
ATOM      2  C   UNL     1       4.133   5.475  17.161  0.00  0.00    +0.000 C 
BRANCH   2   3
ATOM      3  C   UNL     1       3.805   4.037  16.822  0.00  0.00    +0.000 C 
BRANCH   3   6
ATOM      4  C   UNL     1       2.012   3.310  18.235  0.00  0.00    +0.000 C 
ATOM      5  O   UNL     1       1.206   3.919  17.539  0.00  0.00    +0.000 OA
ATOM      6  N   UNL     1       3.344   3.264  17.937  0.00  0.00    +0.000 N 
ATOM      7  H   UNL     1       3.964   2.802  18.588  0.00  0.00    +0.000 HD
BRANCH   4   8
ATOM      8  O   UNL     1       1.728   2.617  19.355  0.00  0.00    +0.000 OA
BRANCH   8  10
ATOM      9  C   UNL     1       2.288   4.626  20.659  0.00  0.00    +0.000 C 
ATOM     10  C   UNL     1       2.290   3.095  20.607  0.00  0.00    +0.000 C 
ATOM     11  C   UNL     1       3.695   2.510  20.844  0.00  0.00    +0.000 C 
ATOM     12  C   UNL     1       1.367   2.579  21.722  0.00  0.00    +0.000 C 
ENDBRANCH   8  10
ENDBRANCH   4   8
ENDBRANCH   3   6
ENDBRANCH   2   3
ENDBRANCH   1   2
BRANCH   1  13
ATOM     13  C   UNL     1       6.392   5.255  15.893  0.00  0.00    +0.000 C 
BRANCH  13  14
ATOM     14  C   UNL     1       6.573   4.804  14.447  0.00  0.00    +0.000 A 
ATOM     15  C   UNL     1       7.604   5.351  13.655  0.00  0.00    +0.000 A 
ATOM     16  C   UNL     1       7.796   4.906  12.342  0.00  0.00    +0.000 A 
ATOM     17  C   UNL     1       6.967   3.931  11.803  0.00  0.00    +0.000 A 
ATOM     18  C   UNL     1       5.929   3.411  12.557  0.00  0.00    +0.000 A 
ATOM     19  C   UNL     1       5.726   3.855  13.869  0.00  0.00    +0.000 A 
ENDBRANCH  13  14
BRANCH  13  20
ATOM     20  N   UNL     1       7.567   6.027  16.309  0.00  0.00    +0.000 NA
ATOM     21  H   UNL     1       8.393   5.429  16.243  0.00  0.00    +0.000 HD
BRANCH  20  22
ATOM     22  C   UNL     1       7.441   6.519  17.684  0.00  0.00    +0.000 C 
BRANCH  22  23
ATOM     23  C   UNL     1       7.790   7.995  17.778  0.00  0.00    +0.000 C 
ATOM     24  N   UNL     1       8.079   9.220  17.856  0.00  0.00    +0.000 NA
ENDBRANCH  22  23
ENDBRANCH  20  22
ENDBRANCH  13  20
ENDBRANCH   1  13
TORSDOF 10
ENDMDL
MODEL 2
REMARK VINA RESULT:      -6.8      1.710      2.268
REMARK  Name = 
REMARK  13 active torsions:
REMARK  status: ('A' for Active; 'I' for Inactive)
REMARK    1  A    between atoms: C_1  and  C_2
REMARK    2  A    between atoms: C_2  and  C_3
REMARK    3  A    between atoms: C_2  and  C_4
REMARK    4  A    between atoms: C_2  and  O_5
REMARK    5  A    between atoms: O_5  and  C_6
REMARK    6  A    between atoms: N_8  and  C_9
REMARK    7  A    between atoms: C_9  and  C_10
REMARK    8  A    between atoms: C_10  and  C_11
REMARK    9  A    between atoms: C_11  and  C_12
REMARK   10  A    between atoms: C_12  and  N_13
REMARK   11  A    between atoms: C_12  and  C_17
REMARK   12  A    between atoms: N_13  and  C_14
REMARK   13  A    between atoms: C_14  and  C_15
REMARK                            x       y       z     vdW  Elec       q    Type
REMARK                         _______ _______ _______ _____ _____    ______ ____
ROOT
ATOM      1  C   UNL     1       5.123   6.347  15.973  0.00  0.00    +0.000 C 
ENDROOT
BRANCH   1   2
ATOM      2  C   UNL     1       4.843   6.870  17.384  0.00  0.00    +0.000 C 
BRANCH   2   3
ATOM      3  C   UNL     1       3.357   7.082  17.569  0.00  0.00    +0.000 C 
BRANCH   3   6
ATOM      4  C   UNL     1       2.318   5.614  19.152  0.00  0.00    +0.000 C 
ATOM      5  O   UNL     1       2.578   6.397  20.060  0.00  0.00    +0.000 OA
ATOM      6  N   UNL     1       2.625   5.882  17.848  0.00  0.00    +0.000 N 
ATOM      7  H   UNL     1       2.446   5.166  17.158  0.00  0.00    +0.000 HD
BRANCH   4   8
ATOM      8  O   UNL     1       1.715   4.416  19.285  0.00  0.00    +0.000 OA
BRANCH   8  10
ATOM      9  C   UNL     1       2.257   3.271  21.393  0.00  0.00    +0.000 C 
ATOM     10  C   UNL     1       2.481   3.334  19.879  0.00  0.00    +0.000 C 
ATOM     11  C   UNL     1       3.974   3.448  19.519  0.00  0.00    +0.000 C 
ATOM     12  C   UNL     1       1.943   2.033  19.263  0.00  0.00    +0.000 C 
ENDBRANCH   8  10
ENDBRANCH   4   8
ENDBRANCH   3   6
ENDBRANCH   2   3
ENDBRANCH   1   2
BRANCH   1  13
ATOM     13  C   UNL     1       6.142   5.175  15.900  0.00  0.00    +0.000 C 
BRANCH  13  14
ATOM     14  C   UNL     1       6.438   4.746  14.466  0.00  0.00    +0.000 A 
ATOM     15  C   UNL     1       5.639   3.770  13.836  0.00  0.00    +0.000 A 
ATOM     16  C   UNL     1       5.885   3.409  12.506  0.00  0.00    +0.000 A 
ATOM     17  C   UNL     1       6.925   3.998  11.799  0.00  0.00    +0.000 A 
ATOM     18  C   UNL     1       7.739   4.931  12.417  0.00  0.00    +0.000 A 
ATOM     19  C   UNL     1       7.504   5.294  13.748  0.00  0.00    +0.000 A 
ENDBRANCH  13  14
BRANCH  13  20
ATOM     20  N   UNL     1       7.400   5.513  16.572  0.00  0.00    +0.000 NA
ATOM     21  H   UNL     1       8.142   5.573  15.871  0.00  0.00    +0.000 HD
BRANCH  20  22
ATOM     22  C   UNL     1       7.771   4.513  17.577  0.00  0.00    +0.000 C 
BRANCH  22  23
ATOM     23  C   UNL     1       7.655   5.072  18.985  0.00  0.00    +0.000 C 
ATOM     24  N   UNL     1       7.559   5.537  20.153  0.00  0.00    +0.000 NA
ENDBRANCH  22  23
ENDBRANCH  20  22
ENDBRANCH  13  20
ENDBRANCH   1  13
TORSDOF 10
ENDMDL
MODEL 3
REMARK VINA RESULT:      -6.8      3.324      6.891
REMARK  Name = 
REMARK  13 active torsions:
REMARK  status: ('A' for Active; 'I' for Inactive)
REMARK    1  A    between atoms: C_1  and  C_2
REMARK    2  A    between atoms: C_2  and  C_3
REMARK    3  A    between atoms: C_2  and  C_4
REMARK    4  A    between atoms: C_2  and  O_5
REMARK    5  A    between atoms: O_5  and  C_6
REMARK    6  A    between atoms: N_8  and  C_9
REMARK    7  A    between atoms: C_9  and  C_10
REMARK    8  A    between atoms: C_10  and  C_11
REMARK    9  A    between atoms: C_11  and  C_12
REMARK   10  A    between atoms: C_12  and  N_13
REMARK   11  A    between atoms: C_12  and  C_17
REMARK   12  A    between atoms: N_13  and  C_14
REMARK   13  A    between atoms: C_14  and  C_15
REMARK                            x       y       z     vdW  Elec       q    Type
REMARK                         _______ _______ _______ _____ _____    ______ ____
ROOT
ATOM      1  C   UNL     1       4.361   6.160  18.156  0.00  0.00    +0.000 C 
ENDROOT
BRANCH   1   2
ATOM      2  C   UNL     1       4.922   5.379  19.347  0.00  0.00    +0.000 C 
BRANCH   2   3
ATOM      3  C   UNL     1       6.338   4.934  19.051  0.00  0.00    +0.000 C 
BRANCH   3   6
ATOM      4  C   UNL     1       7.172   4.798  16.809  0.00  0.00    +0.000 C 
ATOM      5  O   UNL     1       7.733   5.879  16.944  0.00  0.00    +0.000 OA
ATOM      6  N   UNL     1       6.477   4.205  17.825  0.00  0.00    +0.000 N 
ATOM      7  H   UNL     1       5.981   3.347  17.628  0.00  0.00    +0.000 HD
BRANCH   4   8
ATOM      8  O   UNL     1       7.149   4.049  15.688  0.00  0.00    +0.000 OA
BRANCH   8  10
ATOM      9  C   UNL     1       5.456   5.651  14.901  0.00  0.00    +0.000 C 
ATOM     10  C   UNL     1       6.515   4.615  14.510  0.00  0.00    +0.000 C 
ATOM     11  C   UNL     1       5.937   3.511  13.605  0.00  0.00    +0.000 C 
ATOM     12  C   UNL     1       7.622   5.338  13.726  0.00  0.00    +0.000 C 
ENDBRANCH   8  10
ENDBRANCH   4   8
ENDBRANCH   3   6
ENDBRANCH   2   3
ENDBRANCH   1   2
BRANCH   1  13
ATOM     13  C   UNL     1       2.810   6.271  18.118  0.00  0.00    +0.000 C 
BRANCH  13  14
ATOM     14  C   UNL     1       2.122   5.048  18.717  0.00  0.00    +0.000 A 
ATOM     15  C   UNL     1       1.741   5.040  20.074  0.00  0.00    +0.000 A 
ATOM     16  C   UNL     1       1.071   3.934  20.612  0.00  0.00    +0.000 A 
ATOM     17  C   UNL     1       0.787   2.831  19.817  0.00  0.00    +0.000 A 
ATOM     18  C   UNL     1       1.187   2.812  18.492  0.00  0.00    +0.000 A 
ATOM     19  C   UNL     1       1.863   3.910  17.948  0.00  0.00    +0.000 A 
ENDBRANCH  13  14
BRANCH  13  20
ATOM     20  N   UNL     1       2.340   7.476  18.809  0.00  0.00    +0.000 NA
ATOM     21  H   UNL     1       1.406   7.296  19.183  0.00  0.00    +0.000 HD
BRANCH  20  22
ATOM     22  C   UNL     1       2.283   8.634  17.912  0.00  0.00    +0.000 C 
BRANCH  22  23
ATOM     23  C   UNL     1       1.133   9.559  18.275  0.00  0.00    +0.000 C 
ATOM     24  N   UNL     1       0.180  10.327  18.577  0.00  0.00    +0.000 NA
ENDBRANCH  22  23
ENDBRANCH  20  22
ENDBRANCH  13  20
ENDBRANCH   1  13
TORSDOF 10
ENDMDL
MODEL 4
REMARK VINA RESULT:      -6.6      1.345      2.002
REMARK  Name = 
REMARK  13 active torsions:
REMARK  status: ('A' for Active; 'I' for Inactive)
REMARK    1  A    between atoms: C_1  and  C_2
REMARK    2  A    between atoms: C_2  and  C_3
REMARK    3  A    between atoms: C_2  and  C_4
REMARK    4  A    between atoms: C_2  and  O_5
REMARK    5  A    between atoms: O_5  and  C_6
REMARK    6  A    between atoms: N_8  and  C_9
REMARK    7  A    between atoms: C_9  and  C_10
REMARK    8  A    between atoms: C_10  and  C_11
REMARK    9  A    between atoms: C_11  and  C_12
REMARK   10  A    between atoms: C_12  and  N_13
REMARK   11  A    between atoms: C_12  and  C_17
REMARK   12  A    between atoms: N_13  and  C_14
REMARK   13  A    between atoms: C_14  and  C_15
REMARK                            x       y       z     vdW  Elec       q    Type
REMARK                         _______ _______ _______ _____ _____    ______ ____
ROOT
ATOM      1  C   UNL     1       5.001   5.310  16.440  0.00  0.00    +0.000 C 
ENDROOT
BRANCH   1   2
ATOM      2  C   UNL     1       4.480   6.727  16.691  0.00  0.00    +0.000 C 
BRANCH   2   3
ATOM      3  C   UNL     1       3.524   6.725  17.864  0.00  0.00    +0.000 C 
BRANCH   3   6
ATOM      4  C   UNL     1       2.859   5.521  19.826  0.00  0.00    +0.000 C 
ATOM      5  O   UNL     1       2.085   6.423  20.127  0.00  0.00    +0.000 OA
ATOM      6  N   UNL     1       3.601   5.549  18.679  0.00  0.00    +0.000 N 
ATOM      7  H   UNL     1       4.269   4.807  18.524  0.00  0.00    +0.000 HD
BRANCH   4   8
ATOM      8  O   UNL     1       3.093   4.404  20.543  0.00  0.00    +0.000 OA
BRANCH   8  10
ATOM      9  C   UNL     1       2.886   2.233  19.404  0.00  0.00    +0.000 C 
ATOM     10  C   UNL     1       2.220   3.263  20.323  0.00  0.00    +0.000 C 
ATOM     11  C   UNL     1       0.846   3.710  19.790  0.00  0.00    +0.000 C 
ATOM     12  C   UNL     1       2.006   2.609  21.696  0.00  0.00    +0.000 C 
ENDBRANCH   8  10
ENDBRANCH   4   8
ENDBRANCH   3   6
ENDBRANCH   2   3
ENDBRANCH   1   2
BRANCH   1  13
ATOM     13  C   UNL     1       6.503   5.226  16.048  0.00  0.00    +0.000 C 
BRANCH  13  14
ATOM     14  C   UNL     1       6.705   4.807  14.595  0.00  0.00    +0.000 A 
ATOM     15  C   UNL     1       5.923   3.775  14.037  0.00  0.00    +0.000 A 
ATOM     16  C   UNL     1       6.079   3.421  12.691  0.00  0.00    +0.000 A 
ATOM     17  C   UNL     1       7.014   4.073  11.897  0.00  0.00    +0.000 A 
ATOM     18  C   UNL     1       7.813   5.063  12.442  0.00  0.00    +0.000 A 
ATOM     19  C   UNL     1       7.667   5.420  13.788  0.00  0.00    +0.000 A 
ENDBRANCH  13  14
BRANCH  13  20
ATOM     20  N   UNL     1       7.193   6.497  16.284  0.00  0.00    +0.000 NA
ATOM     21  H   UNL     1       8.016   6.542  15.679  0.00  0.00    +0.000 HD
BRANCH  20  22
ATOM     22  C   UNL     1       7.617   6.640  17.680  0.00  0.00    +0.000 C 
BRANCH  22  23
ATOM     23  C   UNL     1       8.065   8.061  17.981  0.00  0.00    +0.000 C 
ATOM     24  N   UNL     1       8.436   9.240  18.229  0.00  0.00    +0.000 NA
ENDBRANCH  22  23
ENDBRANCH  20  22
ENDBRANCH  13  20
ENDBRANCH   1  13
TORSDOF 10
ENDMDL
MODEL 5
REMARK VINA RESULT:      -6.6      1.218      1.935
REMARK  Name = 
REMARK  13 active torsions:
REMARK  status: ('A' for Active; 'I' for Inactive)
REMARK    1  A    between atoms: C_1  and  C_2
REMARK    2  A    between atoms: C_2  and  C_3
REMARK    3  A    between atoms: C_2  and  C_4
REMARK    4  A    between atoms: C_2  and  O_5
REMARK    5  A    between atoms: O_5  and  C_6
REMARK    6  A    between atoms: N_8  and  C_9
REMARK    7  A    between atoms: C_9  and  C_10
REMARK    8  A    between atoms: C_10  and  C_11
REMARK    9  A    between atoms: C_11  and  C_12
REMARK   10  A    between atoms: C_12  and  N_13
REMARK   11  A    between atoms: C_12  and  C_17
REMARK   12  A    between atoms: N_13  and  C_14
REMARK   13  A    between atoms: C_14  and  C_15
REMARK                            x       y       z     vdW  Elec       q    Type
REMARK                         _______ _______ _______ _____ _____    ______ ____
ROOT
ATOM      1  C   UNL     1       5.088   5.182  16.348  0.00  0.00    +0.000 C 
ENDROOT
BRANCH   1   2
ATOM      2  C   UNL     1       3.832   4.329  16.544  0.00  0.00    +0.000 C 
BRANCH   2   3
ATOM      3  C   UNL     1       4.209   2.978  17.110  0.00  0.00    +0.000 C 
BRANCH   3   6
ATOM      4  C   UNL     1       3.941   2.878  19.489  0.00  0.00    +0.000 C 
ATOM      5  O   UNL     1       4.973   3.522  19.640  0.00  0.00    +0.000 OA
ATOM      6  N   UNL     1       3.437   2.587  18.253  0.00  0.00    +0.000 N 
ATOM      7  H   UNL     1       2.620   1.995  18.197  0.00  0.00    +0.000 HD
BRANCH   4   8
ATOM      8  O   UNL     1       3.167   2.376  20.472  0.00  0.00    +0.000 OA
BRANCH   8  10
ATOM      9  C   UNL     1       1.315   2.542  22.082  0.00  0.00    +0.000 C 
ATOM     10  C   UNL     1       1.932   3.074  20.784  0.00  0.00    +0.000 C 
ATOM     11  C   UNL     1       0.944   3.010  19.605  0.00  0.00    +0.000 C 
ATOM     12  C   UNL     1       2.311   4.547  21.006  0.00  0.00    +0.000 C 
ENDBRANCH   8  10
ENDBRANCH   4   8
ENDBRANCH   3   6
ENDBRANCH   2   3
ENDBRANCH   1   2
BRANCH   1  13
ATOM     13  C   UNL     1       6.376   4.379  16.009  0.00  0.00    +0.000 C 
BRANCH  13  14
ATOM     14  C   UNL     1       6.686   4.375  14.516  0.00  0.00    +0.000 A 
ATOM     15  C   UNL     1       6.036   3.465  13.657  0.00  0.00    +0.000 A 
ATOM     16  C   UNL     1       6.289   3.491  12.280  0.00  0.00    +0.000 A 
ATOM     17  C   UNL     1       7.192   4.403  11.749  0.00  0.00    +0.000 A 
ATOM     18  C   UNL     1       7.863   5.279  12.585  0.00  0.00    +0.000 A 
ATOM     19  C   UNL     1       7.620   5.256  13.964  0.00  0.00    +0.000 A 
ENDBRANCH  13  14
BRANCH  13  20
ATOM     20  N   UNL     1       7.537   4.892  16.742  0.00  0.00    +0.000 NA
ATOM     21  H   UNL     1       8.072   4.101  17.106  0.00  0.00    +0.000 HD
BRANCH  20  22
ATOM     22  C   UNL     1       7.143   5.757  17.857  0.00  0.00    +0.000 C 
BRANCH  22  23
ATOM     23  C   UNL     1       7.578   7.195  17.624  0.00  0.00    +0.000 C 
ATOM     24  N   UNL     1       7.939   8.387  17.430  0.00  0.00    +0.000 NA
ENDBRANCH  22  23
ENDBRANCH  20  22
ENDBRANCH  13  20
ENDBRANCH   1  13
TORSDOF 10
ENDMDL
MODEL 6
REMARK VINA RESULT:      -6.5      2.946      6.804
REMARK  Name = 
REMARK  13 active torsions:
REMARK  status: ('A' for Active; 'I' for Inactive)
REMARK    1  A    between atoms: C_1  and  C_2
REMARK    2  A    between atoms: C_2  and  C_3
REMARK    3  A    between atoms: C_2  and  C_4
REMARK    4  A    between atoms: C_2  and  O_5
REMARK    5  A    between atoms: O_5  and  C_6
REMARK    6  A    between atoms: N_8  and  C_9
REMARK    7  A    between atoms: C_9  and  C_10
REMARK    8  A    between atoms: C_10  and  C_11
REMARK    9  A    between atoms: C_11  and  C_12
REMARK   10  A    between atoms: C_12  and  N_13
REMARK   11  A    between atoms: C_12  and  C_17
REMARK   12  A    between atoms: N_13  and  C_14
REMARK   13  A    between atoms: C_14  and  C_15
REMARK                            x       y       z     vdW  Elec       q    Type
REMARK                         _______ _______ _______ _____ _____    ______ ____
ROOT
ATOM      1  C   UNL     1       5.288   4.494  18.660  0.00  0.00    +0.000 C 
ENDROOT
BRANCH   1   2
ATOM      2  C   UNL     1       6.072   5.509  19.495  0.00  0.00    +0.000 C 
BRANCH   2   3
ATOM      3  C   UNL     1       7.486   5.626  18.969  0.00  0.00    +0.000 C 
BRANCH   3   6
ATOM      4  C   UNL     1       7.544   6.011  16.605  0.00  0.00    +0.000 C 
ATOM      5  O   UNL     1       7.380   7.212  16.789  0.00  0.00    +0.000 OA
ATOM      6  N   UNL     1       7.659   5.124  17.638  0.00  0.00    +0.000 N 
ATOM      7  H   UNL     1       7.724   4.140  17.419  0.00  0.00    +0.000 HD
BRANCH   4   8
ATOM      8  O   UNL     1       7.635   5.396  15.410  0.00  0.00    +0.000 OA
BRANCH   8  10
ATOM      9  C   UNL     1       5.259   5.870  14.983  0.00  0.00    +0.000 C 
ATOM     10  C   UNL     1       6.412   4.874  14.822  0.00  0.00    +0.000 C 
ATOM     11  C   UNL     1       6.065   3.489  15.400  0.00  0.00    +0.000 C 
ATOM     12  C   UNL     1       6.690   4.706  13.321  0.00  0.00    +0.000 C 
ENDBRANCH   8  10
ENDBRANCH   4   8
ENDBRANCH   3   6
ENDBRANCH   2   3
ENDBRANCH   1   2
BRANCH   1  13
ATOM     13  C   UNL     1       3.859   4.950  18.248  0.00  0.00    +0.000 C 
BRANCH  13  14
ATOM     14  C   UNL     1       2.767   4.228  19.030  0.00  0.00    +0.000 A 
ATOM     15  C   UNL     1       1.878   3.355  18.370  0.00  0.00    +0.000 A 
ATOM     16  C   UNL     1       0.903   2.659  19.096  0.00  0.00    +0.000 A 
ATOM     17  C   UNL     1       0.794   2.832  20.469  0.00  0.00    +0.000 A 
ATOM     18  C   UNL     1       1.638   3.712  21.125  0.00  0.00    +0.000 A 
ATOM     19  C   UNL     1       2.611   4.416  20.406  0.00  0.00    +0.000 A 
ENDBRANCH  13  14
BRANCH  13  20
ATOM     20  N   UNL     1       3.690   6.397  18.407  0.00  0.00    +0.000 NA
ATOM     21  H   UNL     1       3.802   6.635  19.395  0.00  0.00    +0.000 HD
BRANCH  20  22
ATOM     22  C   UNL     1       2.372   6.848  17.953  0.00  0.00    +0.000 C 
BRANCH  22  23
ATOM     23  C   UNL     1       2.324   8.360  17.805  0.00  0.00    +0.000 C 
ATOM     24  N   UNL     1       2.285   9.615  17.683  0.00  0.00    +0.000 NA
ENDBRANCH  22  23
ENDBRANCH  20  22
ENDBRANCH  13  20
ENDBRANCH   1  13
TORSDOF 10
ENDMDL
MODEL 7
REMARK VINA RESULT:      -6.5      3.119      7.008
REMARK  Name = 
REMARK  13 active torsions:
REMARK  status: ('A' for Active; 'I' for Inactive)
REMARK    1  A    between atoms: C_1  and  C_2
REMARK    2  A    between atoms: C_2  and  C_3
REMARK    3  A    between atoms: C_2  and  C_4
REMARK    4  A    between atoms: C_2  and  O_5
REMARK    5  A    between atoms: O_5  and  C_6
REMARK    6  A    between atoms: N_8  and  C_9
REMARK    7  A    between atoms: C_9  and  C_10
REMARK    8  A    between atoms: C_10  and  C_11
REMARK    9  A    between atoms: C_11  and  C_12
REMARK   10  A    between atoms: C_12  and  N_13
REMARK   11  A    between atoms: C_12  and  C_17
REMARK   12  A    between atoms: N_13  and  C_14
REMARK   13  A    between atoms: C_14  and  C_15
REMARK                            x       y       z     vdW  Elec       q    Type
REMARK                         _______ _______ _______ _____ _____    ______ ____
ROOT
ATOM      1  C   UNL     1       5.120   5.449  18.047  0.00  0.00    +0.000 C 
ENDROOT
BRANCH   1   2
ATOM      2  C   UNL     1       6.013   6.235  17.084  0.00  0.00    +0.000 C 
BRANCH   2   3
ATOM      3  C   UNL     1       5.412   6.220  15.695  0.00  0.00    +0.000 C 
BRANCH   3   6
ATOM      4  C   UNL     1       6.558   4.616  14.334  0.00  0.00    +0.000 C 
ATOM      5  O   UNL     1       7.539   5.348  14.282  0.00  0.00    +0.000 OA
ATOM      6  N   UNL     1       5.445   4.936  15.059  0.00  0.00    +0.000 N 
ATOM      7  H   UNL     1       4.645   4.321  15.005  0.00  0.00    +0.000 HD
BRANCH   4   8
ATOM      8  O   UNL     1       6.421   3.426  13.714  0.00  0.00    +0.000 OA
BRANCH   8  10
ATOM      9  C   UNL     1       7.083   4.499  11.601  0.00  0.00    +0.000 C 
ATOM     10  C   UNL     1       6.213   3.433  12.276  0.00  0.00    +0.000 C 
ATOM     11  C   UNL     1       4.721   3.600  11.931  0.00  0.00    +0.000 C 
ATOM     12  C   UNL     1       6.665   2.056  11.766  0.00  0.00    +0.000 C 
ENDBRANCH   8  10
ENDBRANCH   4   8
ENDBRANCH   3   6
ENDBRANCH   2   3
ENDBRANCH   1   2
BRANCH   1  13
ATOM     13  C   UNL     1       3.595   5.709  17.886  0.00  0.00    +0.000 C 
BRANCH  13  14
ATOM     14  C   UNL     1       2.753   4.492  18.253  0.00  0.00    +0.000 A 
ATOM     15  C   UNL     1       1.785   4.579  19.275  0.00  0.00    +0.000 A 
ATOM     16  C   UNL     1       0.983   3.473  19.582  0.00  0.00    +0.000 A 
ATOM     17  C   UNL     1       1.140   2.278  18.893  0.00  0.00    +0.000 A 
ATOM     18  C   UNL     1       2.110   2.169  17.911  0.00  0.00    +0.000 A 
ATOM     19  C   UNL     1       2.921   3.267  17.602  0.00  0.00    +0.000 A 
ENDBRANCH  13  14
BRANCH  13  20
ATOM     20  N   UNL     1       3.158   6.858  18.684  0.00  0.00    +0.000 NA
ATOM     21  H   UNL     1       2.426   6.551  19.328  0.00  0.00    +0.000 HD
BRANCH  20  22
ATOM     22  C   UNL     1       2.636   7.941  17.846  0.00  0.00    +0.000 C 
BRANCH  22  23
ATOM     23  C   UNL     1       1.720   8.861  18.636  0.00  0.00    +0.000 C 
ATOM     24  N   UNL     1       0.959   9.623  19.292  0.00  0.00    +0.000 NA
ENDBRANCH  22  23
ENDBRANCH  20  22
ENDBRANCH  13  20
ENDBRANCH   1  13
TORSDOF 10
ENDMDL
MODEL 8
REMARK VINA RESULT:      -6.5      0.978      1.520
REMARK  Name = 
REMARK  13 active torsions:
REMARK  status: ('A' for Active; 'I' for Inactive)
REMARK    1  A    between atoms: C_1  and  C_2
REMARK    2  A    between atoms: C_2  and  C_3
REMARK    3  A    between atoms: C_2  and  C_4
REMARK    4  A    between atoms: C_2  and  O_5
REMARK    5  A    between atoms: O_5  and  C_6
REMARK    6  A    between atoms: N_8  and  C_9
REMARK    7  A    between atoms: C_9  and  C_10
REMARK    8  A    between atoms: C_10  and  C_11
REMARK    9  A    between atoms: C_11  and  C_12
REMARK   10  A    between atoms: C_12  and  N_13
REMARK   11  A    between atoms: C_12  and  C_17
REMARK   12  A    between atoms: N_13  and  C_14
REMARK   13  A    between atoms: C_14  and  C_15
REMARK                            x       y       z     vdW  Elec       q    Type
REMARK                         _______ _______ _______ _____ _____    ______ ____
ROOT
ATOM      1  C   UNL     1       5.736   4.151  16.939  0.00  0.00    +0.000 C 
ENDROOT
BRANCH   1   2
ATOM      2  C   UNL     1       4.332   4.756  16.885  0.00  0.00    +0.000 C 
BRANCH   2   3
ATOM      3  C   UNL     1       3.309   3.666  16.651  0.00  0.00    +0.000 C 
BRANCH   3   6
ATOM      4  C   UNL     1       1.733   3.072  18.354  0.00  0.00    +0.000 C 
ATOM      5  O   UNL     1       0.879   3.771  17.818  0.00  0.00    +0.000 OA
ATOM      6  N   UNL     1       2.981   2.910  17.823  0.00  0.00    +0.000 N 
ATOM      7  H   UNL     1       3.659   2.376  18.349  0.00  0.00    +0.000 HD
BRANCH   4   8
ATOM      8  O   UNL     1       1.587   2.380  19.501  0.00  0.00    +0.000 OA
BRANCH   8  10
ATOM      9  C   UNL     1       1.325   2.455  21.946  0.00  0.00    +0.000 C 
ATOM     10  C   UNL     1       2.085   2.985  20.725  0.00  0.00    +0.000 C 
ATOM     11  C   UNL     1       2.045   4.522  20.641  0.00  0.00    +0.000 C 
ATOM     12  C   UNL     1       3.554   2.555  20.855  0.00  0.00    +0.000 C 
ENDBRANCH   8  10
ENDBRANCH   4   8
ENDBRANCH   3   6
ENDBRANCH   2   3
ENDBRANCH   1   2
BRANCH   1  13
ATOM     13  C   UNL     1       6.837   4.989  16.227  0.00  0.00    +0.000 C 
BRANCH  13  14
ATOM     14  C   UNL     1       6.888   4.731  14.725  0.00  0.00    +0.000 A 
ATOM     15  C   UNL     1       7.732   5.502  13.899  0.00  0.00    +0.000 A 
ATOM     16  C   UNL     1       7.810   5.236  12.526  0.00  0.00    +0.000 A 
ATOM     17  C   UNL     1       7.048   4.220  11.964  0.00  0.00    +0.000 A 
ATOM     18  C   UNL     1       6.189   3.479  12.757  0.00  0.00    +0.000 A 
ATOM     19  C   UNL     1       6.100   3.742  14.129  0.00  0.00    +0.000 A 
ENDBRANCH  13  14
BRANCH  13  20
ATOM     20  N   UNL     1       6.659   6.424  16.465  0.00  0.00    +0.000 NA
ATOM     21  H   UNL     1       6.763   6.920  15.578  0.00  0.00    +0.000 HD
BRANCH  20  22
ATOM     22  C   UNL     1       7.637   6.946  17.424  0.00  0.00    +0.000 C 
BRANCH  22  23
ATOM     23  C   UNL     1       7.603   6.168  18.729  0.00  0.00    +0.000 C 
ATOM     24  N   UNL     1       7.575   5.523  19.812  0.00  0.00    +0.000 NA
ENDBRANCH  22  23
ENDBRANCH  20  22
ENDBRANCH  13  20
ENDBRANCH   1  13
TORSDOF 10
ENDMDL
MODEL 9
REMARK VINA RESULT:      -6.5      2.997      6.685
REMARK  Name = 
REMARK  13 active torsions:
REMARK  status: ('A' for Active; 'I' for Inactive)
REMARK    1  A    between atoms: C_1  and  C_2
REMARK    2  A    between atoms: C_2  and  C_3
REMARK    3  A    between atoms: C_2  and  C_4
REMARK    4  A    between atoms: C_2  and  O_5
REMARK    5  A    between atoms: O_5  and  C_6
REMARK    6  A    between atoms: N_8  and  C_9
REMARK    7  A    between atoms: C_9  and  C_10
REMARK    8  A    between atoms: C_10  and  C_11
REMARK    9  A    between atoms: C_11  and  C_12
REMARK   10  A    between atoms: C_12  and  N_13
REMARK   11  A    between atoms: C_12  and  C_17
REMARK   12  A    between atoms: N_13  and  C_14
REMARK   13  A    between atoms: C_14  and  C_15
REMARK                            x       y       z     vdW  Elec       q    Type
REMARK                         _______ _______ _______ _____ _____    ______ ____
ROOT
ATOM      1  C   UNL     1       5.184   4.598  18.443  0.00  0.00    +0.000 C 
ENDROOT
BRANCH   1   2
ATOM      2  C   UNL     1       6.004   5.378  19.472  0.00  0.00    +0.000 C 
BRANCH   2   3
ATOM      3  C   UNL     1       7.397   5.631  18.937  0.00  0.00    +0.000 C 
BRANCH   3   6
ATOM      4  C   UNL     1       7.480   5.949  16.564  0.00  0.00    +0.000 C 
ATOM      5  O   UNL     1       7.245   7.144  16.708  0.00  0.00    +0.000 OA
ATOM      6  N   UNL     1       7.624   5.101  17.625  0.00  0.00    +0.000 N 
ATOM      7  H   UNL     1       7.749   4.116  17.437  0.00  0.00    +0.000 HD
BRANCH   4   8
ATOM      8  O   UNL     1       7.630   5.305  15.389  0.00  0.00    +0.000 OA
BRANCH   8  10
ATOM      9  C   UNL     1       6.011   3.456  15.501  0.00  0.00    +0.000 C 
ATOM     10  C   UNL     1       6.444   4.734  14.775  0.00  0.00    +0.000 C 
ATOM     11  C   UNL     1       6.657   4.498  13.268  0.00  0.00    +0.000 C 
ATOM     12  C   UNL     1       5.326   5.776  14.937  0.00  0.00    +0.000 C 
ENDBRANCH   8  10
ENDBRANCH   4   8
ENDBRANCH   3   6
ENDBRANCH   2   3
ENDBRANCH   1   2
BRANCH   1  13
ATOM     13  C   UNL     1       3.768   5.177  18.159  0.00  0.00    +0.000 C 
BRANCH  13  14
ATOM     14  C   UNL     1       2.656   4.324  18.760  0.00  0.00    +0.000 A 
ATOM     15  C   UNL     1       2.108   4.652  20.017  0.00  0.00    +0.000 A 
ATOM     16  C   UNL     1       1.058   3.894  20.548  0.00  0.00    +0.000 A 
ATOM     17  C   UNL     1       0.555   2.804  19.849  0.00  0.00    +0.000 A 
ATOM     18  C   UNL     1       1.108   2.449  18.631  0.00  0.00    +0.000 A 
ATOM     19  C   UNL     1       2.162   3.198  18.095  0.00  0.00    +0.000 A 
ENDBRANCH  13  14
BRANCH  13  20
ATOM     20  N   UNL     1       3.642   6.552  18.652  0.00  0.00    +0.000 NA
ATOM     21  H   UNL     1       2.816   6.612  19.251  0.00  0.00    +0.000 HD
BRANCH  20  22
ATOM     22  C   UNL     1       3.510   7.517  17.556  0.00  0.00    +0.000 C 
BRANCH  22  23
ATOM     23  C   UNL     1       2.366   8.486  17.806  0.00  0.00    +0.000 C 
ATOM     24  N   UNL     1       1.416   9.289  18.013  0.00  0.00    +0.000 NA
ENDBRANCH  22  23
ENDBRANCH  20  22
ENDBRANCH  13  20
ENDBRANCH   1  13
TORSDOF 10
ENDMDL
