MODEL 1
REMARK VINA RESULT:      -8.6      0.000      0.000
REMARK  Name = 
REMARK  4 active torsions:
REMARK  status: ('A' for Active; 'I' for Inactive)
REMARK    1  A    between atoms: C_1  and  C_2
REMARK    2  A    between atoms: C_5  and  C_7
REMARK    3  A    between atoms: C_15  and  O_16
REMARK    4  A    between atoms: C_15  and  C_17
REMARK                            x       y       z     vdW  Elec       q    Type
REMARK                         _______ _______ _______ _____ _____    ______ ____
ROOT
ATOM      1  C   UNL     1       2.653   3.538  17.663  0.00  0.00    +0.000 C 
ATOM      2  C   UNL     1       2.865   5.071  17.743  0.00  0.00    +0.000 C 
ATOM      3  C   UNL     1       4.191   5.367  17.038  0.00  0.00    +0.000 C 
ATOM      4  N   UNL     1       5.370   4.991  17.819  0.00  0.00    +0.000 N 
ATOM      5  C   UNL     1       6.589   4.592  17.236  0.00  0.00    +0.000 C 
ATOM      6  O   UNL     1       7.556   4.285  17.940  0.00  0.00    +0.000 OA
ATOM      7  C   UNL     1       5.393   5.363  19.234  0.00  0.00    +0.000 C 
ATOM      8  C   UNL     1       4.068   5.139  19.952  0.00  0.00    +0.000 C 
ATOM      9  C   UNL     1       2.823   5.638  19.187  0.00  0.00    +0.000 C 
ENDROOT
BRANCH   5  10
ATOM     10  C   UNL     1       6.676   4.492  15.785  0.00  0.00    +0.000 A 
ATOM     11  C   UNL     1       5.957   3.729  14.891  0.00  0.00    +0.000 A 
ATOM     12  C   UNL     1       6.414   4.079  13.592  0.00  0.00    +0.000 A 
ATOM     13  C   UNL     1       7.419   5.008  13.771  0.00  0.00    +0.000 A 
ATOM     14 CL   UNL     1       8.303   5.826  12.552  0.00  0.00    +0.000 Cl
ATOM     15  O   UNL     1       7.617   5.217  15.099  0.00  0.00    +0.000 OA
ENDBRANCH   5  10
BRANCH   9  16
ATOM     16  C   UNL     1       2.543   7.197  19.270  0.00  0.00    +0.000 C 
ATOM     17  C   UNL     1       1.610   7.710  20.382  0.00  0.00    +0.000 C 
ATOM     18  C   UNL     1       1.229   9.183  20.250  0.00  0.00    +0.000 C 
ATOM     19  O   UNL     1       0.761   9.482  18.942  0.00  0.00    +0.000 OA
ATOM     20  C   UNL     1       1.774   9.249  17.971  0.00  0.00    +0.000 C 
ATOM     21  C   UNL     1       2.088   7.763  17.902  0.00  0.00    +0.000 C 
ENDBRANCH   9  16
BRANCH   9  22
ATOM     22  O   UNL     1       1.662   5.064  19.835  0.00  0.00    +0.000 OA
ATOM     23  H   UNL     1       0.978   5.749  19.935  0.00  0.00    +0.000 HD
ENDBRANCH   9  22
TORSDOF 3
ENDMDL
MODEL 2
REMARK VINA RESULT:      -8.1      1.218      1.358
REMARK  Name = 
REMARK  4 active torsions:
REMARK  status: ('A' for Active; 'I' for Inactive)
REMARK    1  A    between atoms: C_1  and  C_2
REMARK    2  A    between atoms: C_5  and  C_7
REMARK    3  A    between atoms: C_15  and  O_16
REMARK    4  A    between atoms: C_15  and  C_17
REMARK                            x       y       z     vdW  Elec       q    Type
REMARK                         _______ _______ _______ _____ _____    ______ ____
ROOT
ATOM      1  C   UNL     1       3.153   3.220  17.354  0.00  0.00    +0.000 C 
ATOM      2  C   UNL     1       3.287   4.757  17.504  0.00  0.00    +0.000 C 
ATOM      3  C   UNL     1       4.516   5.171  16.692  0.00  0.00    +0.000 C 
ATOM      4  N   UNL     1       5.787   4.826  17.329  0.00  0.00    +0.000 N 
ATOM      5  C   UNL     1       6.961   4.533  16.607  0.00  0.00    +0.000 C 
ATOM      6  O   UNL     1       8.009   4.249  17.193  0.00  0.00    +0.000 OA
ATOM      7  C   UNL     1       5.933   5.123  18.755  0.00  0.00    +0.000 C 
ATOM      8  C   UNL     1       4.701   4.780  19.584  0.00  0.00    +0.000 C 
ATOM      9  C   UNL     1       3.360   5.242  18.976  0.00  0.00    +0.000 C 
ENDROOT
BRANCH   5  10
ATOM     10  C   UNL     1       6.906   4.517  15.151  0.00  0.00    +0.000 A 
ATOM     11  C   UNL     1       7.527   5.318  14.218  0.00  0.00    +0.000 A 
ATOM     12  C   UNL     1       7.170   4.811  12.940  0.00  0.00    +0.000 A 
ATOM     13  C   UNL     1       6.314   3.753  13.166  0.00  0.00    +0.000 A 
ATOM     14 CL   UNL     1       5.605   2.724  11.993  0.00  0.00    +0.000 Cl
ATOM     15  O   UNL     1       6.109   3.609  14.501  0.00  0.00    +0.000 OA
ENDBRANCH   5  10
BRANCH   9  16
ATOM     16  C   UNL     1       3.004   6.775  19.179  0.00  0.00    +0.000 C 
ATOM     17  C   UNL     1       1.977   7.146  20.264  0.00  0.00    +0.000 C 
ATOM     18  C   UNL     1       1.539   8.608  20.238  0.00  0.00    +0.000 C 
ATOM     19  O   UNL     1       1.145   9.008  18.933  0.00  0.00    +0.000 OA
ATOM     20  C   UNL     1       2.230   8.906  18.018  0.00  0.00    +0.000 C 
ATOM     21  C   UNL     1       2.615   7.446  17.838  0.00  0.00    +0.000 C 
ENDBRANCH   9  16
BRANCH   9  22
ATOM     22  O   UNL     1       2.304   4.565  19.700  0.00  0.00    +0.000 OA
ATOM     23  H   UNL     1       2.375   4.778  20.646  0.00  0.00    +0.000 HD
ENDBRANCH   9  22
TORSDOF 3
ENDMDL
MODEL 3
REMARK VINA RESULT:      -7.9      1.017      1.567
REMARK  Name = 
REMARK  4 active torsions:
REMARK  status: ('A' for Active; 'I' for Inactive)
REMARK    1  A    between atoms: C_1  and  C_2
REMARK    2  A    between atoms: C_5  and  C_7
REMARK    3  A    between atoms: C_15  and  O_16
REMARK    4  A    between atoms: C_15  and  C_17
REMARK                            x       y       z     vdW  Elec       q    Type
REMARK                         _______ _______ _______ _____ _____    ______ ____
ROOT
ATOM      1  C   UNL     1       3.487   2.196  17.477  0.00  0.00    +0.000 C 
ATOM      2  C   UNL     1       3.167   3.709  17.573  0.00  0.00    +0.000 C 
ATOM      3  C   UNL     1       4.273   4.440  16.809  0.00  0.00    +0.000 C 
ATOM      4  N   UNL     1       5.549   4.491  17.524  0.00  0.00    +0.000 N 
ATOM      5  C   UNL     1       6.799   4.532  16.874  0.00  0.00    +0.000 C 
ATOM      6  O   UNL     1       7.848   4.574  17.523  0.00  0.00    +0.000 OA
ATOM      7  C   UNL     1       5.518   4.849  18.942  0.00  0.00    +0.000 C 
ATOM      8  C   UNL     1       4.388   4.185  19.720  0.00  0.00    +0.000 C 
ATOM      9  C   UNL     1       3.010   4.228  19.027  0.00  0.00    +0.000 C 
ENDROOT
BRANCH   5  10
ATOM     10  C   UNL     1       6.838   4.467  15.419  0.00  0.00    +0.000 A 
ATOM     11  C   UNL     1       6.158   3.657  14.536  0.00  0.00    +0.000 A 
ATOM     12  C   UNL     1       6.530   4.072  13.229  0.00  0.00    +0.000 A 
ATOM     13  C   UNL     1       7.452   5.086  13.390  0.00  0.00    +0.000 A 
ATOM     14 CL   UNL     1       8.209   6.005  12.158  0.00  0.00    +0.000 Cl
ATOM     15  O   UNL     1       7.681   5.288  14.714  0.00  0.00    +0.000 OA
ENDBRANCH   5  10
BRANCH   9  16
ATOM     16  C   UNL     1       2.219   5.597  19.151  0.00  0.00    +0.000 C 
ATOM     17  C   UNL     1       2.774   6.828  18.412  0.00  0.00    +0.000 C 
ATOM     18  C   UNL     1       2.075   8.139  18.765  0.00  0.00    +0.000 C 
ATOM     19  O   UNL     1       1.991   8.320  20.171  0.00  0.00    +0.000 OA
ATOM     20  C   UNL     1       1.219   7.288  20.774  0.00  0.00    +0.000 C 
ATOM     21  C   UNL     1       1.940   5.957  20.632  0.00  0.00    +0.000 C 
ENDBRANCH   9  16
BRANCH   9  22
ATOM     22  O   UNL     1       2.151   3.292  19.722  0.00  0.00    +0.000 OA
ATOM     23  H   UNL     1       2.530   2.399  19.658  0.00  0.00    +0.000 HD
ENDBRANCH   9  22
TORSDOF 3
ENDMDL
MODEL 4
REMARK VINA RESULT:      -7.6      2.904      7.094
REMARK  Name = 
REMARK  4 active torsions:
REMARK  status: ('A' for Active; 'I' for Inactive)
REMARK    1  A    between atoms: C_1  and  C_2
REMARK    2  A    between atoms: C_5  and  C_7
REMARK    3  A    between atoms: C_15  and  O_16
REMARK    4  A    between atoms: C_15  and  C_17
REMARK                            x       y       z     vdW  Elec       q    Type
REMARK                         _______ _______ _______ _____ _____    ______ ____
ROOT
ATOM      1  C   UNL     1       6.823   6.383  18.180  0.00  0.00    +0.000 C 
ATOM      2  C   UNL     1       6.234   6.256  16.752  0.00  0.00    +0.000 C 
ATOM      3  C   UNL     1       4.748   6.606  16.859  0.00  0.00    +0.000 C 
ATOM      4  N   UNL     1       3.937   5.553  17.472  0.00  0.00    +0.000 N 
ATOM      5  C   UNL     1       2.766   5.811  18.212  0.00  0.00    +0.000 C 
ATOM      6  O   UNL     1       2.116   4.886  18.709  0.00  0.00    +0.000 OA
ATOM      7  C   UNL     1       4.157   4.179  17.020  0.00  0.00    +0.000 C 
ATOM      8  C   UNL     1       5.626   3.816  16.843  0.00  0.00    +0.000 C 
ATOM      9  C   UNL     1       6.469   4.870  16.094  0.00  0.00    +0.000 C 
ENDROOT
BRANCH   5  10
ATOM     10  C   UNL     1       2.362   7.193  18.432  0.00  0.00    +0.000 A 
ATOM     11  C   UNL     1       2.301   8.261  17.564  0.00  0.00    +0.000 A 
ATOM     12  C   UNL     1       1.772   9.357  18.298  0.00  0.00    +0.000 A 
ATOM     13  C   UNL     1       1.579   8.904  19.588  0.00  0.00    +0.000 A 
ATOM     14 CL   UNL     1       0.911   9.775  20.903  0.00  0.00    +0.000 Cl
ATOM     15  O   UNL     1       1.989   7.612  19.684  0.00  0.00    +0.000 OA
ENDBRANCH   5  10
BRANCH   9  16
ATOM     16  C   UNL     1       6.333   4.864  14.514  0.00  0.00    +0.000 C 
ATOM     17  C   UNL     1       5.744   3.612  13.839  0.00  0.00    +0.000 C 
ATOM     18  C   UNL     1       5.854   3.612  12.316  0.00  0.00    +0.000 C 
ATOM     19  O   UNL     1       7.177   3.907  11.892  0.00  0.00    +0.000 OA
ATOM     20  C   UNL     1       7.570   5.208  12.313  0.00  0.00    +0.000 C 
ATOM     21  C   UNL     1       7.669   5.249  13.830  0.00  0.00    +0.000 C 
ENDBRANCH   9  16
BRANCH   9  22
ATOM     22  O   UNL     1       7.862   4.533  16.301  0.00  0.00    +0.000 OA
ATOM     23  H   UNL     1       8.263   5.179  16.908  0.00  0.00    +0.000 HD
ENDBRANCH   9  22
TORSDOF 3
ENDMDL
MODEL 5
REMARK VINA RESULT:      -7.5      2.802      4.544
REMARK  Name = 
REMARK  4 active torsions:
REMARK  status: ('A' for Active; 'I' for Inactive)
REMARK    1  A    between atoms: C_1  and  C_2
REMARK    2  A    between atoms: C_5  and  C_7
REMARK    3  A    between atoms: C_15  and  O_16
REMARK    4  A    between atoms: C_15  and  C_17
REMARK                            x       y       z     vdW  Elec       q    Type
REMARK                         _______ _______ _______ _____ _____    ______ ____
ROOT
ATOM      1  C   UNL     1       2.803   6.902  17.426  0.00  0.00    +0.000 C 
ATOM      2  C   UNL     1       3.161   5.744  18.392  0.00  0.00    +0.000 C 
ATOM      3  C   UNL     1       4.688   5.709  18.486  0.00  0.00    +0.000 C 
ATOM      4  N   UNL     1       5.338   5.148  17.300  0.00  0.00    +0.000 N 
ATOM      5  C   UNL     1       6.624   5.532  16.868  0.00  0.00    +0.000 C 
ATOM      6  O   UNL     1       7.128   5.028  15.861  0.00  0.00    +0.000 OA
ATOM      7  C   UNL     1       4.782   3.915  16.742  0.00  0.00    +0.000 C 
ATOM      8  C   UNL     1       3.260   3.893  16.692  0.00  0.00    +0.000 C 
ATOM      9  C   UNL     1       2.561   4.374  17.982  0.00  0.00    +0.000 C 
ENDROOT
BRANCH   5  10
ATOM     10  C   UNL     1       7.329   6.577  17.599  0.00  0.00    +0.000 A 
ATOM     11  C   UNL     1       8.071   6.519  18.758  0.00  0.00    +0.000 A 
ATOM     12  C   UNL     1       8.587   7.825  18.980  0.00  0.00    +0.000 A 
ATOM     13  C   UNL     1       8.093   8.616  17.963  0.00  0.00    +0.000 A 
ATOM     14 CL   UNL     1       8.424  10.274  17.686  0.00  0.00    +0.000 Cl
ATOM     15  O   UNL     1       7.286   7.875  17.159  0.00  0.00    +0.000 OA
ENDBRANCH   5  10
BRANCH   9  16
ATOM     16  C   UNL     1       2.485   3.314  19.160  0.00  0.00    +0.000 C 
ATOM     17  C   UNL     1       1.405   3.503  20.240  0.00  0.00    +0.000 C 
ATOM     18  C   UNL     1       1.548   2.569  21.439  0.00  0.00    +0.000 C 
ATOM     19  O   UNL     1       2.870   2.589  21.958  0.00  0.00    +0.000 OA
ATOM     20  C   UNL     1       3.806   2.132  20.989  0.00  0.00    +0.000 C 
ATOM     21  C   UNL     1       3.867   3.113  19.830  0.00  0.00    +0.000 C 
ENDBRANCH   9  16
BRANCH   9  22
ATOM     22  O   UNL     1       1.168   4.599  17.657  0.00  0.00    +0.000 OA
ATOM     23  H   UNL     1       0.724   3.743  17.531  0.00  0.00    +0.000 HD
ENDBRANCH   9  22
TORSDOF 3
ENDMDL
MODEL 6
REMARK VINA RESULT:      -7.5      1.535      2.063
REMARK  Name = 
REMARK  4 active torsions:
REMARK  status: ('A' for Active; 'I' for Inactive)
REMARK    1  A    between atoms: C_1  and  C_2
REMARK    2  A    between atoms: C_5  and  C_7
REMARK    3  A    between atoms: C_15  and  O_16
REMARK    4  A    between atoms: C_15  and  C_17
REMARK                            x       y       z     vdW  Elec       q    Type
REMARK                         _______ _______ _______ _____ _____    ______ ____
ROOT
ATOM      1  C   UNL     1       3.468   2.115  17.248  0.00  0.00    +0.000 C 
ATOM      2  C   UNL     1       3.157   3.625  17.407  0.00  0.00    +0.000 C 
ATOM      3  C   UNL     1       4.239   4.380  16.631  0.00  0.00    +0.000 C 
ATOM      4  N   UNL     1       5.538   4.403  17.304  0.00  0.00    +0.000 N 
ATOM      5  C   UNL     1       6.766   4.464  16.614  0.00  0.00    +0.000 C 
ATOM      6  O   UNL     1       7.835   4.481  17.229  0.00  0.00    +0.000 OA
ATOM      7  C   UNL     1       5.556   4.712  18.734  0.00  0.00    +0.000 C 
ATOM      8  C   UNL     1       4.451   4.025  19.527  0.00  0.00    +0.000 C 
ATOM      9  C   UNL     1       3.050   4.094  18.882  0.00  0.00    +0.000 C 
ENDROOT
BRANCH   5  10
ATOM     10  C   UNL     1       6.756   4.448  15.157  0.00  0.00    +0.000 A 
ATOM     11  C   UNL     1       7.355   5.289  14.245  0.00  0.00    +0.000 A 
ATOM     12  C   UNL     1       7.069   4.766  12.955  0.00  0.00    +0.000 A 
ATOM     13  C   UNL     1       6.273   3.656  13.154  0.00  0.00    +0.000 A 
ATOM     14 CL   UNL     1       5.665   2.589  11.958  0.00  0.00    +0.000 Cl
ATOM     15  O   UNL     1       6.037   3.495  14.482  0.00  0.00    +0.000 OA
ENDBRANCH   5  10
BRANCH   9  16
ATOM     16  C   UNL     1       2.268   5.460  19.079  0.00  0.00    +0.000 C 
ATOM     17  C   UNL     1       2.825   6.722  18.396  0.00  0.00    +0.000 C 
ATOM     18  C   UNL     1       2.136   8.018  18.818  0.00  0.00    +0.000 C 
ATOM     19  O   UNL     1       2.065   8.131  20.233  0.00  0.00    +0.000 OA
ATOM     20  C   UNL     1       1.292   7.075  20.791  0.00  0.00    +0.000 C 
ATOM     21  C   UNL     1       2.004   5.749  20.578  0.00  0.00    +0.000 C 
ENDBRANCH   9  16
BRANCH   9  22
ATOM     22  O   UNL     1       2.211   3.137  19.573  0.00  0.00    +0.000 OA
ATOM     23  H   UNL     1       2.056   2.369  18.996  0.00  0.00    +0.000 HD
ENDBRANCH   9  22
TORSDOF 3
ENDMDL
MODEL 7
REMARK VINA RESULT:      -7.2      2.935      4.616
REMARK  Name = 
REMARK  4 active torsions:
REMARK  status: ('A' for Active; 'I' for Inactive)
REMARK    1  A    between atoms: C_1  and  C_2
REMARK    2  A    between atoms: C_5  and  C_7
REMARK    3  A    between atoms: C_15  and  O_16
REMARK    4  A    between atoms: C_15  and  C_17
REMARK                            x       y       z     vdW  Elec       q    Type
REMARK                         _______ _______ _______ _____ _____    ______ ____
ROOT
ATOM      1  C   UNL     1       3.034   7.381  17.303  0.00  0.00    +0.000 C 
ATOM      2  C   UNL     1       3.406   6.285  18.335  0.00  0.00    +0.000 C 
ATOM      3  C   UNL     1       4.929   6.312  18.472  0.00  0.00    +0.000 C 
ATOM      4  N   UNL     1       5.634   5.720  17.334  0.00  0.00    +0.000 N 
ATOM      5  C   UNL     1       6.917   6.131  16.920  0.00  0.00    +0.000 C 
ATOM      6  O   UNL     1       7.469   5.598  15.953  0.00  0.00    +0.000 OA
ATOM      7  C   UNL     1       5.140   4.441  16.822  0.00  0.00    +0.000 C 
ATOM      8  C   UNL     1       3.621   4.359  16.732  0.00  0.00    +0.000 C 
ATOM      9  C   UNL     1       2.868   4.874  17.977  0.00  0.00    +0.000 C 
ENDROOT
BRANCH   5  10
ATOM     10  C   UNL     1       7.562   7.235  17.617  0.00  0.00    +0.000 A 
ATOM     11  C   UNL     1       8.348   7.249  18.748  0.00  0.00    +0.000 A 
ATOM     12  C   UNL     1       8.765   8.593  18.942  0.00  0.00    +0.000 A 
ATOM     13  C   UNL     1       8.171   9.333  17.939  0.00  0.00    +0.000 A 
ATOM     14 CL   UNL     1       8.358  11.009  17.639  0.00  0.00    +0.000 Cl
ATOM     15  O   UNL     1       7.398   8.522  17.170  0.00  0.00    +0.000 OA
ENDBRANCH   5  10
BRANCH   9  16
ATOM     16  C   UNL     1       2.796   3.871  19.203  0.00  0.00    +0.000 C 
ATOM     17  C   UNL     1       1.981   2.575  19.036  0.00  0.00    +0.000 C 
ATOM     18  C   UNL     1       1.790   1.785  20.328  0.00  0.00    +0.000 C 
ATOM     19  O   UNL     1       1.315   2.616  21.379  0.00  0.00    +0.000 OA
ATOM     20  C   UNL     1       2.251   3.643  21.682  0.00  0.00    +0.000 C 
ATOM     21  C   UNL     1       2.367   4.596  20.503  0.00  0.00    +0.000 C 
ENDBRANCH   9  16
BRANCH   9  22
ATOM     22  O   UNL     1       1.478   5.031  17.603  0.00  0.00    +0.000 OA
ATOM     23  H   UNL     1       1.289   4.478  16.826  0.00  0.00    +0.000 HD
ENDBRANCH   9  22
TORSDOF 3
ENDMDL
MODEL 8
REMARK VINA RESULT:      -6.8      3.249      4.372
REMARK  Name = 
REMARK  4 active torsions:
REMARK  status: ('A' for Active; 'I' for Inactive)
REMARK    1  A    between atoms: C_1  and  C_2
REMARK    2  A    between atoms: C_5  and  C_7
REMARK    3  A    between atoms: C_15  and  O_16
REMARK    4  A    between atoms: C_15  and  C_17
REMARK                            x       y       z     vdW  Elec       q    Type
REMARK                         _______ _______ _______ _____ _____    ______ ____
ROOT
ATOM      1  C   UNL     1       5.245   5.293  15.514  0.00  0.00    +0.000 C 
ATOM      2  C   UNL     1       4.426   5.610  16.791  0.00  0.00    +0.000 C 
ATOM      3  C   UNL     1       5.354   6.392  17.724  0.00  0.00    +0.000 C 
ATOM      4  N   UNL     1       6.370   5.564  18.375  0.00  0.00    +0.000 N 
ATOM      5  C   UNL     1       7.638   6.049  18.753  0.00  0.00    +0.000 C 
ATOM      6  O   UNL     1       8.460   5.309  19.300  0.00  0.00    +0.000 OA
ATOM      7  C   UNL     1       5.938   4.291  18.953  0.00  0.00    +0.000 C 
ATOM      8  C   UNL     1       4.963   3.515  18.077  0.00  0.00    +0.000 C 
ATOM      9  C   UNL     1       3.817   4.358  17.476  0.00  0.00    +0.000 C 
ENDROOT
BRANCH   5  10
ATOM     10  C   UNL     1       7.987   7.428  18.438  0.00  0.00    +0.000 A 
ATOM     11  C   UNL     1       7.650   8.217  17.359  0.00  0.00    +0.000 A 
ATOM     12  C   UNL     1       8.209   9.501  17.600  0.00  0.00    +0.000 A 
ATOM     13  C   UNL     1       8.893   9.410  18.795  0.00  0.00    +0.000 A 
ATOM     14 CL   UNL     1       9.721  10.666  19.614  0.00  0.00    +0.000 Cl
ATOM     15  O   UNL     1       8.806   8.141  19.275  0.00  0.00    +0.000 OA
ENDBRANCH   5  10
BRANCH   9  16
ATOM     16  C   UNL     1       2.607   4.670  18.453  0.00  0.00    +0.000 C 
ATOM     17  C   UNL     1       2.866   5.589  19.661  0.00  0.00    +0.000 C 
ATOM     18  C   UNL     1       1.710   5.654  20.657  0.00  0.00    +0.000 C 
ATOM     19  O   UNL     1       1.268   4.355  21.025  0.00  0.00    +0.000 OA
ATOM     20  C   UNL     1       0.774   3.644  19.895  0.00  0.00    +0.000 C 
ATOM     21  C   UNL     1       1.911   3.368  18.924  0.00  0.00    +0.000 C 
ENDBRANCH   9  16
BRANCH   9  22
ATOM     22  O   UNL     1       3.199   3.563  16.436  0.00  0.00    +0.000 OA
ATOM     23  H   UNL     1       3.610   3.776  15.581  0.00  0.00    +0.000 HD
ENDBRANCH   9  22
TORSDOF 3
ENDMDL
MODEL 9
REMARK VINA RESULT:      -6.7      2.462      6.848
REMARK  Name = 
REMARK  4 active torsions:
REMARK  status: ('A' for Active; 'I' for Inactive)
REMARK    1  A    between atoms: C_1  and  C_2
REMARK    2  A    between atoms: C_5  and  C_7
REMARK    3  A    between atoms: C_15  and  O_16
REMARK    4  A    between atoms: C_15  and  C_17
REMARK                            x       y       z     vdW  Elec       q    Type
REMARK                         _______ _______ _______ _____ _____    ______ ____
ROOT
ATOM      1  C   UNL     1       6.704   5.563  18.584  0.00  0.00    +0.000 C 
ATOM      2  C   UNL     1       6.179   5.706  17.133  0.00  0.00    +0.000 C 
ATOM      3  C   UNL     1       4.709   6.116  17.237  0.00  0.00    +0.000 C 
ATOM      4  N   UNL     1       3.819   5.023  17.633  0.00  0.00    +0.000 N 
ATOM      5  C   UNL     1       2.627   5.221  18.359  0.00  0.00    +0.000 C 
ATOM      6  O   UNL     1       1.911   4.265  18.668  0.00  0.00    +0.000 OA
ATOM      7  C   UNL     1       3.994   3.732  16.968  0.00  0.00    +0.000 C 
ATOM      8  C   UNL     1       5.451   3.322  16.792  0.00  0.00    +0.000 C 
ATOM      9  C   UNL     1       6.380   4.436  16.263  0.00  0.00    +0.000 C 
ENDROOT
BRANCH   5  10
ATOM     10  C   UNL     1       2.281   6.569  18.789  0.00  0.00    +0.000 A 
ATOM     11  C   UNL     1       2.058   7.082  20.049  0.00  0.00    +0.000 A 
ATOM     12  C   UNL     1       1.822   8.474  19.889  0.00  0.00    +0.000 A 
ATOM     13  C   UNL     1       1.872   8.724  18.532  0.00  0.00    +0.000 A 
ATOM     14 CL   UNL     1       1.712  10.240  17.751  0.00  0.00    +0.000 Cl
ATOM     15  O   UNL     1       2.093   7.563  17.862  0.00  0.00    +0.000 OA
ENDBRANCH   5  10
BRANCH   9  16
ATOM     16  C   UNL     1       6.320   4.697  14.700  0.00  0.00    +0.000 C 
ATOM     17  C   UNL     1       5.712   3.604  13.802  0.00  0.00    +0.000 C 
ATOM     18  C   UNL     1       5.896   3.848  12.306  0.00  0.00    +0.000 C 
ATOM     19  O   UNL     1       7.250   4.143  11.992  0.00  0.00    +0.000 OA
ATOM     20  C   UNL     1       7.676   5.336  12.640  0.00  0.00    +0.000 C 
ATOM     21  C   UNL     1       7.703   5.121  14.145  0.00  0.00    +0.000 C 
ENDBRANCH   9  16
BRANCH   9  22
ATOM     22  O   UNL     1       7.743   3.992  16.467  0.00  0.00    +0.000 OA
ATOM     23  H   UNL     1       7.818   3.577  17.344  0.00  0.00    +0.000 HD
ENDBRANCH   9  22
TORSDOF 3
ENDMDL
