MODEL 1
REMARK VINA RESULT:      -7.3      0.000      0.000
REMARK  Name = 
REMARK  6 active torsions:
REMARK  status: ('A' for Active; 'I' for Inactive)
REMARK    1  A    between atoms: C_1  and  C_2
REMARK    2  A    between atoms: C_5  and  S_6
REMARK    3  A    between atoms: S_6  and  N_9
REMARK    4  A    between atoms: C_13  and  C_14
REMARK    5  A    between atoms: N_16  and  C_17
REMARK    6  A    between atoms: C_20  and  O_21
REMARK                            x       y       z     vdW  Elec       q    Type
REMARK                         _______ _______ _______ _____ _____    ______ ____
ROOT
ATOM      1  N   UNL     1       2.710   2.370  19.736  0.00  0.00    +0.000 NA
ATOM      2  C   UNL     1       3.187   2.780  21.056  0.00  0.00    +0.000 C 
ATOM      3  C   UNL     1       1.925   2.644  21.887  0.00  0.00    +0.000 C 
ATOM      4  C   UNL     1       0.827   3.154  20.957  0.00  0.00    +0.000 C 
ATOM      5  C   UNL     1       1.365   2.951  19.519  0.00  0.00    +0.000 C 
ENDROOT
BRANCH   5   6
ATOM      6  C   UNL     1       1.429   4.293  18.785  0.00  0.00    +0.000 C 
ATOM      7  O   UNL     1       1.132   4.361  17.592  0.00  0.00    +0.000 OA
ATOM      8  N   UNL     1       1.818   5.361  19.580  0.00  0.00    +0.000 N 
ATOM      9  H   UNL     1       2.052   5.167  20.550  0.00  0.00    +0.000 HD
BRANCH   8  10
ATOM     10  C   UNL     1       1.975   6.699  19.151  0.00  0.00    +0.000 A 
ATOM     11  C   UNL     1       1.410   7.791  19.821  0.00  0.00    +0.000 A 
ATOM     12  C   UNL     1       1.545   9.090  19.324  0.00  0.00    +0.000 A 
ATOM     13  C   UNL     1       2.251   9.300  18.149  0.00  0.00    +0.000 A 
ATOM     14  C   UNL     1       2.856   8.237  17.489  0.00  0.00    +0.000 A 
ATOM     15  C   UNL     1       2.729   6.938  17.996  0.00  0.00    +0.000 A 
BRANCH  13  16
ATOM     16  O   UNL     1       2.371  10.546  17.612  0.00  0.00    +0.000 OA
ATOM     17  H   UNL     1       2.090  11.196  18.279  0.00  0.00    +0.000 HD
ENDBRANCH  13  16
ENDBRANCH   8  10
ENDBRANCH   5   6
BRANCH   1  18
ATOM     18  S   UNL     1       3.740   2.022  18.475  0.00  0.00    +0.000 S 
ATOM     19  O   UNL     1       2.893   1.764  17.327  0.00  0.00    +0.000 OA
ATOM     20  O   UNL     1       4.694   1.036  18.939  0.00  0.00    +0.000 OA
BRANCH  18  25
ATOM     21  C   UNL     1       6.893   7.073  17.290  0.00  0.00    +0.000 C 
ATOM     22  C   UNL     1       6.123   5.824  17.596  0.00  0.00    +0.000 A 
ATOM     23  C   UNL     1       5.994   5.361  18.911  0.00  0.00    +0.000 A 
ATOM     24  C   UNL     1       5.285   4.190  19.182  0.00  0.00    +0.000 A 
ATOM     25  C   UNL     1       4.666   3.499  18.139  0.00  0.00    +0.000 A 
ATOM     26  C   UNL     1       4.820   3.930  16.819  0.00  0.00    +0.000 A 
ATOM     27  C   UNL     1       5.543   5.091  16.551  0.00  0.00    +0.000 A 
ENDBRANCH  18  25
ENDBRANCH   1  18
TORSDOF 5
ENDMDL
MODEL 2
REMARK VINA RESULT:      -7.1      2.472      4.899
REMARK  Name = 
REMARK  6 active torsions:
REMARK  status: ('A' for Active; 'I' for Inactive)
REMARK    1  A    between atoms: C_1  and  C_2
REMARK    2  A    between atoms: C_5  and  S_6
REMARK    3  A    between atoms: S_6  and  N_9
REMARK    4  A    between atoms: C_13  and  C_14
REMARK    5  A    between atoms: N_16  and  C_17
REMARK    6  A    between atoms: C_20  and  O_21
REMARK                            x       y       z     vdW  Elec       q    Type
REMARK                         _______ _______ _______ _____ _____    ______ ____
ROOT
ATOM      1  N   UNL     1       2.224   3.376  19.642  0.00  0.00    +0.000 NA
ATOM      2  C   UNL     1       0.795   3.553  19.388  0.00  0.00    +0.000 C 
ATOM      3  C   UNL     1       0.376   2.139  19.031  0.00  0.00    +0.000 C 
ATOM      4  C   UNL     1       1.541   1.621  18.192  0.00  0.00    +0.000 C 
ATOM      5  C   UNL     1       2.774   2.452  18.623  0.00  0.00    +0.000 C 
ENDROOT
BRANCH   5   6
ATOM      6  C   UNL     1       3.354   3.202  17.421  0.00  0.00    +0.000 C 
ATOM      7  O   UNL     1       2.603   3.706  16.585  0.00  0.00    +0.000 OA
ATOM      8  N   UNL     1       4.740   3.260  17.398  0.00  0.00    +0.000 N 
ATOM      9  H   UNL     1       5.244   2.788  18.144  0.00  0.00    +0.000 HD
BRANCH   8  10
ATOM     10  C   UNL     1       5.527   3.874  16.397  0.00  0.00    +0.000 A 
ATOM     11  C   UNL     1       5.531   3.457  15.061  0.00  0.00    +0.000 A 
ATOM     12  C   UNL     1       6.370   4.060  14.120  0.00  0.00    +0.000 A 
ATOM     13  C   UNL     1       7.212   5.087  14.518  0.00  0.00    +0.000 A 
ATOM     14  C   UNL     1       7.196   5.547  15.829  0.00  0.00    +0.000 A 
ATOM     15  C   UNL     1       6.344   4.949  16.767  0.00  0.00    +0.000 A 
BRANCH  13  16
ATOM     16  O   UNL     1       8.073   5.672  13.639  0.00  0.00    +0.000 OA
ATOM     17  H   UNL     1       8.174   5.086  12.871  0.00  0.00    +0.000 HD
ENDBRANCH  13  16
ENDBRANCH   8  10
ENDBRANCH   5   6
BRANCH   1  18
ATOM     18  S   UNL     1       3.157   4.541  20.381  0.00  0.00    +0.000 S 
ATOM     19  O   UNL     1       4.527   4.251  20.005  0.00  0.00    +0.000 OA
ATOM     20  O   UNL     1       2.760   4.614  21.772  0.00  0.00    +0.000 OA
BRANCH  18  25
ATOM     21  C   UNL     1       1.667   9.853  17.848  0.00  0.00    +0.000 C 
ATOM     22  C   UNL     1       2.033   8.549  18.487  0.00  0.00    +0.000 A 
ATOM     23  C   UNL     1       1.549   8.208  19.756  0.00  0.00    +0.000 A 
ATOM     24  C   UNL     1       1.906   6.994  20.347  0.00  0.00    +0.000 A 
ATOM     25  C   UNL     1       2.717   6.097  19.650  0.00  0.00    +0.000 A 
ATOM     26  C   UNL     1       3.236   6.443  18.400  0.00  0.00    +0.000 A 
ATOM     27  C   UNL     1       2.891   7.663  17.821  0.00  0.00    +0.000 A 
ENDBRANCH  18  25
ENDBRANCH   1  18
TORSDOF 5
ENDMDL
MODEL 3
REMARK VINA RESULT:      -7.1      2.488      3.276
REMARK  Name = 
REMARK  6 active torsions:
REMARK  status: ('A' for Active; 'I' for Inactive)
REMARK    1  A    between atoms: C_1  and  C_2
REMARK    2  A    between atoms: C_5  and  S_6
REMARK    3  A    between atoms: S_6  and  N_9
REMARK    4  A    between atoms: C_13  and  C_14
REMARK    5  A    between atoms: N_16  and  C_17
REMARK    6  A    between atoms: C_20  and  O_21
REMARK                            x       y       z     vdW  Elec       q    Type
REMARK                         _______ _______ _______ _____ _____    ______ ____
ROOT
ATOM      1  N   UNL     1       3.940   3.926  18.260  0.00  0.00    +0.000 NA
ATOM      2  C   UNL     1       3.973   2.715  19.080  0.00  0.00    +0.000 C 
ATOM      3  C   UNL     1       2.690   2.028  18.651  0.00  0.00    +0.000 C 
ATOM      4  C   UNL     1       1.697   3.179  18.507  0.00  0.00    +0.000 C 
ATOM      5  C   UNL     1       2.552   4.441  18.233  0.00  0.00    +0.000 C 
ENDROOT
BRANCH   5   6
ATOM      6  C   UNL     1       2.306   5.492  19.319  0.00  0.00    +0.000 C 
ATOM      7  O   UNL     1       2.436   5.196  20.507  0.00  0.00    +0.000 OA
ATOM      8  N   UNL     1       1.962   6.745  18.834  0.00  0.00    +0.000 N 
ATOM      9  H   UNL     1       1.873   6.853  17.827  0.00  0.00    +0.000 HD
BRANCH   8  10
ATOM     10  C   UNL     1       1.667   7.884  19.617  0.00  0.00    +0.000 A 
ATOM     11  C   UNL     1       1.547   7.847  21.011  0.00  0.00    +0.000 A 
ATOM     12  C   UNL     1       1.197   8.990  21.736  0.00  0.00    +0.000 A 
ATOM     13  C   UNL     1       0.965  10.179  21.061  0.00  0.00    +0.000 A 
ATOM     14  C   UNL     1       1.118  10.251  19.682  0.00  0.00    +0.000 A 
ATOM     15  C   UNL     1       1.481   9.107  18.960  0.00  0.00    +0.000 A 
BRANCH  13  16
ATOM     16  O   UNL     1       0.583  11.304  21.728  0.00  0.00    +0.000 OA
ATOM     17  H   UNL     1      -0.380  11.400  21.643  0.00  0.00    +0.000 HD
ENDBRANCH  13  16
ENDBRANCH   8  10
ENDBRANCH   5   6
BRANCH   1  18
ATOM     18  S   UNL     1       5.261   4.924  18.077  0.00  0.00    +0.000 S 
ATOM     19  O   UNL     1       6.290   4.385  18.944  0.00  0.00    +0.000 OA
ATOM     20  O   UNL     1       4.807   6.292  18.212  0.00  0.00    +0.000 OA
BRANCH  18  25
ATOM     21  C   UNL     1       7.137   4.287  12.339  0.00  0.00    +0.000 C 
ATOM     22  C   UNL     1       6.689   4.444  13.760  0.00  0.00    +0.000 A 
ATOM     23  C   UNL     1       7.490   5.106  14.698  0.00  0.00    +0.000 A 
ATOM     24  C   UNL     1       7.068   5.237  16.022  0.00  0.00    +0.000 A 
ATOM     25  C   UNL     1       5.819   4.741  16.402  0.00  0.00    +0.000 A 
ATOM     26  C   UNL     1       5.029   4.046  15.484  0.00  0.00    +0.000 A 
ATOM     27  C   UNL     1       5.462   3.903  14.167  0.00  0.00    +0.000 A 
ENDBRANCH  18  25
ENDBRANCH   1  18
TORSDOF 5
ENDMDL
MODEL 4
REMARK VINA RESULT:      -7.1      2.425      3.229
REMARK  Name = 
REMARK  6 active torsions:
REMARK  status: ('A' for Active; 'I' for Inactive)
REMARK    1  A    between atoms: C_1  and  C_2
REMARK    2  A    between atoms: C_5  and  S_6
REMARK    3  A    between atoms: S_6  and  N_9
REMARK    4  A    between atoms: C_13  and  C_14
REMARK    5  A    between atoms: N_16  and  C_17
REMARK    6  A    between atoms: C_20  and  O_21
REMARK                            x       y       z     vdW  Elec       q    Type
REMARK                         _______ _______ _______ _____ _____    ______ ____
ROOT
ATOM      1  N   UNL     1       4.073   3.894  18.182  0.00  0.00    +0.000 NA
ATOM      2  C   UNL     1       4.021   2.825  19.179  0.00  0.00    +0.000 C 
ATOM      3  C   UNL     1       2.770   2.079  18.754  0.00  0.00    +0.000 C 
ATOM      4  C   UNL     1       1.808   3.193  18.351  0.00  0.00    +0.000 C 
ATOM      5  C   UNL     1       2.698   4.398  17.958  0.00  0.00    +0.000 C 
ENDROOT
BRANCH   5   6
ATOM      6  C   UNL     1       2.376   5.604  18.844  0.00  0.00    +0.000 C 
ATOM      7  O   UNL     1       2.322   5.477  20.068  0.00  0.00    +0.000 OA
ATOM      8  N   UNL     1       2.186   6.789  18.148  0.00  0.00    +0.000 N 
ATOM      9  H   UNL     1       2.244   6.755  17.134  0.00  0.00    +0.000 HD
BRANCH   8  10
ATOM     10  C   UNL     1       1.863   8.042  18.718  0.00  0.00    +0.000 A 
ATOM     11  C   UNL     1       1.498   8.204  20.059  0.00  0.00    +0.000 A 
ATOM     12  C   UNL     1       1.131   9.455  20.561  0.00  0.00    +0.000 A 
ATOM     13  C   UNL     1       1.129  10.554  19.715  0.00  0.00    +0.000 A 
ATOM     14  C   UNL     1       1.529  10.427  18.390  0.00  0.00    +0.000 A 
ATOM     15  C   UNL     1       1.908   9.174  17.893  0.00  0.00    +0.000 A 
BRANCH  13  16
ATOM     16  O   UNL     1       0.740  11.783  20.157  0.00  0.00    +0.000 OA
ATOM     17  H   UNL     1       0.432  12.300  19.395  0.00  0.00    +0.000 HD
ENDBRANCH  13  16
ENDBRANCH   8  10
ENDBRANCH   5   6
BRANCH   1  18
ATOM     18  S   UNL     1       5.417   4.851  17.959  0.00  0.00    +0.000 S 
ATOM     19  O   UNL     1       6.460   4.272  18.783  0.00  0.00    +0.000 OA
ATOM     20  O   UNL     1       5.013   6.232  18.124  0.00  0.00    +0.000 OA
BRANCH  18  25
ATOM     21  C   UNL     1       7.128   4.239  12.167  0.00  0.00    +0.000 C 
ATOM     22  C   UNL     1       6.691   4.390  13.592  0.00  0.00    +0.000 A 
ATOM     23  C   UNL     1       5.456   3.890  14.023  0.00  0.00    +0.000 A 
ATOM     24  C   UNL     1       5.054   4.047  15.350  0.00  0.00    +0.000 A 
ATOM     25  C   UNL     1       5.907   4.669  16.263  0.00  0.00    +0.000 A 
ATOM     26  C   UNL     1       7.125   5.205  15.836  0.00  0.00    +0.000 A 
ATOM     27  C   UNL     1       7.515   5.061  14.506  0.00  0.00    +0.000 A 
ENDBRANCH  18  25
ENDBRANCH   1  18
TORSDOF 5
ENDMDL
MODEL 5
REMARK VINA RESULT:      -7.0      3.285      6.689
REMARK  Name = 
REMARK  6 active torsions:
REMARK  status: ('A' for Active; 'I' for Inactive)
REMARK    1  A    between atoms: C_1  and  C_2
REMARK    2  A    between atoms: C_5  and  S_6
REMARK    3  A    between atoms: S_6  and  N_9
REMARK    4  A    between atoms: C_13  and  C_14
REMARK    5  A    between atoms: N_16  and  C_17
REMARK    6  A    between atoms: C_20  and  O_21
REMARK                            x       y       z     vdW  Elec       q    Type
REMARK                         _______ _______ _______ _____ _____    ______ ____
ROOT
ATOM      1  N   UNL     1       5.520   6.032  18.473  0.00  0.00    +0.000 NA
ATOM      2  C   UNL     1       6.657   5.197  18.860  0.00  0.00    +0.000 C 
ATOM      3  C   UNL     1       7.768   6.226  18.951  0.00  0.00    +0.000 C 
ATOM      4  C   UNL     1       7.494   7.154  17.770  0.00  0.00    +0.000 C 
ATOM      5  C   UNL     1       5.980   7.021  17.471  0.00  0.00    +0.000 C 
ENDROOT
BRANCH   5   6
ATOM      6  C   UNL     1       5.766   6.530  16.037  0.00  0.00    +0.000 C 
ATOM      7  O   UNL     1       4.990   7.125  15.288  0.00  0.00    +0.000 OA
ATOM      8  N   UNL     1       6.521   5.418  15.696  0.00  0.00    +0.000 N 
ATOM      9  H   UNL     1       7.115   5.012  16.414  0.00  0.00    +0.000 HD
BRANCH   8  10
ATOM     10  C   UNL     1       6.502   4.755  14.447  0.00  0.00    +0.000 A 
ATOM     11  C   UNL     1       5.503   3.848  14.074  0.00  0.00    +0.000 A 
ATOM     12  C   UNL     1       5.560   3.176  12.851  0.00  0.00    +0.000 A 
ATOM     13  C   UNL     1       6.624   3.411  11.993  0.00  0.00    +0.000 A 
ATOM     14  C   UNL     1       7.605   4.338  12.322  0.00  0.00    +0.000 A 
ATOM     15  C   UNL     1       7.539   5.020  13.543  0.00  0.00    +0.000 A 
BRANCH  13  16
ATOM     16  O   UNL     1       6.735   2.745  10.810  0.00  0.00    +0.000 OA
ATOM     17  H   UNL     1       7.417   2.059  10.906  0.00  0.00    +0.000 HD
ENDBRANCH  13  16
ENDBRANCH   8  10
ENDBRANCH   5   6
BRANCH   1  18
ATOM     18  S   UNL     1       3.946   5.490  18.527  0.00  0.00    +0.000 S 
ATOM     19  O   UNL     1       3.848   4.670  19.719  0.00  0.00    +0.000 OA
ATOM     20  O   UNL     1       3.613   4.958  17.222  0.00  0.00    +0.000 OA
BRANCH  18  25
ATOM     21  C   UNL     1       0.422  10.357  19.391  0.00  0.00    +0.000 C 
ATOM     22  C   UNL     1       1.288   9.155  19.162  0.00  0.00    +0.000 A 
ATOM     23  C   UNL     1       1.873   8.917  17.913  0.00  0.00    +0.000 A 
ATOM     24  C   UNL     1       2.669   7.788  17.708  0.00  0.00    +0.000 A 
ATOM     25  C   UNL     1       2.916   6.915  18.769  0.00  0.00    +0.000 A 
ATOM     26  C   UNL     1       2.306   7.122  20.008  0.00  0.00    +0.000 A 
ATOM     27  C   UNL     1       1.499   8.241  20.204  0.00  0.00    +0.000 A 
ENDBRANCH  18  25
ENDBRANCH   1  18
TORSDOF 5
ENDMDL
MODEL 6
REMARK VINA RESULT:      -6.9      0.121      1.369
REMARK  Name = 
REMARK  6 active torsions:
REMARK  status: ('A' for Active; 'I' for Inactive)
REMARK    1  A    between atoms: C_1  and  C_2
REMARK    2  A    between atoms: C_5  and  S_6
REMARK    3  A    between atoms: S_6  and  N_9
REMARK    4  A    between atoms: C_13  and  C_14
REMARK    5  A    between atoms: N_16  and  C_17
REMARK    6  A    between atoms: C_20  and  O_21
REMARK                            x       y       z     vdW  Elec       q    Type
REMARK                         _______ _______ _______ _____ _____    ______ ____
ROOT
ATOM      1  N   UNL     1       2.716   2.414  19.697  0.00  0.00    +0.000 NA
ATOM      2  C   UNL     1       3.194   2.867  21.003  0.00  0.00    +0.000 C 
ATOM      3  C   UNL     1       1.937   2.742  21.843  0.00  0.00    +0.000 C 
ATOM      4  C   UNL     1       0.830   3.213  20.903  0.00  0.00    +0.000 C 
ATOM      5  C   UNL     1       1.364   2.974  19.469  0.00  0.00    +0.000 C 
ENDROOT
BRANCH   5   6
ATOM      6  C   UNL     1       1.411   4.295  18.696  0.00  0.00    +0.000 C 
ATOM      7  O   UNL     1       1.085   4.330  17.509  0.00  0.00    +0.000 OA
ATOM      8  N   UNL     1       1.820   5.384  19.452  0.00  0.00    +0.000 N 
ATOM      9  H   UNL     1       2.077   5.217  20.420  0.00  0.00    +0.000 HD
BRANCH   8  10
ATOM     10  C   UNL     1       1.967   6.710  18.982  0.00  0.00    +0.000 A 
ATOM     11  C   UNL     1       2.776   7.053  17.892  0.00  0.00    +0.000 A 
ATOM     12  C   UNL     1       2.933   8.386  17.502  0.00  0.00    +0.000 A 
ATOM     13  C   UNL     1       2.276   9.383  18.207  0.00  0.00    +0.000 A 
ATOM     14  C   UNL     1       1.434   9.064  19.265  0.00  0.00    +0.000 A 
ATOM     15  C   UNL     1       1.269   7.727  19.646  0.00  0.00    +0.000 A 
BRANCH  13  16
ATOM     16  O   UNL     1       2.435  10.697  17.882  0.00  0.00    +0.000 OA
ATOM     17  H   UNL     1       3.371  10.931  18.001  0.00  0.00    +0.000 HD
ENDBRANCH  13  16
ENDBRANCH   8  10
ENDBRANCH   5   6
BRANCH   1  18
ATOM     18  S   UNL     1       3.746   2.040  18.443  0.00  0.00    +0.000 S 
ATOM     19  O   UNL     1       2.898   1.783  17.295  0.00  0.00    +0.000 OA
ATOM     20  O   UNL     1       4.685   1.046  18.918  0.00  0.00    +0.000 OA
BRANCH  18  25
ATOM     21  C   UNL     1       6.995   7.038  17.293  0.00  0.00    +0.000 C 
ATOM     22  C   UNL     1       6.184   5.807  17.564  0.00  0.00    +0.000 A 
ATOM     23  C   UNL     1       5.558   5.114  16.521  0.00  0.00    +0.000 A 
ATOM     24  C   UNL     1       4.795   3.974  16.787  0.00  0.00    +0.000 A 
ATOM     25  C   UNL     1       4.692   3.501  18.096  0.00  0.00    +0.000 A 
ATOM     26  C   UNL     1       5.281   4.207  19.148  0.00  0.00    +0.000 A 
ATOM     27  C   UNL     1       6.027   5.353  18.881  0.00  0.00    +0.000 A 
ENDBRANCH  18  25
ENDBRANCH   1  18
TORSDOF 5
ENDMDL
MODEL 7
REMARK VINA RESULT:      -6.9      3.949      7.771
REMARK  Name = 
REMARK  6 active torsions:
REMARK  status: ('A' for Active; 'I' for Inactive)
REMARK    1  A    between atoms: C_1  and  C_2
REMARK    2  A    between atoms: C_5  and  S_6
REMARK    3  A    between atoms: S_6  and  N_9
REMARK    4  A    between atoms: C_13  and  C_14
REMARK    5  A    between atoms: N_16  and  C_17
REMARK    6  A    between atoms: C_20  and  O_21
REMARK                            x       y       z     vdW  Elec       q    Type
REMARK                         _______ _______ _______ _____ _____    ______ ____
ROOT
ATOM      1  N   UNL     1       0.465  10.553  21.144  0.00  0.00    +0.000 NA
ATOM      2  C   UNL     1      -0.881  10.793  21.661  0.00  0.00    +0.000 C 
ATOM      3  C   UNL     1      -0.664  10.625  23.153  0.00  0.00    +0.000 C 
ATOM      4  C   UNL     1       0.307   9.452  23.245  0.00  0.00    +0.000 C 
ATOM      5  C   UNL     1       1.065   9.426  21.895  0.00  0.00    +0.000 C 
ENDROOT
BRANCH   5   6
ATOM      6  C   UNL     1       0.845   8.084  21.191  0.00  0.00    +0.000 C 
ATOM      7  O   UNL     1      -0.290   7.621  21.081  0.00  0.00    +0.000 OA
ATOM      8  N   UNL     1       2.004   7.499  20.702  0.00  0.00    +0.000 N 
ATOM      9  H   UNL     1       2.884   7.979  20.873  0.00  0.00    +0.000 HD
BRANCH   8  10
ATOM     10  C   UNL     1       2.086   6.258  20.030  0.00  0.00    +0.000 A 
ATOM     11  C   UNL     1       1.894   5.026  20.665  0.00  0.00    +0.000 A 
ATOM     12  C   UNL     1       2.041   3.824  19.968  0.00  0.00    +0.000 A 
ATOM     13  C   UNL     1       2.385   3.853  18.625  0.00  0.00    +0.000 A 
ATOM     14  C   UNL     1       2.539   5.064  17.962  0.00  0.00    +0.000 A 
ATOM     15  C   UNL     1       2.378   6.268  18.660  0.00  0.00    +0.000 A 
BRANCH  13  16
ATOM     16  O   UNL     1       2.577   2.703  17.922  0.00  0.00    +0.000 OA
ATOM     17  H   UNL     1       1.981   2.022  18.278  0.00  0.00    +0.000 HD
ENDBRANCH  13  16
ENDBRANCH   8  10
ENDBRANCH   5   6
BRANCH   1  18
ATOM     18  S   UNL     1       0.905  10.911  19.578  0.00  0.00    +0.000 S 
ATOM     19  O   UNL     1       1.718   9.798  19.129  0.00  0.00    +0.000 OA
ATOM     20  O   UNL     1       1.413  12.267  19.557  0.00  0.00    +0.000 OA
BRANCH  18  25
ATOM     21  C   UNL     1      -4.178  10.890  16.259  0.00  0.00    +0.000 C 
ATOM     22  C   UNL     1      -2.923  10.911  17.078  0.00  0.00    +0.000 A 
ATOM     23  C   UNL     1      -2.630  11.991  17.919  0.00  0.00    +0.000 A 
ATOM     24  C   UNL     1      -1.453  12.005  18.669  0.00  0.00    +0.000 A 
ATOM     25  C   UNL     1      -0.583  10.915  18.610  0.00  0.00    +0.000 A 
ATOM     26  C   UNL     1      -0.846   9.850  17.746  0.00  0.00    +0.000 A 
ATOM     27  C   UNL     1      -2.014   9.847  16.987  0.00  0.00    +0.000 A 
ENDBRANCH  18  25
ENDBRANCH   1  18
TORSDOF 5
ENDMDL
MODEL 8
REMARK VINA RESULT:      -6.9      3.872      7.845
REMARK  Name = 
REMARK  6 active torsions:
REMARK  status: ('A' for Active; 'I' for Inactive)
REMARK    1  A    between atoms: C_1  and  C_2
REMARK    2  A    between atoms: C_5  and  S_6
REMARK    3  A    between atoms: S_6  and  N_9
REMARK    4  A    between atoms: C_13  and  C_14
REMARK    5  A    between atoms: N_16  and  C_17
REMARK    6  A    between atoms: C_20  and  O_21
REMARK                            x       y       z     vdW  Elec       q    Type
REMARK                         _______ _______ _______ _____ _____    ______ ____
ROOT
ATOM      1  N   UNL     1       0.556  10.333  21.036  0.00  0.00    +0.000 NA
ATOM      2  C   UNL     1      -0.744  10.647  21.629  0.00  0.00    +0.000 C 
ATOM      3  C   UNL     1      -0.443  10.497  23.109  0.00  0.00    +0.000 C 
ATOM      4  C   UNL     1       0.477   9.281  23.166  0.00  0.00    +0.000 C 
ATOM      5  C   UNL     1       1.148   9.193  21.773  0.00  0.00    +0.000 C 
ENDROOT
BRANCH   5   6
ATOM      6  C   UNL     1       0.823   7.850  21.114  0.00  0.00    +0.000 C 
ATOM      7  O   UNL     1      -0.348   7.491  20.984  0.00  0.00    +0.000 OA
ATOM      8  N   UNL     1       1.935   7.140  20.686  0.00  0.00    +0.000 N 
ATOM      9  H   UNL     1       2.851   7.543  20.868  0.00  0.00    +0.000 HD
BRANCH   8  10
ATOM     10  C   UNL     1       1.919   5.871  20.064  0.00  0.00    +0.000 A 
ATOM     11  C   UNL     1       2.235   5.673  18.715  0.00  0.00    +0.000 A 
ATOM     12  C   UNL     1       2.147   4.406  18.132  0.00  0.00    +0.000 A 
ATOM     13  C   UNL     1       1.741   3.328  18.904  0.00  0.00    +0.000 A 
ATOM     14  C   UNL     1       1.463   3.491  20.255  0.00  0.00    +0.000 A 
ATOM     15  C   UNL     1       1.563   4.760  20.840  0.00  0.00    +0.000 A 
BRANCH  13  16
ATOM     16  O   UNL     1       1.605   2.085  18.362  0.00  0.00    +0.000 OA
ATOM     17  H   UNL     1       0.856   2.100  17.744  0.00  0.00    +0.000 HD
ENDBRANCH  13  16
ENDBRANCH   8  10
ENDBRANCH   5   6
BRANCH   1  18
ATOM     18  S   UNL     1       0.913  10.640  19.439  0.00  0.00    +0.000 S 
ATOM     19  O   UNL     1       1.590   9.456  18.948  0.00  0.00    +0.000 OA
ATOM     20  O   UNL     1       1.537  11.945  19.365  0.00  0.00    +0.000 OA
BRANCH  18  25
ATOM     21  C   UNL     1      -4.381  11.124  16.509  0.00  0.00    +0.000 C 
ATOM     22  C   UNL     1      -3.075  10.989  17.230  0.00  0.00    +0.000 A 
ATOM     23  C   UNL     1      -2.205   9.929  16.951  0.00  0.00    +0.000 A 
ATOM     24  C   UNL     1      -0.995   9.806  17.637  0.00  0.00    +0.000 A 
ATOM     25  C   UNL     1      -0.633  10.772  18.578  0.00  0.00    +0.000 A 
ATOM     26  C   UNL     1      -1.510  11.813  18.892  0.00  0.00    +0.000 A 
ATOM     27  C   UNL     1      -2.724  11.921  18.216  0.00  0.00    +0.000 A 
ENDBRANCH  18  25
ENDBRANCH   1  18
TORSDOF 5
ENDMDL
MODEL 9
REMARK VINA RESULT:      -6.8      3.246      6.650
REMARK  Name = 
REMARK  6 active torsions:
REMARK  status: ('A' for Active; 'I' for Inactive)
REMARK    1  A    between atoms: C_1  and  C_2
REMARK    2  A    between atoms: C_5  and  S_6
REMARK    3  A    between atoms: S_6  and  N_9
REMARK    4  A    between atoms: C_13  and  C_14
REMARK    5  A    between atoms: N_16  and  C_17
REMARK    6  A    between atoms: C_20  and  O_21
REMARK                            x       y       z     vdW  Elec       q    Type
REMARK                         _______ _______ _______ _____ _____    ______ ____
ROOT
ATOM      1  N   UNL     1       5.498   6.080  18.429  0.00  0.00    +0.000 NA
ATOM      2  C   UNL     1       6.632   5.253  18.841  0.00  0.00    +0.000 C 
ATOM      3  C   UNL     1       7.748   6.280  18.895  0.00  0.00    +0.000 C 
ATOM      4  C   UNL     1       7.475   7.169  17.685  0.00  0.00    +0.000 C 
ATOM      5  C   UNL     1       5.960   7.034  17.394  0.00  0.00    +0.000 C 
ENDROOT
BRANCH   5   6
ATOM      6  C   UNL     1       5.740   6.496  15.978  0.00  0.00    +0.000 C 
ATOM      7  O   UNL     1       4.965   7.070  15.212  0.00  0.00    +0.000 OA
ATOM      8  N   UNL     1       6.488   5.369  15.672  0.00  0.00    +0.000 N 
ATOM      9  H   UNL     1       7.081   4.984  16.402  0.00  0.00    +0.000 HD
BRANCH   8  10
ATOM     10  C   UNL     1       6.462   4.665  14.446  0.00  0.00    +0.000 A 
ATOM     11  C   UNL     1       7.411   4.849  13.435  0.00  0.00    +0.000 A 
ATOM     12  C   UNL     1       7.309   4.171  12.217  0.00  0.00    +0.000 A 
ATOM     13  C   UNL     1       6.249   3.302  12.008  0.00  0.00    +0.000 A 
ATOM     14  C   UNL     1       5.317   3.071  13.013  0.00  0.00    +0.000 A 
ATOM     15  C   UNL     1       5.429   3.742  14.236  0.00  0.00    +0.000 A 
BRANCH  13  16
ATOM     16  O   UNL     1       6.093   2.654  10.821  0.00  0.00    +0.000 OA
ATOM     17  H   UNL     1       5.488   3.173  10.264  0.00  0.00    +0.000 HD
ENDBRANCH  13  16
ENDBRANCH   8  10
ENDBRANCH   5   6
BRANCH   1  18
ATOM     18  S   UNL     1       3.922   5.548  18.506  0.00  0.00    +0.000 S 
ATOM     19  O   UNL     1       3.828   4.753  19.714  0.00  0.00    +0.000 OA
ATOM     20  O   UNL     1       3.576   4.992  17.214  0.00  0.00    +0.000 OA
BRANCH  18  25
ATOM     21  C   UNL     1       0.432  10.464  19.223  0.00  0.00    +0.000 C 
ATOM     22  C   UNL     1       1.297   9.251  19.061  0.00  0.00    +0.000 A 
ATOM     23  C   UNL     1       1.467   8.343  20.113  0.00  0.00    +0.000 A 
ATOM     24  C   UNL     1       2.283   7.221  19.956  0.00  0.00    +0.000 A 
ATOM     25  C   UNL     1       2.901   6.983  18.726  0.00  0.00    +0.000 A 
ATOM     26  C   UNL     1       2.769   7.902  17.682  0.00  0.00    +0.000 A 
ATOM     27  C   UNL     1       1.966   9.029  17.850  0.00  0.00    +0.000 A 
ENDBRANCH  18  25
ENDBRANCH   1  18
TORSDOF 5
ENDMDL
