MODEL 1
REMARK VINA RESULT:      -7.6      0.000      0.000
REMARK  Name = 
REMARK  8 active torsions:
REMARK  status: ('A' for Active; 'I' for Inactive)
REMARK    1  A    between atoms: C_1  and  O_2
REMARK    2  A    between atoms: O_2  and  C_3
REMARK    3  A    between atoms: C_6  and  C_7
REMARK    4  A    between atoms: C_9  and  N_10
REMARK    5  A    between atoms: C_11  and  C_13
REMARK    6  A    between atoms: C_20  and  C_21
REMARK    7  A    between atoms: C_24  and  O_25
REMARK    8  A    between atoms: O_25  and  C_26
REMARK                            x       y       z     vdW  Elec       q    Type
REMARK                         _______ _______ _______ _____ _____    ______ ____
ROOT
ATOM      1  C   UNL     1      -0.581  10.812  18.335  0.00  0.00    +0.000 A 
ATOM      2  C   UNL     1       0.142   9.632  18.299  0.00  0.00    +0.000 A 
ATOM      3  C   UNL     1       1.511   9.735  18.340  0.00  0.00    +0.000 A 
ATOM      4  N   UNL     1       2.119  10.922  18.401  0.00  0.00    +0.000 NA
ATOM      5  C   UNL     1       1.365  12.025  18.432  0.00  0.00    +0.000 A 
ATOM      6  N   UNL     1       0.023  12.012  18.416  0.00  0.00    +0.000 NA
ENDROOT
BRANCH   1  10
ATOM      7  C   UNL     1      -4.880  10.890  18.166  0.00  0.00    +0.000 A 
ATOM      8  C   UNL     1      -4.172   9.880  17.518  0.00  0.00    +0.000 A 
ATOM      9  C   UNL     1      -2.774   9.847  17.573  0.00  0.00    +0.000 A 
ATOM     10  C   UNL     1      -2.051  10.842  18.259  0.00  0.00    +0.000 A 
ATOM     11  C   UNL     1      -2.788  11.859  18.886  0.00  0.00    +0.000 A 
ATOM     12  C   UNL     1      -4.184  11.889  18.838  0.00  0.00    +0.000 A 
BRANCH   7  14
ATOM     13  C   UNL     1      -6.914  10.398  19.249  0.00  0.00    +0.000 C 
ATOM     14  O   UNL     1      -6.243  10.823  18.066  0.00  0.00    +0.000 OA
ENDBRANCH   7  14
ENDBRANCH   1  10
BRANCH   5  15
ATOM     15  C   UNL     1       2.041  13.336  18.482  0.00  0.00    +0.000 A 
ATOM     16  C   UNL     1       3.394  13.484  18.131  0.00  0.00    +0.000 A 
ATOM     17  C   UNL     1       4.032  14.730  18.199  0.00  0.00    +0.000 A 
ATOM     18  C   UNL     1       3.328  15.865  18.601  0.00  0.00    +0.000 A 
ATOM     19  C   UNL     1       1.987  15.745  18.956  0.00  0.00    +0.000 A 
ATOM     20  C   UNL     1       1.356  14.496  18.891  0.00  0.00    +0.000 A 
BRANCH  18  21
ATOM     21  O   UNL     1       4.057  17.021  18.653  0.00  0.00    +0.000 OA
ATOM     22  C   UNL     1       5.404  16.878  19.090  0.00  0.00    +0.000 C 
ENDBRANCH  18  21
ENDBRANCH   5  15
BRANCH   3  23
ATOM     23  N   UNL     1       2.270   8.544  18.323  0.00  0.00    +0.000 N 
ATOM     24  C   UNL     1       2.269   7.631  19.354  0.00  0.00    +0.000 C 
ATOM     25  O   UNL     1       1.678   7.780  20.424  0.00  0.00    +0.000 OA
ATOM     26  H   UNL     1       2.849   8.373  17.517  0.00  0.00    +0.000 HD
BRANCH  24  27
ATOM     27  C   UNL     1       3.142   6.386  19.118  0.00  0.00    +0.000 C 
ATOM     28  C   UNL     1       2.972   5.394  20.285  0.00  0.00    +0.000 C 
ATOM     29  C   UNL     1       1.607   4.695  20.268  0.00  0.00    +0.000 C 
ATOM     30  C   UNL     1       1.328   4.023  18.930  0.00  0.00    +0.000 C 
ATOM     31  C   UNL     1       1.515   4.979  17.755  0.00  0.00    +0.000 C 
ATOM     32  C   UNL     1       2.880   5.665  17.789  0.00  0.00    +0.000 C 
ENDBRANCH  24  27
ENDBRANCH   3  23
TORSDOF 6
ENDMDL
MODEL 2
REMARK VINA RESULT:      -7.5      0.738      1.137
REMARK  Name = 
REMARK  8 active torsions:
REMARK  status: ('A' for Active; 'I' for Inactive)
REMARK    1  A    between atoms: C_1  and  O_2
REMARK    2  A    between atoms: O_2  and  C_3
REMARK    3  A    between atoms: C_6  and  C_7
REMARK    4  A    between atoms: C_9  and  N_10
REMARK    5  A    between atoms: C_11  and  C_13
REMARK    6  A    between atoms: C_20  and  C_21
REMARK    7  A    between atoms: C_24  and  O_25
REMARK    8  A    between atoms: O_25  and  C_26
REMARK                            x       y       z     vdW  Elec       q    Type
REMARK                         _______ _______ _______ _____ _____    ______ ____
ROOT
ATOM      1  C   UNL     1      -0.445  10.656  18.358  0.00  0.00    +0.000 A 
ATOM      2  C   UNL     1       0.237   9.456  18.258  0.00  0.00    +0.000 A 
ATOM      3  C   UNL     1       1.598   9.491  18.444  0.00  0.00    +0.000 A 
ATOM      4  N   UNL     1       2.237  10.636  18.699  0.00  0.00    +0.000 NA
ATOM      5  C   UNL     1       1.521  11.762  18.783  0.00  0.00    +0.000 A 
ATOM      6  N   UNL     1       0.188  11.811  18.635  0.00  0.00    +0.000 NA
ENDROOT
BRANCH   1  10
ATOM      7  C   UNL     1      -4.682  10.981  17.679  0.00  0.00    +0.000 A 
ATOM      8  C   UNL     1      -4.064  11.773  18.645  0.00  0.00    +0.000 A 
ATOM      9  C   UNL     1      -2.686  11.675  18.867  0.00  0.00    +0.000 A 
ATOM     10  C   UNL     1      -1.898  10.761  18.143  0.00  0.00    +0.000 A 
ATOM     11  C   UNL     1      -2.548   9.960  17.190  0.00  0.00    +0.000 A 
ATOM     12  C   UNL     1      -3.922  10.062  16.962  0.00  0.00    +0.000 A 
BRANCH   7  14
ATOM     13  C   UNL     1      -6.764  11.273  18.742  0.00  0.00    +0.000 C 
ATOM     14  O   UNL     1      -6.028  11.165  17.527  0.00  0.00    +0.000 OA
ENDBRANCH   7  14
ENDBRANCH   1  10
BRANCH   5  15
ATOM     15  C   UNL     1       2.232  13.027  19.048  0.00  0.00    +0.000 A 
ATOM     16  C   UNL     1       2.763  13.810  18.007  0.00  0.00    +0.000 A 
ATOM     17  C   UNL     1       3.453  15.000  18.271  0.00  0.00    +0.000 A 
ATOM     18  C   UNL     1       3.615  15.450  19.580  0.00  0.00    +0.000 A 
ATOM     19  C   UNL     1       3.102  14.692  20.629  0.00  0.00    +0.000 A 
ATOM     20  C   UNL     1       2.417  13.500  20.361  0.00  0.00    +0.000 A 
BRANCH  18  21
ATOM     21  O   UNL     1       4.325  16.610  19.719  0.00  0.00    +0.000 OA
ATOM     22  C   UNL     1       5.433  16.762  18.838  0.00  0.00    +0.000 C 
ENDBRANCH  18  21
ENDBRANCH   5  15
BRANCH   3  23
ATOM     23  N   UNL     1       2.313   8.277  18.364  0.00  0.00    +0.000 N 
ATOM     24  C   UNL     1       2.347   7.350  19.382  0.00  0.00    +0.000 C 
ATOM     25  O   UNL     1       1.830   7.503  20.490  0.00  0.00    +0.000 OA
ATOM     26  H   UNL     1       2.834   8.097  17.521  0.00  0.00    +0.000 HD
BRANCH  24  27
ATOM     27  C   UNL     1       3.162   6.080  19.077  0.00  0.00    +0.000 C 
ATOM     28  C   UNL     1       2.989   5.057  20.216  0.00  0.00    +0.000 C 
ATOM     29  C   UNL     1       1.598   4.413  20.223  0.00  0.00    +0.000 C 
ATOM     30  C   UNL     1       1.248   3.798  18.875  0.00  0.00    +0.000 C 
ATOM     31  C   UNL     1       1.435   4.785  17.725  0.00  0.00    +0.000 C 
ATOM     32  C   UNL     1       2.827   5.415  17.735  0.00  0.00    +0.000 C 
ENDBRANCH  24  27
ENDBRANCH   3  23
TORSDOF 6
ENDMDL
MODEL 3
REMARK VINA RESULT:      -7.5      1.794      8.250
REMARK  Name = 
REMARK  8 active torsions:
REMARK  status: ('A' for Active; 'I' for Inactive)
REMARK    1  A    between atoms: C_1  and  O_2
REMARK    2  A    between atoms: O_2  and  C_3
REMARK    3  A    between atoms: C_6  and  C_7
REMARK    4  A    between atoms: C_9  and  N_10
REMARK    5  A    between atoms: C_11  and  C_13
REMARK    6  A    between atoms: C_20  and  C_21
REMARK    7  A    between atoms: C_24  and  O_25
REMARK    8  A    between atoms: O_25  and  C_26
REMARK                            x       y       z     vdW  Elec       q    Type
REMARK                         _______ _______ _______ _____ _____    ______ ____
ROOT
ATOM      1  C   UNL     1       0.807  10.519  18.760  0.00  0.00    +0.000 A 
ATOM      2  C   UNL     1       1.540  11.691  18.691  0.00  0.00    +0.000 A 
ATOM      3  C   UNL     1       0.842  12.855  18.482  0.00  0.00    +0.000 A 
ATOM      4  N   UNL     1      -0.486  12.856  18.341  0.00  0.00    +0.000 NA
ATOM      5  C   UNL     1      -1.137  11.691  18.418  0.00  0.00    +0.000 A 
ATOM      6  N   UNL     1      -0.533  10.513  18.639  0.00  0.00    +0.000 NA
ENDROOT
BRANCH   1  10
ATOM      7  C   UNL     1       2.613   6.645  19.256  0.00  0.00    +0.000 A 
ATOM      8  C   UNL     1       1.968   7.260  20.328  0.00  0.00    +0.000 A 
ATOM      9  C   UNL     1       1.376   8.518  20.172  0.00  0.00    +0.000 A 
ATOM     10  C   UNL     1       1.437   9.201  18.942  0.00  0.00    +0.000 A 
ATOM     11  C   UNL     1       2.110   8.568  17.885  0.00  0.00    +0.000 A 
ATOM     12  C   UNL     1       2.695   7.309  18.037  0.00  0.00    +0.000 A 
BRANCH   7  14
ATOM     13  C   UNL     1       4.551   5.306  19.310  0.00  0.00    +0.000 C 
ATOM     14  O   UNL     1       3.144   5.410  19.507  0.00  0.00    +0.000 OA
ENDBRANCH   7  14
ENDBRANCH   1  10
BRANCH   5  15
ATOM     15  C   UNL     1      -2.602  11.693  18.243  0.00  0.00    +0.000 A 
ATOM     16  C   UNL     1      -3.468  12.131  19.261  0.00  0.00    +0.000 A 
ATOM     17  C   UNL     1      -4.858  12.112  19.093  0.00  0.00    +0.000 A 
ATOM     18  C   UNL     1      -5.421  11.673  17.895  0.00  0.00    +0.000 A 
ATOM     19  C   UNL     1      -4.586  11.231  16.872  0.00  0.00    +0.000 A 
ATOM     20  C   UNL     1      -3.196  11.248  17.047  0.00  0.00    +0.000 A 
BRANCH  18  21
ATOM     21  O   UNL     1      -6.787  11.675  17.852  0.00  0.00    +0.000 OA
ATOM     22  C   UNL     1      -7.439  12.146  19.026  0.00  0.00    +0.000 C 
ENDBRANCH  18  21
ENDBRANCH   5  15
BRANCH   3  23
ATOM     23  N   UNL     1       1.567  14.066  18.425  0.00  0.00    +0.000 N 
ATOM     24  C   UNL     1       1.908  14.797  19.542  0.00  0.00    +0.000 C 
ATOM     25  O   UNL     1       1.561  14.526  20.692  0.00  0.00    +0.000 OA
ATOM     26  H   UNL     1       1.828  14.410  17.515  0.00  0.00    +0.000 HD
BRANCH  24  27
ATOM     27  C   UNL     1       2.725  16.070  19.259  0.00  0.00    +0.000 C 
ATOM     28  C   UNL     1       3.785  16.271  20.358  0.00  0.00    +0.000 C 
ATOM     29  C   UNL     1       4.934  15.261  20.259  0.00  0.00    +0.000 C 
ATOM     30  C   UNL     1       5.572  15.258  18.876  0.00  0.00    +0.000 C 
ATOM     31  C   UNL     1       4.538  15.085  17.766  0.00  0.00    +0.000 C 
ATOM     32  C   UNL     1       3.402  16.100  17.881  0.00  0.00    +0.000 C 
ENDBRANCH  24  27
ENDBRANCH   3  23
TORSDOF 6
ENDMDL
MODEL 4
REMARK VINA RESULT:      -7.4      0.520      6.622
REMARK  Name = 
REMARK  8 active torsions:
REMARK  status: ('A' for Active; 'I' for Inactive)
REMARK    1  A    between atoms: C_1  and  O_2
REMARK    2  A    between atoms: O_2  and  C_3
REMARK    3  A    between atoms: C_6  and  C_7
REMARK    4  A    between atoms: C_9  and  N_10
REMARK    5  A    between atoms: C_11  and  C_13
REMARK    6  A    between atoms: C_20  and  C_21
REMARK    7  A    between atoms: C_24  and  O_25
REMARK    8  A    between atoms: O_25  and  C_26
REMARK                            x       y       z     vdW  Elec       q    Type
REMARK                         _______ _______ _______ _____ _____    ______ ____
ROOT
ATOM      1  C   UNL     1       1.520  12.020  18.425  0.00  0.00    +0.000 A 
ATOM      2  C   UNL     1       2.249  10.843  18.421  0.00  0.00    +0.000 A 
ATOM      3  C   UNL     1       1.541   9.669  18.342  0.00  0.00    +0.000 A 
ATOM      4  N   UNL     1       0.207   9.661  18.283  0.00  0.00    +0.000 NA
ATOM      5  C   UNL     1      -0.439  10.831  18.292  0.00  0.00    +0.000 A 
ATOM      6  N   UNL     1       0.176  12.023  18.346  0.00  0.00    +0.000 NA
ENDROOT
BRANCH   1  10
ATOM      7  C   UNL     1       3.340  15.907  18.736  0.00  0.00    +0.000 A 
ATOM      8  C   UNL     1       4.075  14.826  18.253  0.00  0.00    +0.000 A 
ATOM      9  C   UNL     1       3.487  13.561  18.146  0.00  0.00    +0.000 A 
ATOM     10  C   UNL     1       2.154  13.344  18.545  0.00  0.00    +0.000 A 
ATOM     11  C   UNL     1       1.443  14.445  19.047  0.00  0.00    +0.000 A 
ATOM     12  C   UNL     1       2.025  15.710  19.147  0.00  0.00    +0.000 A 
BRANCH   7  14
ATOM     13  C   UNL     1       4.972  17.215  19.821  0.00  0.00    +0.000 C 
ATOM     14  O   UNL     1       4.000  17.104  18.786  0.00  0.00    +0.000 OA
ENDBRANCH   7  14
ENDBRANCH   1  10
BRANCH   5  15
ATOM     15  C   UNL     1      -1.913  10.818  18.245  0.00  0.00    +0.000 A 
ATOM     16  C   UNL     1      -2.624   9.814  17.563  0.00  0.00    +0.000 A 
ATOM     17  C   UNL     1      -4.024   9.821  17.509  0.00  0.00    +0.000 A 
ATOM     18  C   UNL     1      -4.752  10.822  18.151  0.00  0.00    +0.000 A 
ATOM     19  C   UNL     1      -4.074  11.830  18.830  0.00  0.00    +0.000 A 
ATOM     20  C   UNL     1      -2.674  11.822  18.877  0.00  0.00    +0.000 A 
BRANCH  18  21
ATOM     21  O   UNL     1      -6.110  10.742  18.010  0.00  0.00    +0.000 OA
ATOM     22  C   UNL     1      -6.828  10.369  19.181  0.00  0.00    +0.000 C 
ENDBRANCH  18  21
ENDBRANCH   5  15
BRANCH   3  23
ATOM     23  N   UNL     1       2.264   8.456  18.318  0.00  0.00    +0.000 N 
ATOM     24  C   UNL     1       2.283   7.565  19.368  0.00  0.00    +0.000 C 
ATOM     25  O   UNL     1       1.745   7.754  20.459  0.00  0.00    +0.000 OA
ATOM     26  H   UNL     1       2.801   8.250  17.490  0.00  0.00    +0.000 HD
BRANCH  24  27
ATOM     27  C   UNL     1       3.110   6.290  19.122  0.00  0.00    +0.000 C 
ATOM     28  C   UNL     1       2.914   5.302  20.288  0.00  0.00    +0.000 C 
ATOM     29  C   UNL     1       1.525   4.653  20.282  0.00  0.00    +0.000 C 
ATOM     30  C   UNL     1       1.210   3.994  18.945  0.00  0.00    +0.000 C 
ATOM     31  C   UNL     1       1.422   4.946  17.770  0.00  0.00    +0.000 C 
ATOM     32  C   UNL     1       2.810   5.582  17.794  0.00  0.00    +0.000 C 
ENDBRANCH  24  27
ENDBRANCH   3  23
TORSDOF 6
ENDMDL
MODEL 5
REMARK VINA RESULT:      -7.4      1.740      6.975
REMARK  Name = 
REMARK  8 active torsions:
REMARK  status: ('A' for Active; 'I' for Inactive)
REMARK    1  A    between atoms: C_1  and  O_2
REMARK    2  A    between atoms: O_2  and  C_3
REMARK    3  A    between atoms: C_6  and  C_7
REMARK    4  A    between atoms: C_9  and  N_10
REMARK    5  A    between atoms: C_11  and  C_13
REMARK    6  A    between atoms: C_20  and  C_21
REMARK    7  A    between atoms: C_24  and  O_25
REMARK    8  A    between atoms: O_25  and  C_26
REMARK                            x       y       z     vdW  Elec       q    Type
REMARK                         _______ _______ _______ _____ _____    ______ ____
ROOT
ATOM      1  C   UNL     1       0.145  10.616  18.535  0.00  0.00    +0.000 A 
ATOM      2  C   UNL     1      -1.164  10.543  18.091  0.00  0.00    +0.000 A 
ATOM      3  C   UNL     1      -1.815  11.730  17.862  0.00  0.00    +0.000 A 
ATOM      4  N   UNL     1      -1.216  12.905  18.071  0.00  0.00    +0.000 NA
ATOM      5  C   UNL     1       0.049  12.909  18.502  0.00  0.00    +0.000 A 
ATOM      6  N   UNL     1       0.763  11.796  18.730  0.00  0.00    +0.000 NA
ENDROOT
BRANCH   1  10
ATOM      7  C   UNL     1       2.504   7.148  19.497  0.00  0.00    +0.000 A 
ATOM      8  C   UNL     1       2.462   7.626  18.188  0.00  0.00    +0.000 A 
ATOM      9  C   UNL     1       1.700   8.756  17.871  0.00  0.00    +0.000 A 
ATOM     10  C   UNL     1       0.941   9.419  18.854  0.00  0.00    +0.000 A 
ATOM     11  C   UNL     1       0.985   8.905  20.160  0.00  0.00    +0.000 A 
ATOM     12  C   UNL     1       1.751   7.782  20.480  0.00  0.00    +0.000 A 
BRANCH   7  14
ATOM     13  C   UNL     1       3.265   5.080  18.664  0.00  0.00    +0.000 C 
ATOM     14  O   UNL     1       3.291   6.050  19.707  0.00  0.00    +0.000 OA
ENDBRANCH   7  14
ENDBRANCH   1  10
BRANCH   5  15
ATOM     15  C   UNL     1       0.701  14.209  18.749  0.00  0.00    +0.000 A 
ATOM     16  C   UNL     1       2.101  14.346  18.757  0.00  0.00    +0.000 A 
ATOM     17  C   UNL     1       2.711  15.581  19.010  0.00  0.00    +0.000 A 
ATOM     18  C   UNL     1       1.939  16.718  19.244  0.00  0.00    +0.000 A 
ATOM     19  C   UNL     1       0.550  16.610  19.246  0.00  0.00    +0.000 A 
ATOM     20  C   UNL     1      -0.055  15.371  18.996  0.00  0.00    +0.000 A 
BRANCH  18  21
ATOM     21  O   UNL     1       2.640  17.862  19.505  0.00  0.00    +0.000 OA
ATOM     22  C   UNL     1       3.325  17.893  20.752  0.00  0.00    +0.000 C 
ENDBRANCH  18  21
ENDBRANCH   5  15
BRANCH   3  23
ATOM     23  N   UNL     1      -3.145  11.681  17.390  0.00  0.00    +0.000 N 
ATOM     24  C   UNL     1      -4.244  11.822  18.208  0.00  0.00    +0.000 C 
ATOM     25  O   UNL     1      -4.198  11.929  19.434  0.00  0.00    +0.000 OA
ATOM     26  H   UNL     1      -3.284  11.517  16.406  0.00  0.00    +0.000 HD
BRANCH  24  27
ATOM     27  C   UNL     1      -5.602  11.766  17.486  0.00  0.00    +0.000 C 
ATOM     28  C   UNL     1      -6.612  10.959  18.324  0.00  0.00    +0.000 C 
ATOM     29  C   UNL     1      -7.075  11.715  19.576  0.00  0.00    +0.000 C 
ATOM     30  C   UNL     1      -7.621  13.096  19.238  0.00  0.00    +0.000 C 
ATOM     31  C   UNL     1      -6.648  13.907  18.385  0.00  0.00    +0.000 C 
ATOM     32  C   UNL     1      -6.199  13.138  17.144  0.00  0.00    +0.000 C 
ENDBRANCH  24  27
ENDBRANCH   3  23
TORSDOF 6
ENDMDL
MODEL 6
REMARK VINA RESULT:      -7.4      1.659      6.866
REMARK  Name = 
REMARK  8 active torsions:
REMARK  status: ('A' for Active; 'I' for Inactive)
REMARK    1  A    between atoms: C_1  and  O_2
REMARK    2  A    between atoms: O_2  and  C_3
REMARK    3  A    between atoms: C_6  and  C_7
REMARK    4  A    between atoms: C_9  and  N_10
REMARK    5  A    between atoms: C_11  and  C_13
REMARK    6  A    between atoms: C_20  and  C_21
REMARK    7  A    between atoms: C_24  and  O_25
REMARK    8  A    between atoms: O_25  and  C_26
REMARK                            x       y       z     vdW  Elec       q    Type
REMARK                         _______ _______ _______ _____ _____    ______ ____
ROOT
ATOM      1  C   UNL     1      -1.294  11.803  18.375  0.00  0.00    +0.000 A 
ATOM      2  C   UNL     1      -0.580  12.990  18.366  0.00  0.00    +0.000 A 
ATOM      3  C   UNL     1       0.779  12.904  18.542  0.00  0.00    +0.000 A 
ATOM      4  N   UNL     1       1.386  11.729  18.726  0.00  0.00    +0.000 NA
ATOM      5  C   UNL     1       0.641  10.619  18.726  0.00  0.00    +0.000 A 
ATOM      6  N   UNL     1      -0.688  10.613  18.541  0.00  0.00    +0.000 NA
ENDROOT
BRANCH   1  10
ATOM      7  C   UNL     1      -5.572  11.714  17.929  0.00  0.00    +0.000 A 
ATOM      8  C   UNL     1      -5.002  12.156  19.121  0.00  0.00    +0.000 A 
ATOM      9  C   UNL     1      -3.611  12.191  19.270  0.00  0.00    +0.000 A 
ATOM     10  C   UNL     1      -2.759  11.760  18.236  0.00  0.00    +0.000 A 
ATOM     11  C   UNL     1      -3.360  11.300  17.053  0.00  0.00    +0.000 A 
ATOM     12  C   UNL     1      -4.748  11.271  16.900  0.00  0.00    +0.000 A 
BRANCH   7  14
ATOM     13  C   UNL     1      -7.563  12.667  18.756  0.00  0.00    +0.000 C 
ATOM     14  O   UNL     1      -6.939  11.734  17.877  0.00  0.00    +0.000 OA
ENDBRANCH   7  14
ENDBRANCH   1  10
BRANCH   5  15
ATOM     15  C   UNL     1       1.312   9.324  18.947  0.00  0.00    +0.000 A 
ATOM     16  C   UNL     1       2.022   8.673  17.922  0.00  0.00    +0.000 A 
ATOM     17  C   UNL     1       2.641   7.435  18.138  0.00  0.00    +0.000 A 
ATOM     18  C   UNL     1       2.583   6.822  19.389  0.00  0.00    +0.000 A 
ATOM     19  C   UNL     1       1.884   7.444  20.420  0.00  0.00    +0.000 A 
ATOM     20  C   UNL     1       1.263   8.680  20.198  0.00  0.00    +0.000 A 
BRANCH  18  21
ATOM     21  O   UNL     1       3.201   5.605  19.477  0.00  0.00    +0.000 OA
ATOM     22  C   UNL     1       2.529   4.528  18.835  0.00  0.00    +0.000 C 
ENDBRANCH  18  21
ENDBRANCH   5  15
BRANCH   3  23
ATOM     23  N   UNL     1       1.530  14.099  18.518  0.00  0.00    +0.000 N 
ATOM     24  C   UNL     1       2.063  14.682  19.647  0.00  0.00    +0.000 C 
ATOM     25  O   UNL     1       1.884  14.278  20.796  0.00  0.00    +0.000 OA
ATOM     26  H   UNL     1       1.664  14.548  17.625  0.00  0.00    +0.000 HD
BRANCH  24  27
ATOM     27  C   UNL     1       2.873  15.966  19.394  0.00  0.00    +0.000 C 
ATOM     28  C   UNL     1       3.936  16.144  20.495  0.00  0.00    +0.000 C 
ATOM     29  C   UNL     1       5.089  15.143  20.367  0.00  0.00    +0.000 C 
ATOM     30  C   UNL     1       5.723  15.177  18.982  0.00  0.00    +0.000 C 
ATOM     31  C   UNL     1       4.686  15.028  17.871  0.00  0.00    +0.000 C 
ATOM     32  C   UNL     1       3.546  16.034  18.015  0.00  0.00    +0.000 C 
ENDBRANCH  24  27
ENDBRANCH   3  23
TORSDOF 6
ENDMDL
MODEL 7
REMARK VINA RESULT:      -7.4      1.758      8.182
REMARK  Name = 
REMARK  8 active torsions:
REMARK  status: ('A' for Active; 'I' for Inactive)
REMARK    1  A    between atoms: C_1  and  O_2
REMARK    2  A    between atoms: O_2  and  C_3
REMARK    3  A    between atoms: C_6  and  C_7
REMARK    4  A    between atoms: C_9  and  N_10
REMARK    5  A    between atoms: C_11  and  C_13
REMARK    6  A    between atoms: C_20  and  C_21
REMARK    7  A    between atoms: C_24  and  O_25
REMARK    8  A    between atoms: O_25  and  C_26
REMARK                            x       y       z     vdW  Elec       q    Type
REMARK                         _______ _______ _______ _____ _____    ______ ____
ROOT
ATOM      1  C   UNL     1       0.743  10.584  18.773  0.00  0.00    +0.000 A 
ATOM      2  C   UNL     1       1.469  11.761  18.703  0.00  0.00    +0.000 A 
ATOM      3  C   UNL     1       0.761  12.923  18.517  0.00  0.00    +0.000 A 
ATOM      4  N   UNL     1      -0.569  12.918  18.397  0.00  0.00    +0.000 NA
ATOM      5  C   UNL     1      -1.212  11.749  18.473  0.00  0.00    +0.000 A 
ATOM      6  N   UNL     1      -0.599  10.572  18.674  0.00  0.00    +0.000 NA
ENDROOT
BRANCH   1  10
ATOM      7  C   UNL     1       2.648   6.759  19.272  0.00  0.00    +0.000 A 
ATOM      8  C   UNL     1       2.688   7.405  18.037  0.00  0.00    +0.000 A 
ATOM      9  C   UNL     1       2.073   8.651  17.871  0.00  0.00    +0.000 A 
ATOM     10  C   UNL     1       1.383   9.267  18.932  0.00  0.00    +0.000 A 
ATOM     11  C   UNL     1       1.342   8.585  20.158  0.00  0.00    +0.000 A 
ATOM     12  C   UNL     1       1.960   7.345  20.329  0.00  0.00    +0.000 A 
BRANCH   7  14
ATOM     13  C   UNL     1       3.182   4.747  18.167  0.00  0.00    +0.000 C 
ATOM     14  O   UNL     1       3.294   5.554  19.336  0.00  0.00    +0.000 OA
ENDBRANCH   7  14
ENDBRANCH   1  10
BRANCH   5  15
ATOM     15  C   UNL     1      -2.680  11.745  18.323  0.00  0.00    +0.000 A 
ATOM     16  C   UNL     1      -3.302  11.316  17.137  0.00  0.00    +0.000 A 
ATOM     17  C   UNL     1      -4.696  11.334  16.998  0.00  0.00    +0.000 A 
ATOM     18  C   UNL     1      -5.507  11.762  18.047  0.00  0.00    +0.000 A 
ATOM     19  C   UNL     1      -4.917  12.195  19.232  0.00  0.00    +0.000 A 
ATOM     20  C   UNL     1      -3.522  12.180  19.365  0.00  0.00    +0.000 A 
BRANCH  18  21
ATOM     21  O   UNL     1      -6.850  11.761  17.791  0.00  0.00    +0.000 OA
ATOM     22  C   UNL     1      -7.570  12.886  18.282  0.00  0.00    +0.000 C 
ENDBRANCH  18  21
ENDBRANCH   5  15
BRANCH   3  23
ATOM     23  N   UNL     1       1.478  14.138  18.460  0.00  0.00    +0.000 N 
ATOM     24  C   UNL     1       1.829  14.864  19.577  0.00  0.00    +0.000 C 
ATOM     25  O   UNL     1       1.496  14.583  20.729  0.00  0.00    +0.000 OA
ATOM     26  H   UNL     1       1.728  14.490  17.549  0.00  0.00    +0.000 HD
BRANCH  24  27
ATOM     27  C   UNL     1       2.635  16.143  19.293  0.00  0.00    +0.000 C 
ATOM     28  C   UNL     1       3.684  16.362  20.401  0.00  0.00    +0.000 C 
ATOM     29  C   UNL     1       4.844  15.363  20.318  0.00  0.00    +0.000 C 
ATOM     30  C   UNL     1       5.494  15.357  18.941  0.00  0.00    +0.000 C 
ATOM     31  C   UNL     1       4.471  15.167  17.823  0.00  0.00    +0.000 C 
ATOM     32  C   UNL     1       3.324  16.171  17.922  0.00  0.00    +0.000 C 
ENDBRANCH  24  27
ENDBRANCH   3  23
TORSDOF 6
ENDMDL
MODEL 8
REMARK VINA RESULT:      -7.3      1.865      8.607
REMARK  Name = 
REMARK  8 active torsions:
REMARK  status: ('A' for Active; 'I' for Inactive)
REMARK    1  A    between atoms: C_1  and  O_2
REMARK    2  A    between atoms: O_2  and  C_3
REMARK    3  A    between atoms: C_6  and  C_7
REMARK    4  A    between atoms: C_9  and  N_10
REMARK    5  A    between atoms: C_11  and  C_13
REMARK    6  A    between atoms: C_20  and  C_21
REMARK    7  A    between atoms: C_24  and  O_25
REMARK    8  A    between atoms: O_25  and  C_26
REMARK                            x       y       z     vdW  Elec       q    Type
REMARK                         _______ _______ _______ _____ _____    ______ ____
ROOT
ATOM      1  C   UNL     1       0.601  10.608  19.114  0.00  0.00    +0.000 A 
ATOM      2  C   UNL     1       1.274  11.804  19.304  0.00  0.00    +0.000 A 
ATOM      3  C   UNL     1       0.528  12.956  19.254  0.00  0.00    +0.000 A 
ATOM      4  N   UNL     1      -0.786  12.927  19.022  0.00  0.00    +0.000 NA
ATOM      5  C   UNL     1      -1.377  11.741  18.847  0.00  0.00    +0.000 A 
ATOM      6  N   UNL     1      -0.727  10.568  18.900  0.00  0.00    +0.000 NA
ENDROOT
BRANCH   1  10
ATOM      7  C   UNL     1       2.646   6.822  19.124  0.00  0.00    +0.000 A 
ATOM      8  C   UNL     1       2.599   7.590  17.961  0.00  0.00    +0.000 A 
ATOM      9  C   UNL     1       1.939   8.824  17.954  0.00  0.00    +0.000 A 
ATOM     10  C   UNL     1       1.288   9.306  19.106  0.00  0.00    +0.000 A 
ATOM     11  C   UNL     1       1.333   8.503  20.257  0.00  0.00    +0.000 A 
ATOM     12  C   UNL     1       1.998   7.275  20.268  0.00  0.00    +0.000 A 
BRANCH   7  14
ATOM     13  C   UNL     1       4.023   5.439  17.804  0.00  0.00    +0.000 C 
ATOM     14  O   UNL     1       3.330   5.641  19.032  0.00  0.00    +0.000 OA
ENDBRANCH   7  14
ENDBRANCH   1  10
BRANCH   5  15
ATOM     15  C   UNL     1      -2.827  11.714  18.573  0.00  0.00    +0.000 A 
ATOM     16  C   UNL     1      -3.762  12.241  19.481  0.00  0.00    +0.000 A 
ATOM     17  C   UNL     1      -5.138  12.193  19.220  0.00  0.00    +0.000 A 
ATOM     18  C   UNL     1      -5.615  11.635  18.035  0.00  0.00    +0.000 A 
ATOM     19  C   UNL     1      -4.710  11.103  17.120  0.00  0.00    +0.000 A 
ATOM     20  C   UNL     1      -3.336  11.148  17.388  0.00  0.00    +0.000 A 
BRANCH  18  21
ATOM     21  O   UNL     1      -6.975  11.621  17.898  0.00  0.00    +0.000 OA
ATOM     22  C   UNL     1      -7.650  12.792  18.344  0.00  0.00    +0.000 C 
ENDBRANCH  18  21
ENDBRANCH   5  15
BRANCH   3  23
ATOM     23  N   UNL     1       1.190  14.186  19.462  0.00  0.00    +0.000 N 
ATOM     24  C   UNL     1       2.194  14.654  18.644  0.00  0.00    +0.000 C 
ATOM     25  O   UNL     1       2.676  14.031  17.698  0.00  0.00    +0.000 OA
ATOM     26  H   UNL     1       0.915  14.733  20.263  0.00  0.00    +0.000 HD
BRANCH  24  27
ATOM     27  C   UNL     1       2.759  16.032  19.032  0.00  0.00    +0.000 C 
ATOM     28  C   UNL     1       3.538  16.636  17.848  0.00  0.00    +0.000 C 
ATOM     29  C   UNL     1       2.616  17.102  16.715  0.00  0.00    +0.000 C 
ATOM     30  C   UNL     1       1.542  18.061  17.212  0.00  0.00    +0.000 C 
ATOM     31  C   UNL     1       0.772  17.496  18.403  0.00  0.00    +0.000 C 
ATOM     32  C   UNL     1       1.707  17.038  19.521  0.00  0.00    +0.000 C 
ENDBRANCH  24  27
ENDBRANCH   3  23
TORSDOF 6
ENDMDL
MODEL 9
REMARK VINA RESULT:      -7.3      1.546      6.621
REMARK  Name = 
REMARK  8 active torsions:
REMARK  status: ('A' for Active; 'I' for Inactive)
REMARK    1  A    between atoms: C_1  and  O_2
REMARK    2  A    between atoms: O_2  and  C_3
REMARK    3  A    between atoms: C_6  and  C_7
REMARK    4  A    between atoms: C_9  and  N_10
REMARK    5  A    between atoms: C_11  and  C_13
REMARK    6  A    between atoms: C_20  and  C_21
REMARK    7  A    between atoms: C_24  and  O_25
REMARK    8  A    between atoms: O_25  and  C_26
REMARK                            x       y       z     vdW  Elec       q    Type
REMARK                         _______ _______ _______ _____ _____    ______ ____
ROOT
ATOM      1  C   UNL     1       0.413  10.654  18.699  0.00  0.00    +0.000 A 
ATOM      2  C   UNL     1      -0.938  10.716  18.401  0.00  0.00    +0.000 A 
ATOM      3  C   UNL     1      -1.478  11.963  18.198  0.00  0.00    +0.000 A 
ATOM      4  N   UNL     1      -0.735  13.069  18.297  0.00  0.00    +0.000 NA
ATOM      5  C   UNL     1       0.563  12.942  18.588  0.00  0.00    +0.000 A 
ATOM      6  N   UNL     1       1.173  11.762  18.780  0.00  0.00    +0.000 NA
ENDROOT
BRANCH   1  10
ATOM      7  C   UNL     1       2.399   6.917  19.475  0.00  0.00    +0.000 A 
ATOM      8  C   UNL     1       1.769   7.604  20.512  0.00  0.00    +0.000 A 
ATOM      9  C   UNL     1       1.118   8.817  20.264  0.00  0.00    +0.000 A 
ATOM     10  C   UNL     1       1.105   9.384  18.975  0.00  0.00    +0.000 A 
ATOM     11  C   UNL     1       1.764   8.682  17.954  0.00  0.00    +0.000 A 
ATOM     12  C   UNL     1       2.408   7.467  18.197  0.00  0.00    +0.000 A 
BRANCH   7  14
ATOM     13  C   UNL     1       2.114   4.759  20.377  0.00  0.00    +0.000 C 
ATOM     14  O   UNL     1       2.991   5.732  19.817  0.00  0.00    +0.000 OA
ENDBRANCH   7  14
ENDBRANCH   1  10
BRANCH   5  15
ATOM     15  C   UNL     1       1.376  14.166  18.714  0.00  0.00    +0.000 A 
ATOM     16  C   UNL     1       2.775  14.144  18.574  0.00  0.00    +0.000 A 
ATOM     17  C   UNL     1       3.540  15.310  18.713  0.00  0.00    +0.000 A 
ATOM     18  C   UNL     1       2.925  16.533  18.977  0.00  0.00    +0.000 A 
ATOM     19  C   UNL     1       1.541  16.583  19.123  0.00  0.00    +0.000 A 
ATOM     20  C   UNL     1       0.781  15.414  18.988  0.00  0.00    +0.000 A 
BRANCH  18  21
ATOM     21  O   UNL     1       3.771  17.598  19.117  0.00  0.00    +0.000 OA
ATOM     22  C   UNL     1       4.889  17.386  19.972  0.00  0.00    +0.000 C 
ENDBRANCH  18  21
ENDBRANCH   5  15
BRANCH   3  23
ATOM     23  N   UNL     1      -2.849  12.050  17.875  0.00  0.00    +0.000 N 
ATOM     24  C   UNL     1      -3.838  12.248  18.814  0.00  0.00    +0.000 C 
ATOM     25  O   UNL     1      -3.652  12.293  20.030  0.00  0.00    +0.000 OA
ATOM     26  H   UNL     1      -3.107  11.946  16.906  0.00  0.00    +0.000 HD
BRANCH  24  27
ATOM     27  C   UNL     1      -5.264  12.343  18.244  0.00  0.00    +0.000 C 
ATOM     28  C   UNL     1      -5.774  10.940  17.861  0.00  0.00    +0.000 C 
ATOM     29  C   UNL     1      -6.097  10.077  19.087  0.00  0.00    +0.000 C 
ATOM     30  C   UNL     1      -7.065  10.773  20.034  0.00  0.00    +0.000 C 
ATOM     31  C   UNL     1      -6.596  12.177  20.409  0.00  0.00    +0.000 C 
ATOM     32  C   UNL     1      -6.279  13.021  19.176  0.00  0.00    +0.000 C 
ENDBRANCH  24  27
ENDBRANCH   3  23
TORSDOF 6
ENDMDL
