MODEL 1
REMARK VINA RESULT:      -9.3      0.000      0.000
REMARK  Name = 
REMARK  8 active torsions:
REMARK  status: ('A' for Active; 'I' for Inactive)
REMARK    1  A    between atoms: C_1  and  O_2
REMARK    2  A    between atoms: O_2  and  C_3
REMARK    3  A    between atoms: C_6  and  N_7
REMARK    4  A    between atoms: C_11  and  C_12
REMARK    5  A    between atoms: N_14  and  C_15
REMARK    6  A    between atoms: C_15  and  C_16
REMARK    7  A    between atoms: C_26  and  C_27
REMARK    8  A    between atoms: C_26  and  C_28
REMARK                            x       y       z     vdW  Elec       q    Type
REMARK                         _______ _______ _______ _____ _____    ______ ____
ROOT
ATOM      1  N   UNL     1       3.445   5.956  18.052  0.00  0.00    +0.000 N 
ATOM      2  C   UNL     1       3.247   4.673  18.609  0.00  0.00    +0.000 A 
ATOM      3  C   UNL     1       3.970   3.627  18.160  0.00  0.00    +0.000 A 
ATOM      4  C   UNL     1       4.941   3.810  17.105  0.00  0.00    +0.000 A 
ATOM      5  C   UNL     1       5.152   5.004  16.526  0.00  0.00    +0.000 A 
ATOM      6  C   UNL     1       4.362   6.180  17.001  0.00  0.00    +0.000 A 
ATOM      7  O   UNL     1       4.567   7.284  16.489  0.00  0.00    +0.000 OA
ATOM      8  C   UNL     1       3.764   2.258  18.743  0.00  0.00    +0.000 C 
ATOM      9  O   UNL     1       4.350   1.281  18.283  0.00  0.00    +0.000 OA
ATOM     10  C   UNL     1       2.862   2.126  19.948  0.00  0.00    +0.000 C 
ATOM     11  C   UNL     1       1.643   3.045  19.822  0.00  0.00    +0.000 C 
ATOM     12  C   UNL     1       0.755   2.627  18.632  0.00  0.00    +0.000 C 
ATOM     13  C   UNL     1       0.793   2.960  21.102  0.00  0.00    +0.000 C 
ATOM     14  C   UNL     1       2.148   4.492  19.650  0.00  0.00    +0.000 C 
ENDROOT
BRANCH   1  18
ATOM     15  C   UNL     1       1.163   9.259  19.418  0.00  0.00    +0.000 A 
ATOM     16  C   UNL     1       1.513   9.155  18.072  0.00  0.00    +0.000 A 
ATOM     17  C   UNL     1       2.293   8.083  17.622  0.00  0.00    +0.000 A 
ATOM     18  C   UNL     1       2.725   7.105  18.523  0.00  0.00    +0.000 A 
ATOM     19  C   UNL     1       2.417   7.244  19.881  0.00  0.00    +0.000 A 
ATOM     20  C   UNL     1       1.636   8.316  20.324  0.00  0.00    +0.000 A 
BRANCH  15  22
ATOM     21  C   UNL     1      -0.485  10.800  18.716  0.00  0.00    +0.000 C 
ATOM     22  O   UNL     1       0.389  10.340  19.741  0.00  0.00    +0.000 OA
ENDBRANCH  15  22
ENDBRANCH   1  18
BRANCH   5  23
ATOM     23  C   UNL     1       6.181   5.075  15.440  0.00  0.00    +0.000 C 
ATOM     24  O   UNL     1       7.245   5.667  15.599  0.00  0.00    +0.000 OA
ATOM     25  N   UNL     1       5.861   4.443  14.270  0.00  0.00    +0.000 N 
ATOM     26  H   UNL     1       4.923   4.056  14.157  0.00  0.00    +0.000 HD
BRANCH  25  27
ATOM     27  C   UNL     1       6.713   4.493  13.106  0.00  0.00    +0.000 C 
BRANCH  27  28
ATOM     28  C   UNL     1       6.438   3.299  12.271  0.00  0.00    +0.000 A 
ATOM     29  C   UNL     1       5.281   2.629  11.932  0.00  0.00    +0.000 A 
ATOM     30  C   UNL     1       5.671   1.558  11.091  0.00  0.00    +0.000 A 
ATOM     31  C   UNL     1       7.038   1.647  10.968  0.00  0.00    +0.000 A 
ATOM     32  O   UNL     1       7.513   2.700  11.679  0.00  0.00    +0.000 OA
ENDBRANCH  27  28
ENDBRANCH  25  27
ENDBRANCH   5  23
TORSDOF 5
ENDMDL
MODEL 2
REMARK VINA RESULT:      -9.2      0.916      1.354
REMARK  Name = 
REMARK  8 active torsions:
REMARK  status: ('A' for Active; 'I' for Inactive)
REMARK    1  A    between atoms: C_1  and  O_2
REMARK    2  A    between atoms: O_2  and  C_3
REMARK    3  A    between atoms: C_6  and  N_7
REMARK    4  A    between atoms: C_11  and  C_12
REMARK    5  A    between atoms: N_14  and  C_15
REMARK    6  A    between atoms: C_15  and  C_16
REMARK    7  A    between atoms: C_26  and  C_27
REMARK    8  A    between atoms: C_26  and  C_28
REMARK                            x       y       z     vdW  Elec       q    Type
REMARK                         _______ _______ _______ _____ _____    ______ ____
ROOT
ATOM      1  N   UNL     1       3.422   6.057  18.545  0.00  0.00    +0.000 N 
ATOM      2  C   UNL     1       3.394   4.832  19.249  0.00  0.00    +0.000 A 
ATOM      3  C   UNL     1       4.257   3.850  18.920  0.00  0.00    +0.000 A 
ATOM      4  C   UNL     1       5.206   4.040  17.846  0.00  0.00    +0.000 A 
ATOM      5  C   UNL     1       5.259   5.177  17.132  0.00  0.00    +0.000 A 
ATOM      6  C   UNL     1       4.312   6.281  17.471  0.00  0.00    +0.000 A 
ATOM      7  O   UNL     1       4.371   7.337  16.834  0.00  0.00    +0.000 OA
ATOM      8  C   UNL     1       4.232   2.542  19.659  0.00  0.00    +0.000 C 
ATOM      9  O   UNL     1       4.951   1.607  19.312  0.00  0.00    +0.000 OA
ATOM     10  C   UNL     1       3.343   2.428  20.875  0.00  0.00    +0.000 C 
ATOM     11  C   UNL     1       2.012   3.152  20.649  0.00  0.00    +0.000 C 
ATOM     12  C   UNL     1       1.203   2.482  19.519  0.00  0.00    +0.000 C 
ATOM     13  C   UNL     1       1.167   3.100  21.934  0.00  0.00    +0.000 C 
ATOM     14  C   UNL     1       2.318   4.624  20.308  0.00  0.00    +0.000 C 
ENDROOT
BRANCH   1  18
ATOM     15  C   UNL     1       0.984   9.371  19.573  0.00  0.00    +0.000 A 
ATOM     16  C   UNL     1       1.378   8.459  20.551  0.00  0.00    +0.000 A 
ATOM     17  C   UNL     1       2.157   7.346  20.211  0.00  0.00    +0.000 A 
ATOM     18  C   UNL     1       2.547   7.144  18.884  0.00  0.00    +0.000 A 
ATOM     19  C   UNL     1       2.102   8.032  17.899  0.00  0.00    +0.000 A 
ATOM     20  C   UNL     1       1.326   9.144  18.244  0.00  0.00    +0.000 A 
BRANCH  15  22
ATOM     21  C   UNL     1       0.542  11.689  19.439  0.00  0.00    +0.000 C 
ATOM     22  O   UNL     1       0.236  10.426  20.021  0.00  0.00    +0.000 OA
ENDBRANCH  15  22
ENDBRANCH   1  18
BRANCH   5  23
ATOM     23  C   UNL     1       6.281   5.261  16.040  0.00  0.00    +0.000 C 
ATOM     24  O   UNL     1       7.287   5.957  16.152  0.00  0.00    +0.000 OA
ATOM     25  N   UNL     1       6.024   4.520  14.921  0.00  0.00    +0.000 N 
ATOM     26  H   UNL     1       5.126   4.042  14.839  0.00  0.00    +0.000 HD
BRANCH  25  27
ATOM     27  C   UNL     1       6.872   4.562  13.753  0.00  0.00    +0.000 C 
BRANCH  27  28
ATOM     28  C   UNL     1       6.305   3.654  12.728  0.00  0.00    +0.000 A 
ATOM     29  C   UNL     1       6.855   2.682  11.918  0.00  0.00    +0.000 A 
ATOM     30  C   UNL     1       5.791   2.151  11.150  0.00  0.00    +0.000 A 
ATOM     31  C   UNL     1       4.660   2.829  11.543  0.00  0.00    +0.000 A 
ATOM     32  O   UNL     1       4.961   3.742  12.501  0.00  0.00    +0.000 OA
ENDBRANCH  27  28
ENDBRANCH  25  27
ENDBRANCH   5  23
TORSDOF 5
ENDMDL
MODEL 3
REMARK VINA RESULT:      -9.0      2.185      7.627
REMARK  Name = 
REMARK  8 active torsions:
REMARK  status: ('A' for Active; 'I' for Inactive)
REMARK    1  A    between atoms: C_1  and  O_2
REMARK    2  A    between atoms: O_2  and  C_3
REMARK    3  A    between atoms: C_6  and  N_7
REMARK    4  A    between atoms: C_11  and  C_12
REMARK    5  A    between atoms: N_14  and  C_15
REMARK    6  A    between atoms: C_15  and  C_16
REMARK    7  A    between atoms: C_26  and  C_27
REMARK    8  A    between atoms: C_26  and  C_28
REMARK                            x       y       z     vdW  Elec       q    Type
REMARK                         _______ _______ _______ _____ _____    ______ ____
ROOT
ATOM      1  N   UNL     1       3.834   5.737  17.966  0.00  0.00    +0.000 N 
ATOM      2  C   UNL     1       3.277   4.568  18.532  0.00  0.00    +0.000 A 
ATOM      3  C   UNL     1       2.265   4.668  19.417  0.00  0.00    +0.000 A 
ATOM      4  C   UNL     1       1.751   5.966  19.796  0.00  0.00    +0.000 A 
ATOM      5  C   UNL     1       2.260   7.107  19.304  0.00  0.00    +0.000 A 
ATOM      6  C   UNL     1       3.386   7.028  18.325  0.00  0.00    +0.000 A 
ATOM      7  O   UNL     1       3.842   8.072  17.852  0.00  0.00    +0.000 OA
ATOM      8  C   UNL     1       1.669   3.432  20.028  0.00  0.00    +0.000 C 
ATOM      9  O   UNL     1       0.808   3.511  20.902  0.00  0.00    +0.000 OA
ATOM     10  C   UNL     1       2.115   2.089  19.497  0.00  0.00    +0.000 C 
ATOM     11  C   UNL     1       3.617   2.091  19.198  0.00  0.00    +0.000 C 
ATOM     12  C   UNL     1       4.439   2.284  20.489  0.00  0.00    +0.000 C 
ATOM     13  C   UNL     1       4.024   0.746  18.572  0.00  0.00    +0.000 C 
ATOM     14  C   UNL     1       3.904   3.222  18.189  0.00  0.00    +0.000 C 
ENDROOT
BRANCH   1  18
ATOM     15  C   UNL     1       6.978   5.391  15.141  0.00  0.00    +0.000 A 
ATOM     16  C   UNL     1       7.238   5.863  16.428  0.00  0.00    +0.000 A 
ATOM     17  C   UNL     1       6.198   6.008  17.354  0.00  0.00    +0.000 A 
ATOM     18  C   UNL     1       4.889   5.678  16.992  0.00  0.00    +0.000 A 
ATOM     19  C   UNL     1       4.626   5.257  15.685  0.00  0.00    +0.000 A 
ATOM     20  C   UNL     1       5.669   5.111  14.764  0.00  0.00    +0.000 A 
BRANCH  15  22
ATOM     21  C   UNL     1       7.794   5.186  12.932  0.00  0.00    +0.000 C 
ATOM     22  O   UNL     1       8.072   5.277  14.326  0.00  0.00    +0.000 OA
ENDBRANCH  15  22
ENDBRANCH   1  18
BRANCH   5  23
ATOM     23  C   UNL     1       1.651   8.394  19.771  0.00  0.00    +0.000 C 
ATOM     24  O   UNL     1       1.379   8.586  20.953  0.00  0.00    +0.000 OA
ATOM     25  N   UNL     1       1.419   9.332  18.804  0.00  0.00    +0.000 N 
ATOM     26  H   UNL     1       1.568   9.082  17.826  0.00  0.00    +0.000 HD
BRANCH  25  27
ATOM     27  C   UNL     1       0.763  10.586  19.084  0.00  0.00    +0.000 C 
BRANCH  27  28
ATOM     28  C   UNL     1      -0.595  10.549  18.491  0.00  0.00    +0.000 A 
ATOM     29  C   UNL     1      -1.183   9.759  17.525  0.00  0.00    +0.000 A 
ATOM     30  C   UNL     1      -2.521  10.207  17.400  0.00  0.00    +0.000 A 
ATOM     31  C   UNL     1      -2.664  11.238  18.300  0.00  0.00    +0.000 A 
ATOM     32  O   UNL     1      -1.501  11.452  18.968  0.00  0.00    +0.000 OA
ENDBRANCH  27  28
ENDBRANCH  25  27
ENDBRANCH   5  23
TORSDOF 5
ENDMDL
MODEL 4
REMARK VINA RESULT:      -8.7      1.224      1.742
REMARK  Name = 
REMARK  8 active torsions:
REMARK  status: ('A' for Active; 'I' for Inactive)
REMARK    1  A    between atoms: C_1  and  O_2
REMARK    2  A    between atoms: O_2  and  C_3
REMARK    3  A    between atoms: C_6  and  N_7
REMARK    4  A    between atoms: C_11  and  C_12
REMARK    5  A    between atoms: N_14  and  C_15
REMARK    6  A    between atoms: C_15  and  C_16
REMARK    7  A    between atoms: C_26  and  C_27
REMARK    8  A    between atoms: C_26  and  C_28
REMARK                            x       y       z     vdW  Elec       q    Type
REMARK                         _______ _______ _______ _____ _____    ______ ____
ROOT
ATOM      1  N   UNL     1       2.974   6.261  18.744  0.00  0.00    +0.000 N 
ATOM      2  C   UNL     1       2.982   4.934  19.228  0.00  0.00    +0.000 A 
ATOM      3  C   UNL     1       3.740   4.002  18.616  0.00  0.00    +0.000 A 
ATOM      4  C   UNL     1       4.538   4.351  17.462  0.00  0.00    +0.000 A 
ATOM      5  C   UNL     1       4.548   5.593  16.949  0.00  0.00    +0.000 A 
ATOM      6  C   UNL     1       3.714   6.646  17.604  0.00  0.00    +0.000 A 
ATOM      7  O   UNL     1       3.736   7.794  17.151  0.00  0.00    +0.000 OA
ATOM      8  C   UNL     1       3.754   2.587  19.121  0.00  0.00    +0.000 C 
ATOM      9  O   UNL     1       4.369   1.708  18.520  0.00  0.00    +0.000 OA
ATOM     10  C   UNL     1       3.038   2.286  20.417  0.00  0.00    +0.000 C 
ATOM     11  C   UNL     1       1.728   3.073  20.514  0.00  0.00    +0.000 C 
ATOM     12  C   UNL     1       0.735   2.630  19.419  0.00  0.00    +0.000 C 
ATOM     13  C   UNL     1       1.069   2.820  21.881  0.00  0.00    +0.000 C 
ATOM     14  C   UNL     1       2.057   4.573  20.384  0.00  0.00    +0.000 C 
ENDROOT
BRANCH   1  18
ATOM     15  C   UNL     1       0.874   9.403  20.670  0.00  0.00    +0.000 A 
ATOM     16  C   UNL     1       1.290   8.287  21.396  0.00  0.00    +0.000 A 
ATOM     17  C   UNL     1       1.956   7.233  20.758  0.00  0.00    +0.000 A 
ATOM     18  C   UNL     1       2.210   7.296  19.385  0.00  0.00    +0.000 A 
ATOM     19  C   UNL     1       1.743   8.392  18.652  0.00  0.00    +0.000 A 
ATOM     20  C   UNL     1       1.080   9.443  19.295  0.00  0.00    +0.000 A 
BRANCH  15  22
ATOM     21  C   UNL     1      -0.128  10.010  22.722  0.00  0.00    +0.000 C 
ATOM     22  O   UNL     1       0.246  10.376  21.398  0.00  0.00    +0.000 OA
ENDBRANCH  15  22
ENDBRANCH   1  18
BRANCH   5  23
ATOM     23  C   UNL     1       5.410   5.839  15.749  0.00  0.00    +0.000 C 
ATOM     24  O   UNL     1       5.360   6.897  15.126  0.00  0.00    +0.000 OA
ATOM     25  N   UNL     1       6.249   4.819  15.395  0.00  0.00    +0.000 N 
ATOM     26  H   UNL     1       6.176   3.926  15.884  0.00  0.00    +0.000 HD
BRANCH  25  27
ATOM     27  C   UNL     1       7.079   4.874  14.216  0.00  0.00    +0.000 C 
BRANCH  27  28
ATOM     28  C   UNL     1       6.442   4.058  13.154  0.00  0.00    +0.000 A 
ATOM     29  C   UNL     1       6.939   3.364  12.070  0.00  0.00    +0.000 A 
ATOM     30  C   UNL     1       5.824   2.772  11.429  0.00  0.00    +0.000 A 
ATOM     31  C   UNL     1       4.720   3.139  12.164  0.00  0.00    +0.000 A 
ATOM     32  O   UNL     1       5.086   3.919  13.214  0.00  0.00    +0.000 OA
ENDBRANCH  27  28
ENDBRANCH  25  27
ENDBRANCH   5  23
TORSDOF 5
ENDMDL
MODEL 5
REMARK VINA RESULT:      -8.6      2.228      7.629
REMARK  Name = 
REMARK  8 active torsions:
REMARK  status: ('A' for Active; 'I' for Inactive)
REMARK    1  A    between atoms: C_1  and  O_2
REMARK    2  A    between atoms: O_2  and  C_3
REMARK    3  A    between atoms: C_6  and  N_7
REMARK    4  A    between atoms: C_11  and  C_12
REMARK    5  A    between atoms: N_14  and  C_15
REMARK    6  A    between atoms: C_15  and  C_16
REMARK    7  A    between atoms: C_26  and  C_27
REMARK    8  A    between atoms: C_26  and  C_28
REMARK                            x       y       z     vdW  Elec       q    Type
REMARK                         _______ _______ _______ _____ _____    ______ ____
ROOT
ATOM      1  N   UNL     1       3.799   5.692  18.147  0.00  0.00    +0.000 N 
ATOM      2  C   UNL     1       3.277   4.495  18.686  0.00  0.00    +0.000 A 
ATOM      3  C   UNL     1       2.277   4.546  19.589  0.00  0.00    +0.000 A 
ATOM      4  C   UNL     1       1.740   5.820  20.014  0.00  0.00    +0.000 A 
ATOM      5  C   UNL     1       2.216   6.987  19.549  0.00  0.00    +0.000 A 
ATOM      6  C   UNL     1       3.328   6.961  18.551  0.00  0.00    +0.000 A 
ATOM      7  O   UNL     1       3.754   8.029  18.103  0.00  0.00    +0.000 OA
ATOM      8  C   UNL     1       1.717   3.279  20.171  0.00  0.00    +0.000 C 
ATOM      9  O   UNL     1       0.868   3.314  21.059  0.00  0.00    +0.000 OA
ATOM     10  C   UNL     1       2.184   1.963  19.594  0.00  0.00    +0.000 C 
ATOM     11  C   UNL     1       3.681   2.008  19.272  0.00  0.00    +0.000 C 
ATOM     12  C   UNL     1       4.518   2.180  20.556  0.00  0.00    +0.000 C 
ATOM     13  C   UNL     1       4.108   0.691  18.601  0.00  0.00    +0.000 C 
ATOM     14  C   UNL     1       3.928   3.174  18.294  0.00  0.00    +0.000 C 
ENDROOT
BRANCH   1  18
ATOM     15  C   UNL     1       6.911   5.503  15.272  0.00  0.00    +0.000 A 
ATOM     16  C   UNL     1       7.168   5.984  16.555  0.00  0.00    +0.000 A 
ATOM     17  C   UNL     1       6.137   6.077  17.498  0.00  0.00    +0.000 A 
ATOM     18  C   UNL     1       4.840   5.685  17.157  0.00  0.00    +0.000 A 
ATOM     19  C   UNL     1       4.577   5.255  15.852  0.00  0.00    +0.000 A 
ATOM     20  C   UNL     1       5.611   5.161  14.915  0.00  0.00    +0.000 A 
BRANCH  15  22
ATOM     21  C   UNL     1       7.712   5.125  13.081  0.00  0.00    +0.000 C 
ATOM     22  O   UNL     1       7.995   5.443  14.439  0.00  0.00    +0.000 OA
ENDBRANCH  15  22
ENDBRANCH   1  18
BRANCH   5  23
ATOM     23  C   UNL     1       1.586   8.245  20.062  0.00  0.00    +0.000 C 
ATOM     24  O   UNL     1       1.391   8.424  21.262  0.00  0.00    +0.000 OA
ATOM     25  N   UNL     1       1.244   9.172  19.118  0.00  0.00    +0.000 N 
ATOM     26  H   UNL     1       1.334   8.929  18.130  0.00  0.00    +0.000 HD
BRANCH  25  27
ATOM     27  C   UNL     1       0.555  10.396  19.449  0.00  0.00    +0.000 C 
BRANCH  27  28
ATOM     28  C   UNL     1       1.412  11.540  19.055  0.00  0.00    +0.000 A 
ATOM     29  C   UNL     1       2.330  11.729  18.042  0.00  0.00    +0.000 A 
ATOM     30  C   UNL     1       2.818  13.050  18.186  0.00  0.00    +0.000 A 
ATOM     31  C   UNL     1       2.165  13.583  19.273  0.00  0.00    +0.000 A 
ATOM     32  O   UNL     1       1.309  12.675  19.807  0.00  0.00    +0.000 OA
ENDBRANCH  27  28
ENDBRANCH  25  27
ENDBRANCH   5  23
TORSDOF 5
ENDMDL
MODEL 6
REMARK VINA RESULT:      -8.5      2.063      8.166
REMARK  Name = 
REMARK  8 active torsions:
REMARK  status: ('A' for Active; 'I' for Inactive)
REMARK    1  A    between atoms: C_1  and  O_2
REMARK    2  A    between atoms: O_2  and  C_3
REMARK    3  A    between atoms: C_6  and  N_7
REMARK    4  A    between atoms: C_11  and  C_12
REMARK    5  A    between atoms: N_14  and  C_15
REMARK    6  A    between atoms: C_15  and  C_16
REMARK    7  A    between atoms: C_26  and  C_27
REMARK    8  A    between atoms: C_26  and  C_28
REMARK                            x       y       z     vdW  Elec       q    Type
REMARK                         _______ _______ _______ _____ _____    ______ ____
ROOT
ATOM      1  N   UNL     1       3.962   5.576  17.180  0.00  0.00    +0.000 N 
ATOM      2  C   UNL     1       3.342   4.581  17.967  0.00  0.00    +0.000 A 
ATOM      3  C   UNL     1       2.346   4.917  18.811  0.00  0.00    +0.000 A 
ATOM      4  C   UNL     1       1.912   6.292  18.919  0.00  0.00    +0.000 A 
ATOM      5  C   UNL     1       2.483   7.279  18.209  0.00  0.00    +0.000 A 
ATOM      6  C   UNL     1       3.594   6.937  17.269  0.00  0.00    +0.000 A 
ATOM      7  O   UNL     1       4.107   7.836  16.598  0.00  0.00    +0.000 OA
ATOM      8  C   UNL     1       1.682   3.866  19.656  0.00  0.00    +0.000 C 
ATOM      9  O   UNL     1       0.835   4.171  20.493  0.00  0.00    +0.000 OA
ATOM     10  C   UNL     1       2.044   2.420  19.408  0.00  0.00    +0.000 C 
ATOM     11  C   UNL     1       3.541   2.273  19.120  0.00  0.00    +0.000 C 
ATOM     12  C   UNL     1       4.384   2.672  20.349  0.00  0.00    +0.000 C 
ATOM     13  C   UNL     1       3.863   0.807  18.779  0.00  0.00    +0.000 C 
ATOM     14  C   UNL     1       3.886   3.158  17.905  0.00  0.00    +0.000 C 
ENDROOT
BRANCH   1  18
ATOM     15  C   UNL     1       7.012   4.805  14.335  0.00  0.00    +0.000 A 
ATOM     16  C   UNL     1       5.694   4.432  14.072  0.00  0.00    +0.000 A 
ATOM     17  C   UNL     1       4.689   4.656  15.021  0.00  0.00    +0.000 A 
ATOM     18  C   UNL     1       5.003   5.260  16.242  0.00  0.00    +0.000 A 
ATOM     19  C   UNL     1       6.335   5.582  16.522  0.00  0.00    +0.000 A 
ATOM     20  C   UNL     1       7.335   5.358  15.570  0.00  0.00    +0.000 A 
BRANCH  15  22
ATOM     21  C   UNL     1       7.339   4.292  12.052  0.00  0.00    +0.000 C 
ATOM     22  O   UNL     1       7.906   4.550  13.331  0.00  0.00    +0.000 OA
ENDBRANCH  15  22
ENDBRANCH   1  18
BRANCH   5  23
ATOM     23  C   UNL     1       1.955   8.667  18.404  0.00  0.00    +0.000 C 
ATOM     24  O   UNL     1       2.003   9.506  17.509  0.00  0.00    +0.000 OA
ATOM     25  N   UNL     1       1.421   8.937  19.633  0.00  0.00    +0.000 N 
ATOM     26  H   UNL     1       1.500   8.237  20.372  0.00  0.00    +0.000 HD
BRANCH  25  27
ATOM     27  C   UNL     1       0.947  10.250  20.001  0.00  0.00    +0.000 C 
BRANCH  27  28
ATOM     28  C   UNL     1       0.303  10.162  21.333  0.00  0.00    +0.000 A 
ATOM     29  C   UNL     1       0.394   9.255  22.368  0.00  0.00    +0.000 A 
ATOM     30  C   UNL     1      -0.466   9.726  23.390  0.00  0.00    +0.000 A 
ATOM     31  C   UNL     1      -1.023  10.890  22.914  0.00  0.00    +0.000 A 
ATOM     32  O   UNL     1      -0.561  11.164  21.667  0.00  0.00    +0.000 OA
ENDBRANCH  27  28
ENDBRANCH  25  27
ENDBRANCH   5  23
TORSDOF 5
ENDMDL
MODEL 7
REMARK VINA RESULT:      -8.4      5.757     10.849
REMARK  Name = 
REMARK  8 active torsions:
REMARK  status: ('A' for Active; 'I' for Inactive)
REMARK    1  A    between atoms: C_1  and  O_2
REMARK    2  A    between atoms: O_2  and  C_3
REMARK    3  A    between atoms: C_6  and  N_7
REMARK    4  A    between atoms: C_11  and  C_12
REMARK    5  A    between atoms: N_14  and  C_15
REMARK    6  A    between atoms: C_15  and  C_16
REMARK    7  A    between atoms: C_26  and  C_27
REMARK    8  A    between atoms: C_26  and  C_28
REMARK                            x       y       z     vdW  Elec       q    Type
REMARK                         _______ _______ _______ _____ _____    ______ ____
ROOT
ATOM      1  N   UNL     1      -0.935  13.698  21.651  0.00  0.00    +0.000 N 
ATOM      2  C   UNL     1      -2.168  13.784  22.335  0.00  0.00    +0.000 A 
ATOM      3  C   UNL     1      -2.608  12.735  23.059  0.00  0.00    +0.000 A 
ATOM      4  C   UNL     1      -1.829  11.520  23.132  0.00  0.00    +0.000 A 
ATOM      5  C   UNL     1      -0.662  11.379  22.483  0.00  0.00    +0.000 A 
ATOM      6  C   UNL     1      -0.151  12.524  21.669  0.00  0.00    +0.000 A 
ATOM      7  O   UNL     1       0.932  12.408  21.089  0.00  0.00    +0.000 OA
ATOM      8  C   UNL     1      -3.920  12.815  23.787  0.00  0.00    +0.000 C 
ATOM      9  O   UNL     1      -4.376  11.837  24.376  0.00  0.00    +0.000 OA
ATOM     10  C   UNL     1      -4.635  14.146  23.823  0.00  0.00    +0.000 C 
ATOM     11  C   UNL     1      -4.512  14.869  22.479  0.00  0.00    +0.000 C 
ATOM     12  C   UNL     1      -5.227  14.083  21.361  0.00  0.00    +0.000 C 
ATOM     13  C   UNL     1      -5.166  16.259  22.575  0.00  0.00    +0.000 C 
ATOM     14  C   UNL     1      -3.014  15.041  22.160  0.00  0.00    +0.000 C 
ENDROOT
BRANCH   1  18
ATOM     15  C   UNL     1       0.765  16.858  19.391  0.00  0.00    +0.000 A 
ATOM     16  C   UNL     1       0.988  16.778  20.765  0.00  0.00    +0.000 A 
ATOM     17  C   UNL     1       0.403  15.755  21.521  0.00  0.00    +0.000 A 
ATOM     18  C   UNL     1      -0.409  14.803  20.898  0.00  0.00    +0.000 A 
ATOM     19  C   UNL     1      -0.673  14.919  19.529  0.00  0.00    +0.000 A 
ATOM     20  C   UNL     1      -0.084  15.942  18.779  0.00  0.00    +0.000 A 
BRANCH  15  22
ATOM     21  C   UNL     1       0.963  18.150  17.422  0.00  0.00    +0.000 C 
ATOM     22  O   UNL     1       1.397  17.891  18.753  0.00  0.00    +0.000 OA
ENDBRANCH  15  22
ENDBRANCH   1  18
BRANCH   5  23
ATOM     23  C   UNL     1       0.058  10.073  22.629  0.00  0.00    +0.000 C 
ATOM     24  O   UNL     1       0.369   9.629  23.731  0.00  0.00    +0.000 OA
ATOM     25  N   UNL     1       0.345   9.414  21.466  0.00  0.00    +0.000 N 
ATOM     26  H   UNL     1       0.156   9.877  20.575  0.00  0.00    +0.000 HD
BRANCH  25  27
ATOM     27  C   UNL     1       1.105   8.188  21.438  0.00  0.00    +0.000 C 
BRANCH  27  28
ATOM     28  C   UNL     1       1.690   8.028  20.085  0.00  0.00    +0.000 A 
ATOM     29  C   UNL     1       2.409   7.019  19.480  0.00  0.00    +0.000 A 
ATOM     30  C   UNL     1       2.680   7.455  18.161  0.00  0.00    +0.000 A 
ATOM     31  C   UNL     1       2.107   8.701  18.045  0.00  0.00    +0.000 A 
ATOM     32  O   UNL     1       1.502   9.056  19.207  0.00  0.00    +0.000 OA
ENDBRANCH  27  28
ENDBRANCH  25  27
ENDBRANCH   5  23
TORSDOF 5
ENDMDL
MODEL 8
REMARK VINA RESULT:      -8.3      1.106      1.302
REMARK  Name = 
REMARK  8 active torsions:
REMARK  status: ('A' for Active; 'I' for Inactive)
REMARK    1  A    between atoms: C_1  and  O_2
REMARK    2  A    between atoms: O_2  and  C_3
REMARK    3  A    between atoms: C_6  and  N_7
REMARK    4  A    between atoms: C_11  and  C_12
REMARK    5  A    between atoms: N_14  and  C_15
REMARK    6  A    between atoms: C_15  and  C_16
REMARK    7  A    between atoms: C_26  and  C_27
REMARK    8  A    between atoms: C_26  and  C_28
REMARK                            x       y       z     vdW  Elec       q    Type
REMARK                         _______ _______ _______ _____ _____    ______ ____
ROOT
ATOM      1  N   UNL     1       3.012   6.310  18.633  0.00  0.00    +0.000 N 
ATOM      2  C   UNL     1       2.971   4.979  19.105  0.00  0.00    +0.000 A 
ATOM      3  C   UNL     1       3.700   4.027  18.489  0.00  0.00    +0.000 A 
ATOM      4  C   UNL     1       4.518   4.358  17.344  0.00  0.00    +0.000 A 
ATOM      5  C   UNL     1       4.574   5.603  16.843  0.00  0.00    +0.000 A 
ATOM      6  C   UNL     1       3.773   6.679  17.501  0.00  0.00    +0.000 A 
ATOM      7  O   UNL     1       3.839   7.829  17.059  0.00  0.00    +0.000 OA
ATOM      8  C   UNL     1       3.661   2.607  18.981  0.00  0.00    +0.000 C 
ATOM      9  O   UNL     1       4.249   1.713  18.377  0.00  0.00    +0.000 OA
ATOM     10  C   UNL     1       2.926   2.321  20.270  0.00  0.00    +0.000 C 
ATOM     11  C   UNL     1       1.643   3.151  20.365  0.00  0.00    +0.000 C 
ATOM     12  C   UNL     1       0.644   2.753  19.259  0.00  0.00    +0.000 C 
ATOM     13  C   UNL     1       0.967   2.910  21.726  0.00  0.00    +0.000 C 
ATOM     14  C   UNL     1       2.025   4.641  20.251  0.00  0.00    +0.000 C 
ENDROOT
BRANCH   1  18
ATOM     15  C   UNL     1       0.700   9.329  20.511  0.00  0.00    +0.000 A 
ATOM     16  C   UNL     1       0.956   9.390  19.142  0.00  0.00    +0.000 A 
ATOM     17  C   UNL     1       1.745   8.413  18.523  0.00  0.00    +0.000 A 
ATOM     18  C   UNL     1       2.280   7.365  19.278  0.00  0.00    +0.000 A 
ATOM     19  C   UNL     1       2.065   7.339  20.659  0.00  0.00    +0.000 A 
ATOM     20  C   UNL     1       1.274   8.316  21.272  0.00  0.00    +0.000 A 
BRANCH  15  22
ATOM     21  C   UNL     1      -0.866  11.035  20.040  0.00  0.00    +0.000 C 
ATOM     22  O   UNL     1      -0.093  10.329  21.005  0.00  0.00    +0.000 OA
ENDBRANCH  15  22
ENDBRANCH   1  18
BRANCH   5  23
ATOM     23  C   UNL     1       5.453   5.830  15.651  0.00  0.00    +0.000 C 
ATOM     24  O   UNL     1       5.307   6.805  14.919  0.00  0.00    +0.000 OA
ATOM     25  N   UNL     1       6.420   4.888  15.432  0.00  0.00    +0.000 N 
ATOM     26  H   UNL     1       6.431   4.046  16.009  0.00  0.00    +0.000 HD
BRANCH  25  27
ATOM     27  C   UNL     1       7.289   4.924  14.280  0.00  0.00    +0.000 C 
BRANCH  27  28
ATOM     28  C   UNL     1       6.666   4.127  13.196  0.00  0.00    +0.000 A 
ATOM     29  C   UNL     1       7.148   3.593  12.019  0.00  0.00    +0.000 A 
ATOM     30  C   UNL     1       6.060   2.922  11.409  0.00  0.00    +0.000 A 
ATOM     31  C   UNL     1       4.987   3.087  12.254  0.00  0.00    +0.000 A 
ATOM     32  O   UNL     1       5.345   3.816  13.342  0.00  0.00    +0.000 OA
ENDBRANCH  27  28
ENDBRANCH  25  27
ENDBRANCH   5  23
TORSDOF 5
ENDMDL
MODEL 9
REMARK VINA RESULT:      -8.3      4.530      8.235
REMARK  Name = 
REMARK  8 active torsions:
REMARK  status: ('A' for Active; 'I' for Inactive)
REMARK    1  A    between atoms: C_1  and  O_2
REMARK    2  A    between atoms: O_2  and  C_3
REMARK    3  A    between atoms: C_6  and  N_7
REMARK    4  A    between atoms: C_11  and  C_12
REMARK    5  A    between atoms: N_14  and  C_15
REMARK    6  A    between atoms: C_15  and  C_16
REMARK    7  A    between atoms: C_26  and  C_27
REMARK    8  A    between atoms: C_26  and  C_28
REMARK                            x       y       z     vdW  Elec       q    Type
REMARK                         _______ _______ _______ _____ _____    ______ ____
ROOT
ATOM      1  N   UNL     1       1.202  12.232  19.742  0.00  0.00    +0.000 N 
ATOM      2  C   UNL     1       0.431  11.863  20.867  0.00  0.00    +0.000 A 
ATOM      3  C   UNL     1       0.225  10.559  21.140  0.00  0.00    +0.000 A 
ATOM      4  C   UNL     1       0.782   9.536  20.284  0.00  0.00    +0.000 A 
ATOM      5  C   UNL     1       1.503   9.834  19.191  0.00  0.00    +0.000 A 
ATOM      6  C   UNL     1       1.744  11.271  18.860  0.00  0.00    +0.000 A 
ATOM      7  O   UNL     1       2.425  11.551  17.869  0.00  0.00    +0.000 OA
ATOM      8  C   UNL     1      -0.597  10.156  22.332  0.00  0.00    +0.000 C 
ATOM      9  O   UNL     1      -0.867   8.975  22.542  0.00  0.00    +0.000 OA
ATOM     10  C   UNL     1      -1.032  11.236  23.295  0.00  0.00    +0.000 C 
ATOM     11  C   UNL     1      -1.429  12.510  22.545  0.00  0.00    +0.000 C 
ATOM     12  C   UNL     1      -2.668  12.267  21.659  0.00  0.00    +0.000 C 
ATOM     13  C   UNL     1      -1.776  13.620  23.552  0.00  0.00    +0.000 C 
ATOM     14  C   UNL     1      -0.225  12.963  21.694  0.00  0.00    +0.000 C 
ENDROOT
BRANCH   1  18
ATOM     15  C   UNL     1       1.946  16.338  18.987  0.00  0.00    +0.000 A 
ATOM     16  C   UNL     1       0.750  15.753  18.573  0.00  0.00    +0.000 A 
ATOM     17  C   UNL     1       0.513  14.391  18.792  0.00  0.00    +0.000 A 
ATOM     18  C   UNL     1       1.478  13.607  19.432  0.00  0.00    +0.000 A 
ATOM     19  C   UNL     1       2.697  14.187  19.796  0.00  0.00    +0.000 A 
ATOM     20  C   UNL     1       2.928  15.549  19.577  0.00  0.00    +0.000 A 
BRANCH  15  22
ATOM     21  C   UNL     1       1.108  18.219  17.826  0.00  0.00    +0.000 C 
ATOM     22  O   UNL     1       2.064  17.678  18.732  0.00  0.00    +0.000 OA
ENDBRANCH  15  22
ENDBRANCH   1  18
BRANCH   5  23
ATOM     23  C   UNL     1       2.028   8.692  18.375  0.00  0.00    +0.000 C 
ATOM     24  O   UNL     1       2.139   8.770  17.154  0.00  0.00    +0.000 OA
ATOM     25  N   UNL     1       2.372   7.567  19.072  0.00  0.00    +0.000 N 
ATOM     26  H   UNL     1       2.163   7.520  20.070  0.00  0.00    +0.000 HD
BRANCH  25  27
ATOM     27  C   UNL     1       2.814   6.358  18.420  0.00  0.00    +0.000 C 
BRANCH  27  28
ATOM     28  C   UNL     1       2.114   5.207  19.039  0.00  0.00    +0.000 A 
ATOM     29  C   UNL     1       1.685   4.941  20.323  0.00  0.00    +0.000 A 
ATOM     30  C   UNL     1       1.068   3.667  20.284  0.00  0.00    +0.000 A 
ATOM     31  C   UNL     1       1.156   3.240  18.979  0.00  0.00    +0.000 A 
ATOM     32  O   UNL     1       1.788   4.168  18.216  0.00  0.00    +0.000 OA
ENDBRANCH  27  28
ENDBRANCH  25  27
ENDBRANCH   5  23
TORSDOF 5
ENDMDL
