MODEL 1
REMARK VINA RESULT:      -8.7      0.000      0.000
REMARK  Name = 
REMARK  8 active torsions:
REMARK  status: ('A' for Active; 'I' for Inactive)
REMARK    1  A    between atoms: C_1  and  C_2
REMARK    2  A    between atoms: N_4  and  C_5
REMARK    3  A    between atoms: C_5  and  C_6
REMARK    4  A    between atoms: C_10  and  C_11
REMARK    5  A    between atoms: N_18  and  C_19
REMARK    6  A    between atoms: C_22  and  O_23
REMARK    7  A    between atoms: O_23  and  C_24
REMARK    8  A    between atoms: C_24  and  C_25
REMARK                            x       y       z     vdW  Elec       q    Type
REMARK                         _______ _______ _______ _____ _____    ______ ____
ROOT
ATOM      1  C   UNL     1       1.477   3.996  17.721  0.00  0.00    +0.000 C 
ATOM      2  C   UNL     1       2.890   4.460  17.543  0.00  0.00    +0.000 A 
ATOM      3  N   UNL     1       3.849   3.674  17.129  0.00  0.00    +0.000 NA
ATOM      4  N   UNL     1       4.936   4.523  17.019  0.00  0.00    +0.000 N 
ATOM      5  C   UNL     1       4.577   5.823  17.354  0.00  0.00    +0.000 A 
ATOM      6  O   UNL     1       5.323   6.796  17.359  0.00  0.00    +0.000 OA
ATOM      7  N   UNL     1       3.251   5.746  17.718  0.00  0.00    +0.000 N 
ENDROOT
BRANCH   7   8
ATOM      8  C   UNL     1       2.562   6.812  18.292  0.00  0.00    +0.000 A 
ATOM      9  C   UNL     1       2.255   7.916  17.496  0.00  0.00    +0.000 A 
ATOM     10  C   UNL     1       1.693   9.056  18.061  0.00  0.00    +0.000 A 
ATOM     11  C   UNL     1       1.446   9.102  19.432  0.00  0.00    +0.000 A 
ATOM     12  C   UNL     1       1.781   8.012  20.237  0.00  0.00    +0.000 A 
ATOM     13  C   UNL     1       2.314   6.853  19.668  0.00  0.00    +0.000 A 
BRANCH  11  14
ATOM     14  O   UNL     1       0.900  10.175  20.079  0.00  0.00    +0.000 OA
BRANCH  14  15
ATOM     15  C   UNL     1       0.684  11.318  19.251  0.00  0.00    +0.000 C 
BRANCH  15  16
ATOM     16  C   UNL     1      -0.797  11.531  19.125  0.00  0.00    +0.000 A 
ATOM     17  C   UNL     1      -1.493  12.296  20.066  0.00  0.00    +0.000 A 
ATOM     18  C   UNL     1      -2.871  12.472  19.943  0.00  0.00    +0.000 A 
ATOM     19  C   UNL     1      -3.559  11.879  18.885  0.00  0.00    +0.000 A 
ATOM     20  C   UNL     1      -2.874  11.105  17.949  0.00  0.00    +0.000 A 
ATOM     21  C   UNL     1      -1.498  10.928  18.070  0.00  0.00    +0.000 A 
ENDBRANCH  15  16
ENDBRANCH  14  15
ENDBRANCH  11  14
ENDBRANCH   7   8
BRANCH   4  22
ATOM     22  C   UNL     1       6.250   4.117  16.597  0.00  0.00    +0.000 C 
BRANCH  22  23
ATOM     23  C   UNL     1       6.445   4.315  15.114  0.00  0.00    +0.000 A 
ATOM     24  C   UNL     1       7.553   5.031  14.644  0.00  0.00    +0.000 A 
ATOM     25  C   UNL     1       7.774   5.174  13.276  0.00  0.00    +0.000 A 
ATOM     26  C   UNL     1       6.898   4.587  12.360  0.00  0.00    +0.000 A 
ATOM     27  C   UNL     1       5.789   3.854  12.804  0.00  0.00    +0.000 A 
ATOM     28  C   UNL     1       5.564   3.736  14.185  0.00  0.00    +0.000 A 
BRANCH  27  29
ATOM     29  C   UNL     1       4.860   3.177  11.825  0.00  0.00    +0.000 C 
ATOM     30  F   UNL     1       3.606   2.973  12.318  0.00  0.00    +0.000 F 
ATOM     31  F   UNL     1       4.692   3.896  10.680  0.00  0.00    +0.000 F 
ATOM     32  F   UNL     1       5.309   1.951  11.436  0.00  0.00    +0.000 F 
ENDBRANCH  27  29
ENDBRANCH  22  23
ENDBRANCH   4  22
TORSDOF 7
ENDMDL
MODEL 2
REMARK VINA RESULT:      -8.6      0.822      1.598
REMARK  Name = 
REMARK  8 active torsions:
REMARK  status: ('A' for Active; 'I' for Inactive)
REMARK    1  A    between atoms: C_1  and  C_2
REMARK    2  A    between atoms: N_4  and  C_5
REMARK    3  A    between atoms: C_5  and  C_6
REMARK    4  A    between atoms: C_10  and  C_11
REMARK    5  A    between atoms: N_18  and  C_19
REMARK    6  A    between atoms: C_22  and  O_23
REMARK    7  A    between atoms: O_23  and  C_24
REMARK    8  A    between atoms: C_24  and  C_25
REMARK                            x       y       z     vdW  Elec       q    Type
REMARK                         _______ _______ _______ _____ _____    ______ ____
ROOT
ATOM      1  C   UNL     1       1.485   4.264  17.657  0.00  0.00    +0.000 C 
ATOM      2  C   UNL     1       2.934   4.592  17.463  0.00  0.00    +0.000 A 
ATOM      3  N   UNL     1       3.797   3.737  16.982  0.00  0.00    +0.000 NA
ATOM      4  N   UNL     1       4.963   4.476  16.887  0.00  0.00    +0.000 N 
ATOM      5  C   UNL     1       4.748   5.784  17.300  0.00  0.00    +0.000 A 
ATOM      6  O   UNL     1       5.590   6.675  17.335  0.00  0.00    +0.000 OA
ATOM      7  N   UNL     1       3.430   5.823  17.696  0.00  0.00    +0.000 N 
ENDROOT
BRANCH   7   8
ATOM      8  C   UNL     1       2.867   6.920  18.346  0.00  0.00    +0.000 A 
ATOM      9  C   UNL     1       2.513   6.791  19.690  0.00  0.00    +0.000 A 
ATOM     10  C   UNL     1       1.825   7.812  20.335  0.00  0.00    +0.000 A 
ATOM     11  C   UNL     1       1.474   8.966  19.634  0.00  0.00    +0.000 A 
ATOM     12  C   UNL     1       1.799   9.084  18.282  0.00  0.00    +0.000 A 
ATOM     13  C   UNL     1       2.520   8.075  17.639  0.00  0.00    +0.000 A 
BRANCH  11  14
ATOM     14  O   UNL     1       0.798  10.020  20.180  0.00  0.00    +0.000 OA
BRANCH  14  15
ATOM     15  C   UNL     1      -0.612   9.823  20.296  0.00  0.00    +0.000 C 
BRANCH  15  16
ATOM     16  C   UNL     1      -1.263  10.359  19.054  0.00  0.00    +0.000 A 
ATOM     17  C   UNL     1      -2.028   9.527  18.229  0.00  0.00    +0.000 A 
ATOM     18  C   UNL     1      -2.614  10.038  17.072  0.00  0.00    +0.000 A 
ATOM     19  C   UNL     1      -2.432  11.376  16.729  0.00  0.00    +0.000 A 
ATOM     20  C   UNL     1      -1.660  12.210  17.539  0.00  0.00    +0.000 A 
ATOM     21  C   UNL     1      -1.075  11.702  18.696  0.00  0.00    +0.000 A 
ENDBRANCH  15  16
ENDBRANCH  14  15
ENDBRANCH  11  14
ENDBRANCH   7   8
BRANCH   4  22
ATOM     22  C   UNL     1       6.219   3.962  16.406  0.00  0.00    +0.000 C 
BRANCH  22  23
ATOM     23  C   UNL     1       6.382   4.186  14.923  0.00  0.00    +0.000 A 
ATOM     24  C   UNL     1       7.505   4.868  14.440  0.00  0.00    +0.000 A 
ATOM     25  C   UNL     1       7.695   5.034  13.069  0.00  0.00    +0.000 A 
ATOM     26  C   UNL     1       6.773   4.503  12.165  0.00  0.00    +0.000 A 
ATOM     27  C   UNL     1       5.647   3.804  12.622  0.00  0.00    +0.000 A 
ATOM     28  C   UNL     1       5.454   3.663  14.007  0.00  0.00    +0.000 A 
BRANCH  27  29
ATOM     29  C   UNL     1       4.667   3.187  11.655  0.00  0.00    +0.000 C 
ATOM     30  F   UNL     1       5.071   1.978  11.170  0.00  0.00    +0.000 F 
ATOM     31  F   UNL     1       3.445   2.967  12.216  0.00  0.00    +0.000 F 
ATOM     32  F   UNL     1       4.443   3.968  10.562  0.00  0.00    +0.000 F 
ENDBRANCH  27  29
ENDBRANCH  22  23
ENDBRANCH   4  22
TORSDOF 7
ENDMDL
MODEL 3
REMARK VINA RESULT:      -8.4      5.879     10.451
REMARK  Name = 
REMARK  8 active torsions:
REMARK  status: ('A' for Active; 'I' for Inactive)
REMARK    1  A    between atoms: C_1  and  C_2
REMARK    2  A    between atoms: N_4  and  C_5
REMARK    3  A    between atoms: C_5  and  C_6
REMARK    4  A    between atoms: C_10  and  C_11
REMARK    5  A    between atoms: N_18  and  C_19
REMARK    6  A    between atoms: C_22  and  O_23
REMARK    7  A    between atoms: O_23  and  C_24
REMARK    8  A    between atoms: C_24  and  C_25
REMARK                            x       y       z     vdW  Elec       q    Type
REMARK                         _______ _______ _______ _____ _____    ______ ____
ROOT
ATOM      1  C   UNL     1      -1.642  10.494  17.769  0.00  0.00    +0.000 C 
ATOM      2  C   UNL     1      -0.963  11.456  18.696  0.00  0.00    +0.000 A 
ATOM      3  N   UNL     1      -1.430  12.651  18.946  0.00  0.00    +0.000 NA
ATOM      4  N   UNL     1      -0.561  13.141  19.905  0.00  0.00    +0.000 N 
ATOM      5  C   UNL     1       0.403  12.193  20.222  0.00  0.00    +0.000 A 
ATOM      6  O   UNL     1       1.312  12.335  21.032  0.00  0.00    +0.000 OA
ATOM      7  N   UNL     1       0.135  11.121  19.401  0.00  0.00    +0.000 N 
ENDROOT
BRANCH   7   8
ATOM      8  C   UNL     1       0.987  10.024  19.286  0.00  0.00    +0.000 A 
ATOM      9  C   UNL     1       1.660   9.824  18.080  0.00  0.00    +0.000 A 
ATOM     10  C   UNL     1       2.409   8.671  17.876  0.00  0.00    +0.000 A 
ATOM     11  C   UNL     1       2.481   7.703  18.877  0.00  0.00    +0.000 A 
ATOM     12  C   UNL     1       1.784   7.885  20.073  0.00  0.00    +0.000 A 
ATOM     13  C   UNL     1       1.057   9.057  20.294  0.00  0.00    +0.000 A 
BRANCH  11  14
ATOM     14  O   UNL     1       3.188   6.539  18.770  0.00  0.00    +0.000 OA
BRANCH  14  15
ATOM     15  C   UNL     1       2.505   5.492  18.081  0.00  0.00    +0.000 C 
BRANCH  15  16
ATOM     16  C   UNL     1       2.104   4.453  19.088  0.00  0.00    +0.000 A 
ATOM     17  C   UNL     1       1.157   3.474  18.770  0.00  0.00    +0.000 A 
ATOM     18  C   UNL     1       0.785   2.525  19.721  0.00  0.00    +0.000 A 
ATOM     19  C   UNL     1       1.350   2.556  20.995  0.00  0.00    +0.000 A 
ATOM     20  C   UNL     1       2.285   3.535  21.325  0.00  0.00    +0.000 A 
ATOM     21  C   UNL     1       2.659   4.483  20.376  0.00  0.00    +0.000 A 
ENDBRANCH  15  16
ENDBRANCH  14  15
ENDBRANCH  11  14
ENDBRANCH   7   8
BRANCH   4  22
ATOM     22  C   UNL     1      -0.658  14.446  20.503  0.00  0.00    +0.000 C 
BRANCH  22  23
ATOM     23  C   UNL     1      -0.238  15.533  19.544  0.00  0.00    +0.000 A 
ATOM     24  C   UNL     1      -1.103  16.599  19.274  0.00  0.00    +0.000 A 
ATOM     25  C   UNL     1      -0.705  17.636  18.433  0.00  0.00    +0.000 A 
ATOM     26  C   UNL     1       0.570  17.628  17.865  0.00  0.00    +0.000 A 
ATOM     27  C   UNL     1       1.462  16.578  18.130  0.00  0.00    +0.000 A 
ATOM     28  C   UNL     1       1.041  15.527  18.962  0.00  0.00    +0.000 A 
BRANCH  27  29
ATOM     29  C   UNL     1       2.859  16.580  17.560  0.00  0.00    +0.000 C 
ATOM     30  F   UNL     1       3.289  15.346  17.174  0.00  0.00    +0.000 F 
ATOM     31  F   UNL     1       2.973  17.371  16.456  0.00  0.00    +0.000 F 
ATOM     32  F   UNL     1       3.788  17.036  18.446  0.00  0.00    +0.000 F 
ENDBRANCH  27  29
ENDBRANCH  22  23
ENDBRANCH   4  22
TORSDOF 7
ENDMDL
MODEL 4
REMARK VINA RESULT:      -8.4      1.226      2.038
REMARK  Name = 
REMARK  8 active torsions:
REMARK  status: ('A' for Active; 'I' for Inactive)
REMARK    1  A    between atoms: C_1  and  C_2
REMARK    2  A    between atoms: N_4  and  C_5
REMARK    3  A    between atoms: C_5  and  C_6
REMARK    4  A    between atoms: C_10  and  C_11
REMARK    5  A    between atoms: N_18  and  C_19
REMARK    6  A    between atoms: C_22  and  O_23
REMARK    7  A    between atoms: O_23  and  C_24
REMARK    8  A    between atoms: C_24  and  C_25
REMARK                            x       y       z     vdW  Elec       q    Type
REMARK                         _______ _______ _______ _____ _____    ______ ____
ROOT
ATOM      1  C   UNL     1       1.593   4.278  17.740  0.00  0.00    +0.000 C 
ATOM      2  C   UNL     1       3.016   4.701  17.544  0.00  0.00    +0.000 A 
ATOM      3  N   UNL     1       3.947   3.888  17.118  0.00  0.00    +0.000 NA
ATOM      4  N   UNL     1       5.056   4.705  16.995  0.00  0.00    +0.000 N 
ATOM      5  C   UNL     1       4.740   6.015  17.334  0.00  0.00    +0.000 A 
ATOM      6  O   UNL     1       5.514   6.966  17.330  0.00  0.00    +0.000 OA
ATOM      7  N   UNL     1       3.417   5.976  17.715  0.00  0.00    +0.000 N 
ENDROOT
BRANCH   7   8
ATOM      8  C   UNL     1       2.766   7.061  18.298  0.00  0.00    +0.000 A 
ATOM      9  C   UNL     1       2.456   7.003  19.658  0.00  0.00    +0.000 A 
ATOM     10  C   UNL     1       1.687   8.000  20.246  0.00  0.00    +0.000 A 
ATOM     11  C   UNL     1       1.212   9.059  19.473  0.00  0.00    +0.000 A 
ATOM     12  C   UNL     1       1.493   9.104  18.107  0.00  0.00    +0.000 A 
ATOM     13  C   UNL     1       2.293   8.122  17.519  0.00  0.00    +0.000 A 
BRANCH  11  14
ATOM     14  O   UNL     1       0.449  10.083  19.960  0.00  0.00    +0.000 OA
BRANCH  14  15
ATOM     15  C   UNL     1       1.170  11.041  20.736  0.00  0.00    +0.000 C 
BRANCH  15  16
ATOM     16  C   UNL     1       0.960  12.394  20.120  0.00  0.00    +0.000 A 
ATOM     17  C   UNL     1      -0.002  12.586  19.123  0.00  0.00    +0.000 A 
ATOM     18  C   UNL     1      -0.175  13.846  18.551  0.00  0.00    +0.000 A 
ATOM     19  C   UNL     1       0.617  14.916  18.967  0.00  0.00    +0.000 A 
ATOM     20  C   UNL     1       1.587  14.730  19.952  0.00  0.00    +0.000 A 
ATOM     21  C   UNL     1       1.760  13.473  20.524  0.00  0.00    +0.000 A 
ENDBRANCH  15  16
ENDBRANCH  14  15
ENDBRANCH  11  14
ENDBRANCH   7   8
BRANCH   4  22
ATOM     22  C   UNL     1       6.353   4.261  16.555  0.00  0.00    +0.000 C 
BRANCH  22  23
ATOM     23  C   UNL     1       6.515   4.405  15.062  0.00  0.00    +0.000 A 
ATOM     24  C   UNL     1       7.612   5.101  14.542  0.00  0.00    +0.000 A 
ATOM     25  C   UNL     1       7.803   5.193  13.165  0.00  0.00    +0.000 A 
ATOM     26  C   UNL     1       6.907   4.575  12.291  0.00  0.00    +0.000 A 
ATOM     27  C   UNL     1       5.808   3.859  12.786  0.00  0.00    +0.000 A 
ATOM     28  C   UNL     1       5.613   3.792  14.176  0.00  0.00    +0.000 A 
BRANCH  27  29
ATOM     29  C   UNL     1       4.858   3.147  11.853  0.00  0.00    +0.000 C 
ATOM     30  F   UNL     1       3.614   2.965  12.381  0.00  0.00    +0.000 F 
ATOM     31  F   UNL     1       4.666   3.823  10.686  0.00  0.00    +0.000 F 
ATOM     32  F   UNL     1       5.296   1.906  11.502  0.00  0.00    +0.000 F 
ENDBRANCH  27  29
ENDBRANCH  22  23
ENDBRANCH   4  22
TORSDOF 7
ENDMDL
MODEL 5
REMARK VINA RESULT:      -8.4      1.626      2.102
REMARK  Name = 
REMARK  8 active torsions:
REMARK  status: ('A' for Active; 'I' for Inactive)
REMARK    1  A    between atoms: C_1  and  C_2
REMARK    2  A    between atoms: N_4  and  C_5
REMARK    3  A    between atoms: C_5  and  C_6
REMARK    4  A    between atoms: C_10  and  C_11
REMARK    5  A    between atoms: N_18  and  C_19
REMARK    6  A    between atoms: C_22  and  O_23
REMARK    7  A    between atoms: O_23  and  C_24
REMARK    8  A    between atoms: C_24  and  C_25
REMARK                            x       y       z     vdW  Elec       q    Type
REMARK                         _______ _______ _______ _____ _____    ______ ____
ROOT
ATOM      1  C   UNL     1       2.296   3.929  17.982  0.00  0.00    +0.000 C 
ATOM      2  C   UNL     1       3.619   4.518  17.600  0.00  0.00    +0.000 A 
ATOM      3  N   UNL     1       4.610   3.801  17.137  0.00  0.00    +0.000 NA
ATOM      4  N   UNL     1       5.575   4.744  16.832  0.00  0.00    +0.000 N 
ATOM      5  C   UNL     1       5.111   6.025  17.105  0.00  0.00    +0.000 A 
ATOM      6  O   UNL     1       5.738   7.066  16.944  0.00  0.00    +0.000 OA
ATOM      7  N   UNL     1       3.850   5.845  17.629  0.00  0.00    +0.000 N 
ENDROOT
BRANCH   7   8
ATOM      8  C   UNL     1       3.113   6.882  18.196  0.00  0.00    +0.000 A 
ATOM      9  C   UNL     1       2.726   6.774  19.533  0.00  0.00    +0.000 A 
ATOM     10  C   UNL     1       1.875   7.717  20.097  0.00  0.00    +0.000 A 
ATOM     11  C   UNL     1       1.393   8.771  19.321  0.00  0.00    +0.000 A 
ATOM     12  C   UNL     1       1.752   8.865  17.975  0.00  0.00    +0.000 A 
ATOM     13  C   UNL     1       2.634   7.938  17.414  0.00  0.00    +0.000 A 
BRANCH  11  14
ATOM     14  O   UNL     1       0.553   9.744  19.783  0.00  0.00    +0.000 OA
BRANCH  14  15
ATOM     15  C   UNL     1       1.213  10.863  20.377  0.00  0.00    +0.000 C 
BRANCH  15  16
ATOM     16  C   UNL     1       0.258  11.514  21.335  0.00  0.00    +0.000 A 
ATOM     17  C   UNL     1      -0.517  10.744  22.209  0.00  0.00    +0.000 A 
ATOM     18  C   UNL     1      -1.409  11.363  23.083  0.00  0.00    +0.000 A 
ATOM     19  C   UNL     1      -1.538  12.751  23.082  0.00  0.00    +0.000 A 
ATOM     20  C   UNL     1      -0.779  13.526  22.205  0.00  0.00    +0.000 A 
ATOM     21  C   UNL     1       0.114  12.909  21.332  0.00  0.00    +0.000 A 
ENDBRANCH  15  16
ENDBRANCH  14  15
ENDBRANCH  11  14
ENDBRANCH   7   8
BRANCH   4  22
ATOM     22  C   UNL     1       6.872   4.439  16.289  0.00  0.00    +0.000 C 
BRANCH  22  23
ATOM     23  C   UNL     1       6.878   4.516  14.782  0.00  0.00    +0.000 A 
ATOM     24  C   UNL     1       7.928   5.162  14.120  0.00  0.00    +0.000 A 
ATOM     25  C   UNL     1       7.973   5.193  12.727  0.00  0.00    +0.000 A 
ATOM     26  C   UNL     1       6.976   4.562  11.980  0.00  0.00    +0.000 A 
ATOM     27  C   UNL     1       5.921   3.896  12.619  0.00  0.00    +0.000 A 
ATOM     28  C   UNL     1       5.874   3.891  14.023  0.00  0.00    +0.000 A 
BRANCH  27  29
ATOM     29  C   UNL     1       4.862   3.171  11.823  0.00  0.00    +0.000 C 
ATOM     30  F   UNL     1       4.539   3.794  10.655  0.00  0.00    +0.000 F 
ATOM     31  F   UNL     1       5.242   1.910  11.475  0.00  0.00    +0.000 F 
ATOM     32  F   UNL     1       3.692   3.035  12.506  0.00  0.00    +0.000 F 
ENDBRANCH  27  29
ENDBRANCH  22  23
ENDBRANCH   4  22
TORSDOF 7
ENDMDL
MODEL 6
REMARK VINA RESULT:      -8.2      5.098     10.333
REMARK  Name = 
REMARK  8 active torsions:
REMARK  status: ('A' for Active; 'I' for Inactive)
REMARK    1  A    between atoms: C_1  and  C_2
REMARK    2  A    between atoms: N_4  and  C_5
REMARK    3  A    between atoms: C_5  and  C_6
REMARK    4  A    between atoms: C_10  and  C_11
REMARK    5  A    between atoms: N_18  and  C_19
REMARK    6  A    between atoms: C_22  and  O_23
REMARK    7  A    between atoms: O_23  and  C_24
REMARK    8  A    between atoms: C_24  and  C_25
REMARK                            x       y       z     vdW  Elec       q    Type
REMARK                         _______ _______ _______ _____ _____    ______ ____
ROOT
ATOM      1  C   UNL     1       1.771   6.897  21.073  0.00  0.00    +0.000 C 
ATOM      2  C   UNL     1       1.504   8.008  20.104  0.00  0.00    +0.000 A 
ATOM      3  N   UNL     1       0.756   9.040  20.396  0.00  0.00    +0.000 NA
ATOM      4  N   UNL     1       0.862   9.841  19.273  0.00  0.00    +0.000 N 
ATOM      5  C   UNL     1       1.709   9.261  18.336  0.00  0.00    +0.000 A 
ATOM      6  O   UNL     1       1.996   9.729  17.240  0.00  0.00    +0.000 OA
ATOM      7  N   UNL     1       2.086   8.059  18.891  0.00  0.00    +0.000 N 
ENDROOT
BRANCH   7   8
ATOM      8  C   UNL     1       2.799   7.092  18.185  0.00  0.00    +0.000 A 
ATOM      9  C   UNL     1       2.309   5.785  18.161  0.00  0.00    +0.000 A 
ATOM     10  C   UNL     1       3.058   4.764  17.588  0.00  0.00    +0.000 A 
ATOM     11  C   UNL     1       4.312   5.043  17.044  0.00  0.00    +0.000 A 
ATOM     12  C   UNL     1       4.819   6.342  17.095  0.00  0.00    +0.000 A 
ATOM     13  C   UNL     1       4.055   7.377  17.640  0.00  0.00    +0.000 A 
BRANCH  11  14
ATOM     14  O   UNL     1       5.121   4.109  16.462  0.00  0.00    +0.000 OA
BRANCH  14  15
ATOM     15  C   UNL     1       6.431   4.579  16.140  0.00  0.00    +0.000 C 
BRANCH  15  16
ATOM     16  C   UNL     1       6.620   4.455  14.655  0.00  0.00    +0.000 A 
ATOM     17  C   UNL     1       5.878   3.530  13.913  0.00  0.00    +0.000 A 
ATOM     18  C   UNL     1       6.075   3.418  12.538  0.00  0.00    +0.000 A 
ATOM     19  C   UNL     1       7.019   4.222  11.900  0.00  0.00    +0.000 A 
ATOM     20  C   UNL     1       7.772   5.137  12.634  0.00  0.00    +0.000 A 
ATOM     21  C   UNL     1       7.576   5.252  14.008  0.00  0.00    +0.000 A 
ENDBRANCH  15  16
ENDBRANCH  14  15
ENDBRANCH  11  14
ENDBRANCH   7   8
BRANCH   4  22
ATOM     22  C   UNL     1       0.202  11.109  19.109  0.00  0.00    +0.000 C 
BRANCH  22  23
ATOM     23  C   UNL     1      -1.188  10.946  18.546  0.00  0.00    +0.000 A 
ATOM     24  C   UNL     1      -1.431   9.995  17.549  0.00  0.00    +0.000 A 
ATOM     25  C   UNL     1      -2.721   9.796  17.060  0.00  0.00    +0.000 A 
ATOM     26  C   UNL     1      -3.787  10.536  17.576  0.00  0.00    +0.000 A 
ATOM     27  C   UNL     1      -3.573  11.486  18.585  0.00  0.00    +0.000 A 
ATOM     28  C   UNL     1      -2.265  11.693  19.054  0.00  0.00    +0.000 A 
BRANCH  27  29
ATOM     29  C   UNL     1      -4.723  12.259  19.183  0.00  0.00    +0.000 C 
ATOM     30  F   UNL     1      -4.327  13.305  19.962  0.00  0.00    +0.000 F 
ATOM     31  F   UNL     1      -5.541  12.796  18.235  0.00  0.00    +0.000 F 
ATOM     32  F   UNL     1      -5.521  11.489  19.974  0.00  0.00    +0.000 F 
ENDBRANCH  27  29
ENDBRANCH  22  23
ENDBRANCH   4  22
TORSDOF 7
ENDMDL
MODEL 7
REMARK VINA RESULT:      -8.2      4.169      6.164
REMARK  Name = 
REMARK  8 active torsions:
REMARK  status: ('A' for Active; 'I' for Inactive)
REMARK    1  A    between atoms: C_1  and  C_2
REMARK    2  A    between atoms: N_4  and  C_5
REMARK    3  A    between atoms: C_5  and  C_6
REMARK    4  A    between atoms: C_10  and  C_11
REMARK    5  A    between atoms: N_18  and  C_19
REMARK    6  A    between atoms: C_22  and  O_23
REMARK    7  A    between atoms: O_23  and  C_24
REMARK    8  A    between atoms: C_24  and  C_25
REMARK                            x       y       z     vdW  Elec       q    Type
REMARK                         _______ _______ _______ _____ _____    ______ ____
ROOT
ATOM      1  C   UNL     1       0.416   8.479  21.458  0.00  0.00    +0.000 C 
ATOM      2  C   UNL     1       1.252   8.534  20.216  0.00  0.00    +0.000 A 
ATOM      3  N   UNL     1       2.048   7.563  19.853  0.00  0.00    +0.000 NA
ATOM      4  N   UNL     1       2.535   7.987  18.629  0.00  0.00    +0.000 N 
ATOM      5  C   UNL     1       1.983   9.213  18.281  0.00  0.00    +0.000 A 
ATOM      6  O   UNL     1       2.223   9.846  17.259  0.00  0.00    +0.000 OA
ATOM      7  N   UNL     1       1.177   9.557  19.344  0.00  0.00    +0.000 N 
ENDROOT
BRANCH   7   8
ATOM      8  C   UNL     1       0.577  10.809  19.463  0.00  0.00    +0.000 A 
ATOM      9  C   UNL     1      -0.585  11.066  18.734  0.00  0.00    +0.000 A 
ATOM     10  C   UNL     1      -1.136  12.342  18.717  0.00  0.00    +0.000 A 
ATOM     11  C   UNL     1      -0.518  13.376  19.420  0.00  0.00    +0.000 A 
ATOM     12  C   UNL     1       0.662  13.131  20.124  0.00  0.00    +0.000 A 
ATOM     13  C   UNL     1       1.200  11.842  20.171  0.00  0.00    +0.000 A 
BRANCH  11  14
ATOM     14  O   UNL     1      -0.982  14.660  19.462  0.00  0.00    +0.000 OA
BRANCH  14  15
ATOM     15  C   UNL     1      -0.028  15.619  19.922  0.00  0.00    +0.000 C 
BRANCH  15  16
ATOM     16  C   UNL     1       0.239  16.585  18.804  0.00  0.00    +0.000 A 
ATOM     17  C   UNL     1      -0.809  17.291  18.202  0.00  0.00    +0.000 A 
ATOM     18  C   UNL     1      -0.546  18.174  17.156  0.00  0.00    +0.000 A 
ATOM     19  C   UNL     1       0.760  18.350  16.702  0.00  0.00    +0.000 A 
ATOM     20  C   UNL     1       1.808  17.642  17.288  0.00  0.00    +0.000 A 
ATOM     21  C   UNL     1       1.548  16.759  18.334  0.00  0.00    +0.000 A 
ENDBRANCH  15  16
ENDBRANCH  14  15
ENDBRANCH  11  14
ENDBRANCH   7   8
BRANCH   4  22
ATOM     22  C   UNL     1       3.469   7.248  17.821  0.00  0.00    +0.000 C 
BRANCH  22  23
ATOM     23  C   UNL     1       3.208   5.763  17.884  0.00  0.00    +0.000 A 
ATOM     24  C   UNL     1       3.998   4.883  17.137  0.00  0.00    +0.000 A 
ATOM     25  C   UNL     1       3.803   3.506  17.228  0.00  0.00    +0.000 A 
ATOM     26  C   UNL     1       2.825   2.993  18.082  0.00  0.00    +0.000 A 
ATOM     27  C   UNL     1       2.028   3.852  18.852  0.00  0.00    +0.000 A 
ATOM     28  C   UNL     1       2.219   5.239  18.734  0.00  0.00    +0.000 A 
BRANCH  27  29
ATOM     29  C   UNL     1       0.999   3.308  19.812  0.00  0.00    +0.000 C 
ATOM     30  F   UNL     1       0.086   2.486  19.222  0.00  0.00    +0.000 F 
ATOM     31  F   UNL     1       1.556   2.577  20.817  0.00  0.00    +0.000 F 
ATOM     32  F   UNL     1       0.275   4.290  20.419  0.00  0.00    +0.000 F 
ENDBRANCH  27  29
ENDBRANCH  22  23
ENDBRANCH   4  22
TORSDOF 7
ENDMDL
MODEL 8
REMARK VINA RESULT:      -8.2      3.789      5.658
REMARK  Name = 
REMARK  8 active torsions:
REMARK  status: ('A' for Active; 'I' for Inactive)
REMARK    1  A    between atoms: C_1  and  C_2
REMARK    2  A    between atoms: N_4  and  C_5
REMARK    3  A    between atoms: C_5  and  C_6
REMARK    4  A    between atoms: C_10  and  C_11
REMARK    5  A    between atoms: N_18  and  C_19
REMARK    6  A    between atoms: C_22  and  O_23
REMARK    7  A    between atoms: O_23  and  C_24
REMARK    8  A    between atoms: C_24  and  C_25
REMARK                            x       y       z     vdW  Elec       q    Type
REMARK                         _______ _______ _______ _____ _____    ______ ____
ROOT
ATOM      1  C   UNL     1       0.746   8.133  21.621  0.00  0.00    +0.000 C 
ATOM      2  C   UNL     1       1.458   8.197  20.304  0.00  0.00    +0.000 A 
ATOM      3  N   UNL     1       2.348   7.314  19.935  0.00  0.00    +0.000 NA
ATOM      4  N   UNL     1       2.665   7.698  18.644  0.00  0.00    +0.000 N 
ATOM      5  C   UNL     1       1.919   8.807  18.266  0.00  0.00    +0.000 A 
ATOM      6  O   UNL     1       1.981   9.381  17.184  0.00  0.00    +0.000 OA
ATOM      7  N   UNL     1       1.166   9.127  19.374  0.00  0.00    +0.000 N 
ENDROOT
BRANCH   7   8
ATOM      8  C   UNL     1       0.410  10.293  19.462  0.00  0.00    +0.000 A 
ATOM      9  C   UNL     1       0.965  11.403  20.103  0.00  0.00    +0.000 A 
ATOM     10  C   UNL     1       0.195  12.537  20.335  0.00  0.00    +0.000 A 
ATOM     11  C   UNL     1      -1.141  12.564  19.938  0.00  0.00    +0.000 A 
ATOM     12  C   UNL     1      -1.708  11.445  19.326  0.00  0.00    +0.000 A 
ATOM     13  C   UNL     1      -0.930  10.316  19.061  0.00  0.00    +0.000 A 
BRANCH  11  14
ATOM     14  O   UNL     1      -1.976  13.630  20.123  0.00  0.00    +0.000 OA
BRANCH  14  15
ATOM     15  C   UNL     1      -3.264  13.290  20.636  0.00  0.00    +0.000 C 
BRANCH  15  16
ATOM     16  C   UNL     1      -3.280  13.607  22.104  0.00  0.00    +0.000 A 
ATOM     17  C   UNL     1      -2.577  14.706  22.608  0.00  0.00    +0.000 A 
ATOM     18  C   UNL     1      -2.590  14.978  23.975  0.00  0.00    +0.000 A 
ATOM     19  C   UNL     1      -3.298  14.149  24.845  0.00  0.00    +0.000 A 
ATOM     20  C   UNL     1      -3.992  13.044  24.353  0.00  0.00    +0.000 A 
ATOM     21  C   UNL     1      -3.980  12.772  22.987  0.00  0.00    +0.000 A 
ENDBRANCH  15  16
ENDBRANCH  14  15
ENDBRANCH  11  14
ENDBRANCH   7   8
BRANCH   4  22
ATOM     22  C   UNL     1       3.621   7.026  17.804  0.00  0.00    +0.000 C 
BRANCH  22  23
ATOM     23  C   UNL     1       3.399   5.534  17.788  0.00  0.00    +0.000 A 
ATOM     24  C   UNL     1       4.284   4.703  17.093  0.00  0.00    +0.000 A 
ATOM     25  C   UNL     1       4.121   3.319  17.116  0.00  0.00    +0.000 A 
ATOM     26  C   UNL     1       3.079   2.749  17.849  0.00  0.00    +0.000 A 
ATOM     27  C   UNL     1       2.185   3.558  18.566  0.00  0.00    +0.000 A 
ATOM     28  C   UNL     1       2.347   4.953  18.517  0.00  0.00    +0.000 A 
BRANCH  27  29
ATOM     29  C   UNL     1       1.082   2.952  19.399  0.00  0.00    +0.000 C 
ATOM     30  F   UNL     1       0.384   3.871  20.126  0.00  0.00    +0.000 F 
ATOM     31  F   UNL     1       0.155   2.299  18.645  0.00  0.00    +0.000 F 
ATOM     32  F   UNL     1       1.544   2.041  20.300  0.00  0.00    +0.000 F 
ENDBRANCH  27  29
ENDBRANCH  22  23
ENDBRANCH   4  22
TORSDOF 7
ENDMDL
MODEL 9
REMARK VINA RESULT:      -8.2      5.439     10.491
REMARK  Name = 
REMARK  8 active torsions:
REMARK  status: ('A' for Active; 'I' for Inactive)
REMARK    1  A    between atoms: C_1  and  C_2
REMARK    2  A    between atoms: N_4  and  C_5
REMARK    3  A    between atoms: C_5  and  C_6
REMARK    4  A    between atoms: C_10  and  C_11
REMARK    5  A    between atoms: N_18  and  C_19
REMARK    6  A    between atoms: C_22  and  O_23
REMARK    7  A    between atoms: O_23  and  C_24
REMARK    8  A    between atoms: C_24  and  C_25
REMARK                            x       y       z     vdW  Elec       q    Type
REMARK                         _______ _______ _______ _____ _____    ______ ____
ROOT
ATOM      1  C   UNL     1      -1.459  10.100  17.730  0.00  0.00    +0.000 C 
ATOM      2  C   UNL     1      -0.824  11.058  18.691  0.00  0.00    +0.000 A 
ATOM      3  N   UNL     1      -1.281  12.266  18.896  0.00  0.00    +0.000 NA
ATOM      4  N   UNL     1      -0.470  12.750  19.906  0.00  0.00    +0.000 N 
ATOM      5  C   UNL     1       0.450  11.786  20.299  0.00  0.00    +0.000 A 
ATOM      6  O   UNL     1       1.304  11.919  21.168  0.00  0.00    +0.000 OA
ATOM      7  N   UNL     1       0.215  10.709  19.473  0.00  0.00    +0.000 N 
ENDROOT
BRANCH   7   8
ATOM      8  C   UNL     1       1.050   9.594  19.429  0.00  0.00    +0.000 A 
ATOM      9  C   UNL     1       1.724   9.311  18.239  0.00  0.00    +0.000 A 
ATOM     10  C   UNL     1       2.454   8.136  18.109  0.00  0.00    +0.000 A 
ATOM     11  C   UNL     1       2.506   7.228  19.167  0.00  0.00    +0.000 A 
ATOM     12  C   UNL     1       1.808   7.493  20.347  0.00  0.00    +0.000 A 
ATOM     13  C   UNL     1       1.100   8.689  20.493  0.00  0.00    +0.000 A 
BRANCH  11  14
ATOM     14  O   UNL     1       3.195   6.049  19.135  0.00  0.00    +0.000 OA
BRANCH  14  15
ATOM     15  C   UNL     1       3.236   5.423  17.852  0.00  0.00    +0.000 C 
BRANCH  15  16
ATOM     16  C   UNL     1       4.671   5.126  17.522  0.00  0.00    +0.000 A 
ATOM     17  C   UNL     1       5.022   4.561  16.292  0.00  0.00    +0.000 A 
ATOM     18  C   UNL     1       6.357   4.279  16.007  0.00  0.00    +0.000 A 
ATOM     19  C   UNL     1       7.345   4.552  16.952  0.00  0.00    +0.000 A 
ATOM     20  C   UNL     1       7.003   5.104  18.186  0.00  0.00    +0.000 A 
ATOM     21  C   UNL     1       5.670   5.388  18.472  0.00  0.00    +0.000 A 
ENDBRANCH  15  16
ENDBRANCH  14  15
ENDBRANCH  11  14
ENDBRANCH   7   8
BRANCH   4  22
ATOM     22  C   UNL     1      -0.579  14.064  20.483  0.00  0.00    +0.000 C 
BRANCH  22  23
ATOM     23  C   UNL     1       0.005  15.121  19.578  0.00  0.00    +0.000 A 
ATOM     24  C   UNL     1      -0.743  16.260  19.260  0.00  0.00    +0.000 A 
ATOM     25  C   UNL     1      -0.194  17.269  18.471  0.00  0.00    +0.000 A 
ATOM     26  C   UNL     1       1.117  17.157  18.003  0.00  0.00    +0.000 A 
ATOM     27  C   UNL     1       1.893  16.032  18.318  0.00  0.00    +0.000 A 
ATOM     28  C   UNL     1       1.321  15.012  19.096  0.00  0.00    +0.000 A 
BRANCH  27  29
ATOM     29  C   UNL     1       3.326  15.920  17.858  0.00  0.00    +0.000 C 
ATOM     30  F   UNL     1       4.137  16.890  18.368  0.00  0.00    +0.000 F 
ATOM     31  F   UNL     1       3.899  14.737  18.214  0.00  0.00    +0.000 F 
ATOM     32  F   UNL     1       3.452  16.007  16.504  0.00  0.00    +0.000 F 
ENDBRANCH  27  29
ENDBRANCH  22  23
ENDBRANCH   4  22
TORSDOF 7
ENDMDL
