MODEL 1
REMARK VINA RESULT:      -7.0      0.000      0.000
REMARK  Name = 
REMARK  20 active torsions:
REMARK  status: ('A' for Active; 'I' for Inactive)
REMARK    1  A    between atoms: C_1  and  C_2
REMARK    2  A    between atoms: C_2  and  C_3
REMARK    3  A    between atoms: C_3  and  C_4
REMARK    4  A    between atoms: C_4  and  C_5
REMARK    5  A    between atoms: C_5  and  C_6
REMARK    6  A    between atoms: C_6  and  C_7
REMARK    7  A    between atoms: C_7  and  C_8
REMARK    8  A    between atoms: C_8  and  C_9
REMARK    9  A    between atoms: C_9  and  C_10
REMARK   10  A    between atoms: C_10  and  C_11
REMARK   11  A    between atoms: C_11  and  C_12
REMARK   12  A    between atoms: C_12  and  C_13
REMARK   13  A    between atoms: C_13  and  C_14
REMARK   14  A    between atoms: C_14  and  C_15
REMARK   15  A    between atoms: C_15  and  C_16
REMARK   16  A    between atoms: C_16  and  C_19
REMARK   17  A    between atoms: N_17  and  O_18
REMARK   18  A    between atoms: C_21  and  C_22
REMARK   19  A    between atoms: C_25  and  O_26
REMARK   20  A    between atoms: C_31  and  O_32
REMARK                            x       y       z     vdW  Elec       q    Type
REMARK                         _______ _______ _______ _____ _____    ______ ____
ROOT
ATOM      1  C   UNL     1       6.235   5.303  16.640  0.00  0.00    +0.000 C 
ATOM      2  N   UNL     1       6.319   5.549  15.356  0.00  0.00    +0.000 NA
ENDROOT
BRANCH   1   3
ATOM      3  C   UNL     1       4.850   5.162  17.238  0.00  0.00    +0.000 A 
ATOM      4  C   UNL     1       4.215   6.357  17.648  0.00  0.00    +0.000 A 
ATOM      5  C   UNL     1       2.914   6.386  18.198  0.00  0.00    +0.000 A 
ATOM      6  C   UNL     1       2.253   5.154  18.324  0.00  0.00    +0.000 A 
ATOM      7  C   UNL     1       2.866   3.957  17.947  0.00  0.00    +0.000 A 
ATOM      8  C   UNL     1       4.156   3.960  17.412  0.00  0.00    +0.000 A 
BRANCH   5   9
ATOM      9  C   UNL     1       2.271   7.653  18.635  0.00  0.00    +0.000 A 
ATOM     10  C   UNL     1       1.794   7.827  19.948  0.00  0.00    +0.000 A 
ATOM     11  C   UNL     1       1.162   9.012  20.354  0.00  0.00    +0.000 A 
ATOM     12  C   UNL     1       1.015  10.053  19.450  0.00  0.00    +0.000 A 
ATOM     13  C   UNL     1       1.487   9.927  18.153  0.00  0.00    +0.000 A 
ATOM     14  C   UNL     1       2.103   8.736  17.748  0.00  0.00    +0.000 A 
BRANCH  12  15
ATOM     15  O   UNL     1       0.408  11.225  19.793  0.00  0.00    +0.000 OA
ATOM     16  H   UNL     1      -0.543  11.067  19.909  0.00  0.00    +0.000 HD
ENDBRANCH  12  15
ENDBRANCH   5   9
BRANCH   8  17
ATOM     17  O   UNL     1       4.708   2.750  17.108  0.00  0.00    +0.000 OA
ATOM     18  H   UNL     1       5.100   2.356  17.906  0.00  0.00    +0.000 HD
ENDBRANCH   8  17
ENDBRANCH   1   3
BRANCH   2  19
ATOM     19  O   UNL     1       7.637   5.577  14.897  0.00  0.00    +0.000 OA
ATOM     20  H   UNL     1       8.002   6.353  15.362  0.00  0.00    +0.000 HD
ENDBRANCH   2  19
BRANCH   1  21
ATOM     21  C   UNL     1       7.466   5.054  17.510  0.00  0.00    +0.000 C 
BRANCH  21  22
ATOM     22  C   UNL     1       7.673   6.215  18.478  0.00  0.00    +0.000 C 
BRANCH  22  23
ATOM     23  C   UNL     1       7.706   7.553  17.742  0.00  0.00    +0.000 C 
BRANCH  23  24
ATOM     24  C   UNL     1       8.556   8.560  18.506  0.00  0.00    +0.000 C 
BRANCH  24  25
ATOM     25  C   UNL     1       8.419   9.966  17.925  0.00  0.00    +0.000 C 
BRANCH  25  26
ATOM     26  C   UNL     1       9.383  10.921  18.622  0.00  0.00    +0.000 C 
BRANCH  26  27
ATOM     27  C   UNL     1       9.491  10.593  20.106  0.00  0.00    +0.000 C 
BRANCH  27  28
ATOM     28  C   UNL     1       9.633  11.868  20.929  0.00  0.00    +0.000 C 
BRANCH  28  29
ATOM     29  C   UNL     1       9.841  13.069  20.014  0.00  0.00    +0.000 C 
BRANCH  29  30
ATOM     30  C   UNL     1       9.333  14.345  20.675  0.00  0.00    +0.000 C 
BRANCH  30  31
ATOM     31  C   UNL     1       7.941  14.124  21.260  0.00  0.00    +0.000 C 
BRANCH  31  32
ATOM     32  C   UNL     1       7.045  15.330  20.995  0.00  0.00    +0.000 C 
BRANCH  32  33
ATOM     33  C   UNL     1       7.878  16.602  20.874  0.00  0.00    +0.000 C 
BRANCH  33  35
ATOM     34  C   UNL     1       6.400  17.050  18.895  0.00  0.00    +0.000 C 
ATOM     35  C   UNL     1       7.136  17.668  20.071  0.00  0.00    +0.000 C 
ENDBRANCH  33  35
ENDBRANCH  32  33
ENDBRANCH  31  32
ENDBRANCH  30  31
ENDBRANCH  29  30
ENDBRANCH  28  29
ENDBRANCH  27  28
ENDBRANCH  26  27
ENDBRANCH  25  26
ENDBRANCH  24  25
ENDBRANCH  23  24
ENDBRANCH  22  23
ENDBRANCH  21  22
ENDBRANCH   1  21
TORSDOF 19
ENDMDL
MODEL 2
REMARK VINA RESULT:      -6.6      4.084     10.034
REMARK  Name = 
REMARK  20 active torsions:
REMARK  status: ('A' for Active; 'I' for Inactive)
REMARK    1  A    between atoms: C_1  and  C_2
REMARK    2  A    between atoms: C_2  and  C_3
REMARK    3  A    between atoms: C_3  and  C_4
REMARK    4  A    between atoms: C_4  and  C_5
REMARK    5  A    between atoms: C_5  and  C_6
REMARK    6  A    between atoms: C_6  and  C_7
REMARK    7  A    between atoms: C_7  and  C_8
REMARK    8  A    between atoms: C_8  and  C_9
REMARK    9  A    between atoms: C_9  and  C_10
REMARK   10  A    between atoms: C_10  and  C_11
REMARK   11  A    between atoms: C_11  and  C_12
REMARK   12  A    between atoms: C_12  and  C_13
REMARK   13  A    between atoms: C_13  and  C_14
REMARK   14  A    between atoms: C_14  and  C_15
REMARK   15  A    between atoms: C_15  and  C_16
REMARK   16  A    between atoms: C_16  and  C_19
REMARK   17  A    between atoms: N_17  and  O_18
REMARK   18  A    between atoms: C_21  and  C_22
REMARK   19  A    between atoms: C_25  and  O_26
REMARK   20  A    between atoms: C_31  and  O_32
REMARK                            x       y       z     vdW  Elec       q    Type
REMARK                         _______ _______ _______ _____ _____    ______ ____
ROOT
ATOM      1  C   UNL     1      10.259  11.966  18.918  0.00  0.00    +0.000 C 
ATOM      2  N   UNL     1      11.542  12.185  19.069  0.00  0.00    +0.000 NA
ENDROOT
BRANCH   1   3
ATOM      3  C   UNL     1       9.299  12.892  19.635  0.00  0.00    +0.000 A 
ATOM      4  C   UNL     1       9.107  12.657  21.016  0.00  0.00    +0.000 A 
ATOM      5  C   UNL     1       8.264  13.454  21.821  0.00  0.00    +0.000 A 
ATOM      6  C   UNL     1       7.608  14.521  21.188  0.00  0.00    +0.000 A 
ATOM      7  C   UNL     1       7.763  14.763  19.822  0.00  0.00    +0.000 A 
ATOM      8  C   UNL     1       8.599  13.953  19.049  0.00  0.00    +0.000 A 
BRANCH   5   9
ATOM      9  C   UNL     1       8.066  13.178  23.269  0.00  0.00    +0.000 A 
ATOM     10  C   UNL     1       8.408  14.122  24.256  0.00  0.00    +0.000 A 
ATOM     11  C   UNL     1       8.248  13.854  25.623  0.00  0.00    +0.000 A 
ATOM     12  C   UNL     1       7.722  12.634  26.023  0.00  0.00    +0.000 A 
ATOM     13  C   UNL     1       7.356  11.685  25.081  0.00  0.00    +0.000 A 
ATOM     14  C   UNL     1       7.533  11.952  23.718  0.00  0.00    +0.000 A 
BRANCH  12  15
ATOM     15  O   UNL     1       7.546  12.322  27.339  0.00  0.00    +0.000 OA
ATOM     16  H   UNL     1       7.629  11.361  27.451  0.00  0.00    +0.000 HD
ENDBRANCH  12  15
ENDBRANCH   5   9
BRANCH   8  17
ATOM     17  O   UNL     1       8.668  14.221  17.713  0.00  0.00    +0.000 OA
ATOM     18  H   UNL     1       8.554  15.174  17.561  0.00  0.00    +0.000 HD
ENDBRANCH   8  17
ENDBRANCH   1   3
BRANCH   2  19
ATOM     19  O   UNL     1      12.330  11.327  18.300  0.00  0.00    +0.000 OA
ATOM     20  H   UNL     1      12.364  10.525  18.854  0.00  0.00    +0.000 HD
ENDBRANCH   2  19
BRANCH   1  21
ATOM     21  C   UNL     1       9.716  10.893  17.974  0.00  0.00    +0.000 C 
BRANCH  21  22
ATOM     22  C   UNL     1       8.936   9.844  18.760  0.00  0.00    +0.000 C 
BRANCH  22  23
ATOM     23  C   UNL     1       8.176   8.903  17.827  0.00  0.00    +0.000 C 
BRANCH  23  24
ATOM     24  C   UNL     1       8.267   7.468  18.330  0.00  0.00    +0.000 C 
BRANCH  24  25
ATOM     25  C   UNL     1       7.002   6.677  18.003  0.00  0.00    +0.000 C 
BRANCH  25  26
ATOM     26  C   UNL     1       7.047   6.182  16.561  0.00  0.00    +0.000 C 
BRANCH  26  27
ATOM     27  C   UNL     1       5.692   5.634  16.134  0.00  0.00    +0.000 C 
BRANCH  27  28
ATOM     28  C   UNL     1       4.567   6.335  16.885  0.00  0.00    +0.000 C 
BRANCH  28  29
ATOM     29  C   UNL     1       3.626   5.311  17.508  0.00  0.00    +0.000 C 
BRANCH  29  30
ATOM     30  C   UNL     1       3.842   3.934  16.891  0.00  0.00    +0.000 C 
BRANCH  30  31
ATOM     31  C   UNL     1       3.629   2.843  17.936  0.00  0.00    +0.000 C 
BRANCH  31  32
ATOM     32  C   UNL     1       2.169   2.400  17.966  0.00  0.00    +0.000 C 
BRANCH  32  33
ATOM     33  C   UNL     1       1.499   2.846  19.262  0.00  0.00    +0.000 C 
BRANCH  33  35
ATOM     34  C   UNL     1       1.688   2.703  21.761  0.00  0.00    +0.000 C 
ATOM     35  C   UNL     1       2.450   2.703  20.447  0.00  0.00    +0.000 C 
ENDBRANCH  33  35
ENDBRANCH  32  33
ENDBRANCH  31  32
ENDBRANCH  30  31
ENDBRANCH  29  30
ENDBRANCH  28  29
ENDBRANCH  27  28
ENDBRANCH  26  27
ENDBRANCH  25  26
ENDBRANCH  24  25
ENDBRANCH  23  24
ENDBRANCH  22  23
ENDBRANCH  21  22
ENDBRANCH   1  21
TORSDOF 19
ENDMDL
MODEL 3
REMARK VINA RESULT:      -6.6      1.830      2.335
REMARK  Name = 
REMARK  20 active torsions:
REMARK  status: ('A' for Active; 'I' for Inactive)
REMARK    1  A    between atoms: C_1  and  C_2
REMARK    2  A    between atoms: C_2  and  C_3
REMARK    3  A    between atoms: C_3  and  C_4
REMARK    4  A    between atoms: C_4  and  C_5
REMARK    5  A    between atoms: C_5  and  C_6
REMARK    6  A    between atoms: C_6  and  C_7
REMARK    7  A    between atoms: C_7  and  C_8
REMARK    8  A    between atoms: C_8  and  C_9
REMARK    9  A    between atoms: C_9  and  C_10
REMARK   10  A    between atoms: C_10  and  C_11
REMARK   11  A    between atoms: C_11  and  C_12
REMARK   12  A    between atoms: C_12  and  C_13
REMARK   13  A    between atoms: C_13  and  C_14
REMARK   14  A    between atoms: C_14  and  C_15
REMARK   15  A    between atoms: C_15  and  C_16
REMARK   16  A    between atoms: C_16  and  C_19
REMARK   17  A    between atoms: N_17  and  O_18
REMARK   18  A    between atoms: C_21  and  C_22
REMARK   19  A    between atoms: C_25  and  O_26
REMARK   20  A    between atoms: C_31  and  O_32
REMARK                            x       y       z     vdW  Elec       q    Type
REMARK                         _______ _______ _______ _____ _____    ______ ____
ROOT
ATOM      1  C   UNL     1       6.512   5.391  18.856  0.00  0.00    +0.000 C 
ATOM      2  N   UNL     1       6.867   5.066  20.074  0.00  0.00    +0.000 NA
ENDROOT
BRANCH   1   3
ATOM      3  C   UNL     1       5.037   5.330  18.515  0.00  0.00    +0.000 A 
ATOM      4  C   UNL     1       4.273   6.483  18.807  0.00  0.00    +0.000 A 
ATOM      5  C   UNL     1       2.894   6.584  18.521  0.00  0.00    +0.000 A 
ATOM      6  C   UNL     1       2.290   5.470  17.916  0.00  0.00    +0.000 A 
ATOM      7  C   UNL     1       3.016   4.311  17.637  0.00  0.00    +0.000 A 
ATOM      8  C   UNL     1       4.379   4.239  17.938  0.00  0.00    +0.000 A 
BRANCH   5   9
ATOM      9  C   UNL     1       2.108   7.803  18.850  0.00  0.00    +0.000 A 
ATOM     10  C   UNL     1       1.772   8.755  17.868  0.00  0.00    +0.000 A 
ATOM     11  C   UNL     1       1.054   9.919  18.181  0.00  0.00    +0.000 A 
ATOM     12  C   UNL     1       0.643  10.137  19.488  0.00  0.00    +0.000 A 
ATOM     13  C   UNL     1       0.939   9.215  20.480  0.00  0.00    +0.000 A 
ATOM     14  C   UNL     1       1.669   8.063  20.165  0.00  0.00    +0.000 A 
BRANCH  12  15
ATOM     15  O   UNL     1      -0.056  11.252  19.846  0.00  0.00    +0.000 OA
ATOM     16  H   UNL     1      -0.879  10.983  20.284  0.00  0.00    +0.000 HD
ENDBRANCH  12  15
ENDBRANCH   5   9
BRANCH   8  17
ATOM     17  O   UNL     1       5.013   3.059  17.679  0.00  0.00    +0.000 OA
ATOM     18  H   UNL     1       5.064   2.526  18.490  0.00  0.00    +0.000 HD
ENDBRANCH   8  17
ENDBRANCH   1   3
BRANCH   2  19
ATOM     19  O   UNL     1       8.234   5.237  20.302  0.00  0.00    +0.000 OA
ATOM     20  H   UNL     1       8.256   6.064  20.817  0.00  0.00    +0.000 HD
ENDBRANCH   2  19
BRANCH   1  21
ATOM     21  C   UNL     1       7.508   5.921  17.825  0.00  0.00    +0.000 C 
BRANCH  21  22
ATOM     22  C   UNL     1       8.147   7.213  18.325  0.00  0.00    +0.000 C 
BRANCH  22  23
ATOM     23  C   UNL     1       7.516   8.436  17.664  0.00  0.00    +0.000 C 
BRANCH  23  24
ATOM     24  C   UNL     1       8.505   9.595  17.632  0.00  0.00    +0.000 C 
BRANCH  24  25
ATOM     25  C   UNL     1       9.020   9.931  19.030  0.00  0.00    +0.000 C 
BRANCH  25  26
ATOM     26  C   UNL     1       9.709  11.293  19.025  0.00  0.00    +0.000 C 
BRANCH  26  27
ATOM     27  C   UNL     1       9.000  12.254  18.079  0.00  0.00    +0.000 C 
BRANCH  27  28
ATOM     28  C   UNL     1       9.971  13.302  17.549  0.00  0.00    +0.000 C 
BRANCH  28  29
ATOM     29  C   UNL     1       9.951  14.540  18.438  0.00  0.00    +0.000 C 
BRANCH  29  30
ATOM     30  C   UNL     1       8.595  14.696  19.116  0.00  0.00    +0.000 C 
BRANCH  30  31
ATOM     31  C   UNL     1       7.761  15.756  18.403  0.00  0.00    +0.000 C 
BRANCH  31  32
ATOM     32  C   UNL     1       6.616  16.232  19.291  0.00  0.00    +0.000 C 
BRANCH  32  33
ATOM     33  C   UNL     1       5.463  15.233  19.262  0.00  0.00    +0.000 C 
BRANCH  33  35
ATOM     34  C   UNL     1       3.807  15.571  17.407  0.00  0.00    +0.000 C 
ATOM     35  C   UNL     1       5.088  14.872  17.827  0.00  0.00    +0.000 C 
ENDBRANCH  33  35
ENDBRANCH  32  33
ENDBRANCH  31  32
ENDBRANCH  30  31
ENDBRANCH  29  30
ENDBRANCH  28  29
ENDBRANCH  27  28
ENDBRANCH  26  27
ENDBRANCH  25  26
ENDBRANCH  24  25
ENDBRANCH  23  24
ENDBRANCH  22  23
ENDBRANCH  21  22
ENDBRANCH   1  21
TORSDOF 19
ENDMDL
MODEL 4
REMARK VINA RESULT:      -6.6      2.297      3.115
REMARK  Name = 
REMARK  20 active torsions:
REMARK  status: ('A' for Active; 'I' for Inactive)
REMARK    1  A    between atoms: C_1  and  C_2
REMARK    2  A    between atoms: C_2  and  C_3
REMARK    3  A    between atoms: C_3  and  C_4
REMARK    4  A    between atoms: C_4  and  C_5
REMARK    5  A    between atoms: C_5  and  C_6
REMARK    6  A    between atoms: C_6  and  C_7
REMARK    7  A    between atoms: C_7  and  C_8
REMARK    8  A    between atoms: C_8  and  C_9
REMARK    9  A    between atoms: C_9  and  C_10
REMARK   10  A    between atoms: C_10  and  C_11
REMARK   11  A    between atoms: C_11  and  C_12
REMARK   12  A    between atoms: C_12  and  C_13
REMARK   13  A    between atoms: C_13  and  C_14
REMARK   14  A    between atoms: C_14  and  C_15
REMARK   15  A    between atoms: C_15  and  C_16
REMARK   16  A    between atoms: C_16  and  C_19
REMARK   17  A    between atoms: N_17  and  O_18
REMARK   18  A    between atoms: C_21  and  C_22
REMARK   19  A    between atoms: C_25  and  O_26
REMARK   20  A    between atoms: C_31  and  O_32
REMARK                            x       y       z     vdW  Elec       q    Type
REMARK                         _______ _______ _______ _____ _____    ______ ____
ROOT
ATOM      1  C   UNL     1       6.431   6.076  17.145  0.00  0.00    +0.000 C 
ATOM      2  N   UNL     1       6.424   5.591  15.929  0.00  0.00    +0.000 NA
ENDROOT
BRANCH   1   3
ATOM      3  C   UNL     1       5.220   5.807  18.015  0.00  0.00    +0.000 A 
ATOM      4  C   UNL     1       4.288   6.862  18.144  0.00  0.00    +0.000 A 
ATOM      5  C   UNL     1       3.100   6.749  18.899  0.00  0.00    +0.000 A 
ATOM      6  C   UNL     1       2.866   5.518  19.532  0.00  0.00    +0.000 A 
ATOM      7  C   UNL     1       3.781   4.467  19.439  0.00  0.00    +0.000 A 
ATOM      8  C   UNL     1       4.951   4.611  18.690  0.00  0.00    +0.000 A 
BRANCH   5   9
ATOM      9  C   UNL     1       2.140   7.877  19.032  0.00  0.00    +0.000 A 
ATOM     10  C   UNL     1       1.567   8.220  20.272  0.00  0.00    +0.000 A 
ATOM     11  C   UNL     1       0.641   9.266  20.394  0.00  0.00    +0.000 A 
ATOM     12  C   UNL     1       0.288  10.002  19.272  0.00  0.00    +0.000 A 
ATOM     13  C   UNL     1       0.844   9.706  18.037  0.00  0.00    +0.000 A 
ATOM     14  C   UNL     1       1.755   8.651  17.918  0.00  0.00    +0.000 A 
BRANCH  12  15
ATOM     15  O   UNL     1      -0.609  11.028  19.336  0.00  0.00    +0.000 OA
ATOM     16  H   UNL     1      -0.732  11.396  18.447  0.00  0.00    +0.000 HD
ENDBRANCH  12  15
ENDBRANCH   5   9
BRANCH   8  17
ATOM     17  O   UNL     1       5.819   3.558  18.680  0.00  0.00    +0.000 OA
ATOM     18  H   UNL     1       5.856   3.168  17.790  0.00  0.00    +0.000 HD
ENDBRANCH   8  17
ENDBRANCH   1   3
BRANCH   2  19
ATOM     19  O   UNL     1       7.619   5.827  15.247  0.00  0.00    +0.000 OA
ATOM     20  H   UNL     1       7.357   6.506  14.598  0.00  0.00    +0.000 HD
ENDBRANCH   2  19
BRANCH   1  21
ATOM     21  C   UNL     1       7.643   6.797  17.734  0.00  0.00    +0.000 C 
BRANCH  21  22
ATOM     22  C   UNL     1       7.482   8.307  17.585  0.00  0.00    +0.000 C 
BRANCH  22  23
ATOM     23  C   UNL     1       8.458   9.061  18.486  0.00  0.00    +0.000 C 
BRANCH  23  24
ATOM     24  C   UNL     1       9.116  10.203  17.721  0.00  0.00    +0.000 C 
BRANCH  24  25
ATOM     25  C   UNL     1       9.307  11.433  18.606  0.00  0.00    +0.000 C 
BRANCH  25  26
ATOM     26  C   UNL     1       9.347  11.025  20.075  0.00  0.00    +0.000 C 
BRANCH  26  27
ATOM     27  C   UNL     1      10.436  11.787  20.819  0.00  0.00    +0.000 C 
BRANCH  27  28
ATOM     28  C   UNL     1       9.843  12.969  21.578  0.00  0.00    +0.000 C 
BRANCH  28  29
ATOM     29  C   UNL     1       8.335  12.802  21.724  0.00  0.00    +0.000 C 
BRANCH  29  30
ATOM     30  C   UNL     1       7.971  12.417  23.153  0.00  0.00    +0.000 C 
BRANCH  30  31
ATOM     31  C   UNL     1       6.464  12.215  23.282  0.00  0.00    +0.000 C 
BRANCH  31  32
ATOM     32  C   UNL     1       6.131  11.411  24.535  0.00  0.00    +0.000 C 
BRANCH  32  33
ATOM     33  C   UNL     1       7.174  11.655  25.623  0.00  0.00    +0.000 C 
BRANCH  33  35
ATOM     34  C   UNL     1       5.098  12.172  26.936  0.00  0.00    +0.000 C 
ATOM     35  C   UNL     1       6.582  12.457  26.779  0.00  0.00    +0.000 C 
ENDBRANCH  33  35
ENDBRANCH  32  33
ENDBRANCH  31  32
ENDBRANCH  30  31
ENDBRANCH  29  30
ENDBRANCH  28  29
ENDBRANCH  27  28
ENDBRANCH  26  27
ENDBRANCH  25  26
ENDBRANCH  24  25
ENDBRANCH  23  24
ENDBRANCH  22  23
ENDBRANCH  21  22
ENDBRANCH   1  21
TORSDOF 19
ENDMDL
MODEL 5
REMARK VINA RESULT:      -6.5      1.413      1.962
REMARK  Name = 
REMARK  20 active torsions:
REMARK  status: ('A' for Active; 'I' for Inactive)
REMARK    1  A    between atoms: C_1  and  C_2
REMARK    2  A    between atoms: C_2  and  C_3
REMARK    3  A    between atoms: C_3  and  C_4
REMARK    4  A    between atoms: C_4  and  C_5
REMARK    5  A    between atoms: C_5  and  C_6
REMARK    6  A    between atoms: C_6  and  C_7
REMARK    7  A    between atoms: C_7  and  C_8
REMARK    8  A    between atoms: C_8  and  C_9
REMARK    9  A    between atoms: C_9  and  C_10
REMARK   10  A    between atoms: C_10  and  C_11
REMARK   11  A    between atoms: C_11  and  C_12
REMARK   12  A    between atoms: C_12  and  C_13
REMARK   13  A    between atoms: C_13  and  C_14
REMARK   14  A    between atoms: C_14  and  C_15
REMARK   15  A    between atoms: C_15  and  C_16
REMARK   16  A    between atoms: C_16  and  C_19
REMARK   17  A    between atoms: N_17  and  O_18
REMARK   18  A    between atoms: C_21  and  C_22
REMARK   19  A    between atoms: C_25  and  O_26
REMARK   20  A    between atoms: C_31  and  O_32
REMARK                            x       y       z     vdW  Elec       q    Type
REMARK                         _______ _______ _______ _____ _____    ______ ____
ROOT
ATOM      1  C   UNL     1       6.277   5.028  17.716  0.00  0.00    +0.000 C 
ATOM      2  N   UNL     1       6.835   4.069  17.019  0.00  0.00    +0.000 NA
ENDROOT
BRANCH   1   3
ATOM      3  C   UNL     1       4.769   5.010  17.852  0.00  0.00    +0.000 A 
ATOM      4  C   UNL     1       4.150   6.236  18.188  0.00  0.00    +0.000 A 
ATOM      5  C   UNL     1       2.752   6.379  18.323  0.00  0.00    +0.000 A 
ATOM      6  C   UNL     1       1.973   5.232  18.101  0.00  0.00    +0.000 A 
ATOM      7  C   UNL     1       2.560   4.004  17.790  0.00  0.00    +0.000 A 
ATOM      8  C   UNL     1       3.947   3.892  17.669  0.00  0.00    +0.000 A 
BRANCH   5   9
ATOM      9  C   UNL     1       2.124   7.676  18.691  0.00  0.00    +0.000 A 
ATOM     10  C   UNL     1       1.960   8.713  17.752  0.00  0.00    +0.000 A 
ATOM     11  C   UNL     1       1.393   9.946  18.105  0.00  0.00    +0.000 A 
ATOM     12  C   UNL     1       0.963  10.154  19.407  0.00  0.00    +0.000 A 
ATOM     13  C   UNL     1       1.092   9.152  20.356  0.00  0.00    +0.000 A 
ATOM     14  C   UNL     1       1.673   7.928  20.003  0.00  0.00    +0.000 A 
BRANCH  12  15
ATOM     15  O   UNL     1       0.407  11.335  19.802  0.00  0.00    +0.000 OA
ATOM     16  H   UNL     1      -0.029  11.750  19.041  0.00  0.00    +0.000 HD
ENDBRANCH  12  15
ENDBRANCH   5   9
BRANCH   8  17
ATOM     17  O   UNL     1       4.452   2.652  17.406  0.00  0.00    +0.000 OA
ATOM     18  H   UNL     1       4.526   2.522  16.446  0.00  0.00    +0.000 HD
ENDBRANCH   8  17
ENDBRANCH   1   3
BRANCH   2  19
ATOM     19  O   UNL     1       8.230   4.137  17.029  0.00  0.00    +0.000 OA
ATOM     20  H   UNL     1       8.407   4.846  16.384  0.00  0.00    +0.000 HD
ENDBRANCH   2  19
BRANCH   1  21
ATOM     21  C   UNL     1       7.094   6.078  18.467  0.00  0.00    +0.000 C 
BRANCH  21  22
ATOM     22  C   UNL     1       7.712   7.069  17.485  0.00  0.00    +0.000 C 
BRANCH  22  23
ATOM     23  C   UNL     1       7.306   8.504  17.815  0.00  0.00    +0.000 C 
BRANCH  23  24
ATOM     24  C   UNL     1       8.474   9.455  17.580  0.00  0.00    +0.000 C 
BRANCH  24  25
ATOM     25  C   UNL     1       8.612  10.465  18.716  0.00  0.00    +0.000 C 
BRANCH  25  26
ATOM     26  C   UNL     1      10.084  10.768  18.977  0.00  0.00    +0.000 C 
BRANCH  26  27
ATOM     27  C   UNL     1      10.669  11.616  17.854  0.00  0.00    +0.000 C 
BRANCH  27  28
ATOM     28  C   UNL     1      10.042  13.005  17.846  0.00  0.00    +0.000 C 
BRANCH  28  29
ATOM     29  C   UNL     1      10.716  13.896  18.883  0.00  0.00    +0.000 C 
BRANCH  29  30
ATOM     30  C   UNL     1       9.866  15.129  19.169  0.00  0.00    +0.000 C 
BRANCH  30  31
ATOM     31  C   UNL     1       8.991  15.464  17.964  0.00  0.00    +0.000 C 
BRANCH  31  32
ATOM     32  C   UNL     1       7.676  16.094  18.410  0.00  0.00    +0.000 C 
BRANCH  32  33
ATOM     33  C   UNL     1       6.502  15.172  18.089  0.00  0.00    +0.000 C 
BRANCH  33  35
ATOM     34  C   UNL     1       4.039  15.353  17.642  0.00  0.00    +0.000 C 
ATOM     35  C   UNL     1       5.182  15.790  18.542  0.00  0.00    +0.000 C 
ENDBRANCH  33  35
ENDBRANCH  32  33
ENDBRANCH  31  32
ENDBRANCH  30  31
ENDBRANCH  29  30
ENDBRANCH  28  29
ENDBRANCH  27  28
ENDBRANCH  26  27
ENDBRANCH  25  26
ENDBRANCH  24  25
ENDBRANCH  23  24
ENDBRANCH  22  23
ENDBRANCH  21  22
ENDBRANCH   1  21
TORSDOF 19
ENDMDL
MODEL 6
REMARK VINA RESULT:      -6.5      2.915      7.440
REMARK  Name = 
REMARK  20 active torsions:
REMARK  status: ('A' for Active; 'I' for Inactive)
REMARK    1  A    between atoms: C_1  and  C_2
REMARK    2  A    between atoms: C_2  and  C_3
REMARK    3  A    between atoms: C_3  and  C_4
REMARK    4  A    between atoms: C_4  and  C_5
REMARK    5  A    between atoms: C_5  and  C_6
REMARK    6  A    between atoms: C_6  and  C_7
REMARK    7  A    between atoms: C_7  and  C_8
REMARK    8  A    between atoms: C_8  and  C_9
REMARK    9  A    between atoms: C_9  and  C_10
REMARK   10  A    between atoms: C_10  and  C_11
REMARK   11  A    between atoms: C_11  and  C_12
REMARK   12  A    between atoms: C_12  and  C_13
REMARK   13  A    between atoms: C_13  and  C_14
REMARK   14  A    between atoms: C_14  and  C_15
REMARK   15  A    between atoms: C_15  and  C_16
REMARK   16  A    between atoms: C_16  and  C_19
REMARK   17  A    between atoms: N_17  and  O_18
REMARK   18  A    between atoms: C_21  and  C_22
REMARK   19  A    between atoms: C_25  and  O_26
REMARK   20  A    between atoms: C_31  and  O_32
REMARK                            x       y       z     vdW  Elec       q    Type
REMARK                         _______ _______ _______ _____ _____    ______ ____
ROOT
ATOM      1  C   UNL     1       6.671   5.695  15.799  0.00  0.00    +0.000 C 
ATOM      2  N   UNL     1       7.443   5.112  14.917  0.00  0.00    +0.000 NA
ENDROOT
BRANCH   1   3
ATOM      3  C   UNL     1       7.307   6.150  17.096  0.00  0.00    +0.000 A 
ATOM      4  C   UNL     1       7.647   7.520  17.186  0.00  0.00    +0.000 A 
ATOM      5  C   UNL     1       8.222   8.094  18.341  0.00  0.00    +0.000 A 
ATOM      6  C   UNL     1       8.447   7.237  19.430  0.00  0.00    +0.000 A 
ATOM      7  C   UNL     1       8.140   5.877  19.360  0.00  0.00    +0.000 A 
ATOM      8  C   UNL     1       7.578   5.335  18.201  0.00  0.00    +0.000 A 
BRANCH   5   9
ATOM      9  C   UNL     1       8.585   9.535  18.408  0.00  0.00    +0.000 A 
ATOM     10  C   UNL     1       9.497  10.026  19.363  0.00  0.00    +0.000 A 
ATOM     11  C   UNL     1       9.819  11.389  19.445  0.00  0.00    +0.000 A 
ATOM     12  C   UNL     1       9.243  12.282  18.554  0.00  0.00    +0.000 A 
ATOM     13  C   UNL     1       8.354  11.835  17.588  0.00  0.00    +0.000 A 
ATOM     14  C   UNL     1       8.023  10.476  17.521  0.00  0.00    +0.000 A 
BRANCH  12  15
ATOM     15  O   UNL     1       9.521  13.617  18.591  0.00  0.00    +0.000 OA
ATOM     16  H   UNL     1      10.360  13.753  19.060  0.00  0.00    +0.000 HD
ENDBRANCH  12  15
ENDBRANCH   5   9
BRANCH   8  17
ATOM     17  O   UNL     1       7.347   3.991  18.189  0.00  0.00    +0.000 OA
ATOM     18  H   UNL     1       6.586   3.782  18.757  0.00  0.00    +0.000 HD
ENDBRANCH   8  17
ENDBRANCH   1   3
BRANCH   2  19
ATOM     19  O   UNL     1       6.774   4.809  13.730  0.00  0.00    +0.000 OA
ATOM     20  H   UNL     1       7.373   4.163  13.313  0.00  0.00    +0.000 HD
ENDBRANCH   2  19
BRANCH   1  21
ATOM     21  C   UNL     1       5.204   6.019  15.519  0.00  0.00    +0.000 C 
BRANCH  21  22
ATOM     22  C   UNL     1       4.355   5.732  16.754  0.00  0.00    +0.000 C 
BRANCH  22  23
ATOM     23  C   UNL     1       4.027   7.016  17.512  0.00  0.00    +0.000 C 
BRANCH  23  24
ATOM     24  C   UNL     1       3.116   6.717  18.697  0.00  0.00    +0.000 C 
BRANCH  24  25
ATOM     25  C   UNL     1       1.853   7.573  18.663  0.00  0.00    +0.000 C 
BRANCH  25  26
ATOM     26  C   UNL     1       2.079   8.813  17.803  0.00  0.00    +0.000 C 
BRANCH  26  27
ATOM     27  C   UNL     1       0.961   9.827  18.011  0.00  0.00    +0.000 C 
BRANCH  27  28
ATOM     28  C   UNL     1       1.439  10.983  18.881  0.00  0.00    +0.000 C 
BRANCH  28  29
ATOM     29  C   UNL     1       0.810  10.899  20.267  0.00  0.00    +0.000 C 
BRANCH  29  30
ATOM     30  C   UNL     1      -0.699  10.712  20.164  0.00  0.00    +0.000 C 
BRANCH  30  31
ATOM     31  C   UNL     1      -1.405  12.065  20.168  0.00  0.00    +0.000 C 
BRANCH  31  32
ATOM     32  C   UNL     1      -2.680  12.012  19.333  0.00  0.00    +0.000 C 
BRANCH  32  33
ATOM     33  C   UNL     1      -2.356  11.693  17.876  0.00  0.00    +0.000 C 
BRANCH  33  35
ATOM     34  C   UNL     1      -2.394   9.711  16.336  0.00  0.00    +0.000 C 
ATOM     35  C   UNL     1      -3.163  10.493  17.387  0.00  0.00    +0.000 C 
ENDBRANCH  33  35
ENDBRANCH  32  33
ENDBRANCH  31  32
ENDBRANCH  30  31
ENDBRANCH  29  30
ENDBRANCH  28  29
ENDBRANCH  27  28
ENDBRANCH  26  27
ENDBRANCH  25  26
ENDBRANCH  24  25
ENDBRANCH  23  24
ENDBRANCH  22  23
ENDBRANCH  21  22
ENDBRANCH   1  21
TORSDOF 19
ENDMDL
MODEL 7
REMARK VINA RESULT:      -6.5      1.620      2.079
REMARK  Name = 
REMARK  20 active torsions:
REMARK  status: ('A' for Active; 'I' for Inactive)
REMARK    1  A    between atoms: C_1  and  C_2
REMARK    2  A    between atoms: C_2  and  C_3
REMARK    3  A    between atoms: C_3  and  C_4
REMARK    4  A    between atoms: C_4  and  C_5
REMARK    5  A    between atoms: C_5  and  C_6
REMARK    6  A    between atoms: C_6  and  C_7
REMARK    7  A    between atoms: C_7  and  C_8
REMARK    8  A    between atoms: C_8  and  C_9
REMARK    9  A    between atoms: C_9  and  C_10
REMARK   10  A    between atoms: C_10  and  C_11
REMARK   11  A    between atoms: C_11  and  C_12
REMARK   12  A    between atoms: C_12  and  C_13
REMARK   13  A    between atoms: C_13  and  C_14
REMARK   14  A    between atoms: C_14  and  C_15
REMARK   15  A    between atoms: C_15  and  C_16
REMARK   16  A    between atoms: C_16  and  C_19
REMARK   17  A    between atoms: N_17  and  O_18
REMARK   18  A    between atoms: C_21  and  C_22
REMARK   19  A    between atoms: C_25  and  O_26
REMARK   20  A    between atoms: C_31  and  O_32
REMARK                            x       y       z     vdW  Elec       q    Type
REMARK                         _______ _______ _______ _____ _____    ______ ____
ROOT
ATOM      1  C   UNL     1       6.480   5.205  17.582  0.00  0.00    +0.000 C 
ATOM      2  N   UNL     1       7.178   4.192  18.030  0.00  0.00    +0.000 NA
ENDROOT
BRANCH   1   3
ATOM      3  C   UNL     1       4.973   5.133  17.715  0.00  0.00    +0.000 A 
ATOM      4  C   UNL     1       4.316   6.321  18.111  0.00  0.00    +0.000 A 
ATOM      5  C   UNL     1       2.914   6.413  18.252  0.00  0.00    +0.000 A 
ATOM      6  C   UNL     1       2.172   5.254  17.973  0.00  0.00    +0.000 A 
ATOM      7  C   UNL     1       2.797   4.062  17.602  0.00  0.00    +0.000 A 
ATOM      8  C   UNL     1       4.187   3.999  17.478  0.00  0.00    +0.000 A 
BRANCH   5   9
ATOM      9  C   UNL     1       2.247   7.670  18.683  0.00  0.00    +0.000 A 
ATOM     10  C   UNL     1       1.825   7.867  20.012  0.00  0.00    +0.000 A 
ATOM     11  C   UNL     1       1.170   9.040  20.414  0.00  0.00    +0.000 A 
ATOM     12  C   UNL     1       0.944  10.048  19.488  0.00  0.00    +0.000 A 
ATOM     13  C   UNL     1       1.360   9.900  18.174  0.00  0.00    +0.000 A 
ATOM     14  C   UNL     1       1.999   8.720  17.774  0.00  0.00    +0.000 A 
BRANCH  12  15
ATOM     15  O   UNL     1       0.311  11.208  19.827  0.00  0.00    +0.000 OA
ATOM     16  H   UNL     1       0.531  11.892  19.173  0.00  0.00    +0.000 HD
ENDBRANCH  12  15
ENDBRANCH   5   9
BRANCH   8  17
ATOM     17  O   UNL     1       4.731   2.791  17.155  0.00  0.00    +0.000 OA
ATOM     18  H   UNL     1       4.454   2.532  16.259  0.00  0.00    +0.000 HD
ENDBRANCH   8  17
ENDBRANCH   1   3
BRANCH   2  19
ATOM     19  O   UNL     1       8.555   4.400  17.932  0.00  0.00    +0.000 OA
ATOM     20  H   UNL     1       8.896   3.895  18.694  0.00  0.00    +0.000 HD
ENDBRANCH   2  19
BRANCH   1  21
ATOM     21  C   UNL     1       7.134   6.475  17.038  0.00  0.00    +0.000 C 
BRANCH  21  22
ATOM     22  C   UNL     1       7.813   7.244  18.168  0.00  0.00    +0.000 C 
BRANCH  22  23
ATOM     23  C   UNL     1       8.071   8.696  17.774  0.00  0.00    +0.000 C 
BRANCH  23  24
ATOM     24  C   UNL     1       8.851   9.414  18.869  0.00  0.00    +0.000 C 
BRANCH  24  25
ATOM     25  C   UNL     1       9.516  10.684  18.342  0.00  0.00    +0.000 C 
BRANCH  25  26
ATOM     26  C   UNL     1       8.464  11.636  17.781  0.00  0.00    +0.000 C 
BRANCH  26  27
ATOM     27  C   UNL     1       8.985  13.068  17.764  0.00  0.00    +0.000 C 
BRANCH  27  28
ATOM     28  C   UNL     1       9.442  13.492  19.155  0.00  0.00    +0.000 C 
BRANCH  28  29
ATOM     29  C   UNL     1       8.307  14.192  19.894  0.00  0.00    +0.000 C 
BRANCH  29  30
ATOM     30  C   UNL     1       7.369  14.884  18.912  0.00  0.00    +0.000 C 
BRANCH  30  31
ATOM     31  C   UNL     1       6.059  15.256  19.600  0.00  0.00    +0.000 C 
BRANCH  31  32
ATOM     32  C   UNL     1       6.079  14.835  21.066  0.00  0.00    +0.000 C 
BRANCH  32  33
ATOM     33  C   UNL     1       4.660  14.601  21.578  0.00  0.00    +0.000 C 
BRANCH  33  35
ATOM     34  C   UNL     1       2.341  13.900  20.921  0.00  0.00    +0.000 C 
ATOM     35  C   UNL     1       3.690  14.386  20.419  0.00  0.00    +0.000 C 
ENDBRANCH  33  35
ENDBRANCH  32  33
ENDBRANCH  31  32
ENDBRANCH  30  31
ENDBRANCH  29  30
ENDBRANCH  28  29
ENDBRANCH  27  28
ENDBRANCH  26  27
ENDBRANCH  25  26
ENDBRANCH  24  25
ENDBRANCH  23  24
ENDBRANCH  22  23
ENDBRANCH  21  22
ENDBRANCH   1  21
TORSDOF 19
ENDMDL
MODEL 8
REMARK VINA RESULT:      -6.4      6.725     10.826
REMARK  Name = 
REMARK  20 active torsions:
REMARK  status: ('A' for Active; 'I' for Inactive)
REMARK    1  A    between atoms: C_1  and  C_2
REMARK    2  A    between atoms: C_2  and  C_3
REMARK    3  A    between atoms: C_3  and  C_4
REMARK    4  A    between atoms: C_4  and  C_5
REMARK    5  A    between atoms: C_5  and  C_6
REMARK    6  A    between atoms: C_6  and  C_7
REMARK    7  A    between atoms: C_7  and  C_8
REMARK    8  A    between atoms: C_8  and  C_9
REMARK    9  A    between atoms: C_9  and  C_10
REMARK   10  A    between atoms: C_10  and  C_11
REMARK   11  A    between atoms: C_11  and  C_12
REMARK   12  A    between atoms: C_12  and  C_13
REMARK   13  A    between atoms: C_13  and  C_14
REMARK   14  A    between atoms: C_14  and  C_15
REMARK   15  A    between atoms: C_15  and  C_16
REMARK   16  A    between atoms: C_16  and  C_19
REMARK   17  A    between atoms: N_17  and  O_18
REMARK   18  A    between atoms: C_21  and  C_22
REMARK   19  A    between atoms: C_25  and  O_26
REMARK   20  A    between atoms: C_31  and  O_32
REMARK                            x       y       z     vdW  Elec       q    Type
REMARK                         _______ _______ _______ _____ _____    ______ ____
ROOT
ATOM      1  C   UNL     1      -3.654  11.371  17.232  0.00  0.00    +0.000 C 
ATOM      2  N   UNL     1      -4.388  10.999  16.213  0.00  0.00    +0.000 NA
ENDROOT
BRANCH   1   3
ATOM      3  C   UNL     1      -4.367  11.708  18.525  0.00  0.00    +0.000 A 
ATOM      4  C   UNL     1      -3.584  12.297  19.544  0.00  0.00    +0.000 A 
ATOM      5  C   UNL     1      -4.116  12.690  20.792  0.00  0.00    +0.000 A 
ATOM      6  C   UNL     1      -5.489  12.474  20.991  0.00  0.00    +0.000 A 
ATOM      7  C   UNL     1      -6.280  11.874  20.011  0.00  0.00    +0.000 A 
ATOM      8  C   UNL     1      -5.725  11.490  18.787  0.00  0.00    +0.000 A 
BRANCH   5   9
ATOM      9  C   UNL     1      -3.269  13.295  21.854  0.00  0.00    +0.000 A 
ATOM     10  C   UNL     1      -3.410  14.643  22.236  0.00  0.00    +0.000 A 
ATOM     11  C   UNL     1      -2.594  15.223  23.218  0.00  0.00    +0.000 A 
ATOM     12  C   UNL     1      -1.631  14.450  23.850  0.00  0.00    +0.000 A 
ATOM     13  C   UNL     1      -1.472  13.114  23.514  0.00  0.00    +0.000 A 
ATOM     14  C   UNL     1      -2.279  12.544  22.522  0.00  0.00    +0.000 A 
BRANCH  12  15
ATOM     15  O   UNL     1      -0.810  14.965  24.810  0.00  0.00    +0.000 OA
ATOM     16  H   UNL     1      -0.137  14.304  25.039  0.00  0.00    +0.000 HD
ENDBRANCH  12  15
ENDBRANCH   5   9
BRANCH   8  17
ATOM     17  O   UNL     1      -6.549  10.871  17.895  0.00  0.00    +0.000 OA
ATOM     18  H   UNL     1      -7.468  10.914  18.208  0.00  0.00    +0.000 HD
ENDBRANCH   8  17
ENDBRANCH   1   3
BRANCH   2  19
ATOM     19  O   UNL     1      -3.624  10.634  15.103  0.00  0.00    +0.000 OA
ATOM     20  H   UNL     1      -4.190  10.916  14.361  0.00  0.00    +0.000 HD
ENDBRANCH   2  19
BRANCH   1  21
ATOM     21  C   UNL     1      -2.126  11.370  17.187  0.00  0.00    +0.000 C 
BRANCH  21  22
ATOM     22  C   UNL     1      -1.575  10.188  17.980  0.00  0.00    +0.000 C 
BRANCH  22  23
ATOM     23  C   UNL     1      -0.538  10.643  19.004  0.00  0.00    +0.000 C 
BRANCH  23  24
ATOM     24  C   UNL     1       0.576   9.610  19.128  0.00  0.00    +0.000 C 
BRANCH  24  25
ATOM     25  C   UNL     1       1.364   9.477  17.827  0.00  0.00    +0.000 C 
BRANCH  25  26
ATOM     26  C   UNL     1       2.167   8.179  17.828  0.00  0.00    +0.000 C 
BRANCH  26  27
ATOM     27  C   UNL     1       2.412   7.696  19.251  0.00  0.00    +0.000 C 
BRANCH  27  28
ATOM     28  C   UNL     1       2.397   6.173  19.312  0.00  0.00    +0.000 C 
BRANCH  28  29
ATOM     29  C   UNL     1       2.545   5.586  17.913  0.00  0.00    +0.000 C 
BRANCH  29  30
ATOM     30  C   UNL     1       3.602   4.488  17.897  0.00  0.00    +0.000 C 
BRANCH  30  31
ATOM     31  C   UNL     1       3.112   3.265  18.668  0.00  0.00    +0.000 C 
BRANCH  31  32
ATOM     32  C   UNL     1       1.821   2.725  18.060  0.00  0.00    +0.000 C 
BRANCH  32  33
ATOM     33  C   UNL     1       0.812   2.389  19.154  0.00  0.00    +0.000 C 
BRANCH  33  35
ATOM     34  C   UNL     1       1.515   2.542  21.559  0.00  0.00    +0.000 C 
ATOM     35  C   UNL     1       0.985   3.309  20.360  0.00  0.00    +0.000 C 
ENDBRANCH  33  35
ENDBRANCH  32  33
ENDBRANCH  31  32
ENDBRANCH  30  31
ENDBRANCH  29  30
ENDBRANCH  28  29
ENDBRANCH  27  28
ENDBRANCH  26  27
ENDBRANCH  25  26
ENDBRANCH  24  25
ENDBRANCH  23  24
ENDBRANCH  22  23
ENDBRANCH  21  22
ENDBRANCH   1  21
TORSDOF 19
ENDMDL
MODEL 9
REMARK VINA RESULT:      -6.4      1.912      2.710
REMARK  Name = 
REMARK  20 active torsions:
REMARK  status: ('A' for Active; 'I' for Inactive)
REMARK    1  A    between atoms: C_1  and  C_2
REMARK    2  A    between atoms: C_2  and  C_3
REMARK    3  A    between atoms: C_3  and  C_4
REMARK    4  A    between atoms: C_4  and  C_5
REMARK    5  A    between atoms: C_5  and  C_6
REMARK    6  A    between atoms: C_6  and  C_7
REMARK    7  A    between atoms: C_7  and  C_8
REMARK    8  A    between atoms: C_8  and  C_9
REMARK    9  A    between atoms: C_9  and  C_10
REMARK   10  A    between atoms: C_10  and  C_11
REMARK   11  A    between atoms: C_11  and  C_12
REMARK   12  A    between atoms: C_12  and  C_13
REMARK   13  A    between atoms: C_13  and  C_14
REMARK   14  A    between atoms: C_14  and  C_15
REMARK   15  A    between atoms: C_15  and  C_16
REMARK   16  A    between atoms: C_16  and  C_19
REMARK   17  A    between atoms: N_17  and  O_18
REMARK   18  A    between atoms: C_21  and  C_22
REMARK   19  A    between atoms: C_25  and  O_26
REMARK   20  A    between atoms: C_31  and  O_32
REMARK                            x       y       z     vdW  Elec       q    Type
REMARK                         _______ _______ _______ _____ _____    ______ ____
ROOT
ATOM      1  C   UNL     1       6.320   5.141  17.657  0.00  0.00    +0.000 C 
ATOM      2  N   UNL     1       6.962   4.005  17.547  0.00  0.00    +0.000 NA
ENDROOT
BRANCH   1   3
ATOM      3  C   UNL     1       4.860   5.086  18.060  0.00  0.00    +0.000 A 
ATOM      4  C   UNL     1       4.215   6.326  18.267  0.00  0.00    +0.000 A 
ATOM      5  C   UNL     1       2.852   6.434  18.620  0.00  0.00    +0.000 A 
ATOM      6  C   UNL     1       2.136   5.233  18.756  0.00  0.00    +0.000 A 
ATOM      7  C   UNL     1       2.754   3.995  18.577  0.00  0.00    +0.000 A 
ATOM      8  C   UNL     1       4.107   3.920  18.236  0.00  0.00    +0.000 A 
BRANCH   5   9
ATOM      9  C   UNL     1       2.198   7.750  18.847  0.00  0.00    +0.000 A 
ATOM     10  C   UNL     1       2.112   8.720  17.830  0.00  0.00    +0.000 A 
ATOM     11  C   UNL     1       1.520   9.972  18.050  0.00  0.00    +0.000 A 
ATOM     12  C   UNL     1       0.985  10.266  19.296  0.00  0.00    +0.000 A 
ATOM     13  C   UNL     1       1.034   9.331  20.318  0.00  0.00    +0.000 A 
ATOM     14  C   UNL     1       1.640   8.088  20.097  0.00  0.00    +0.000 A 
BRANCH  12  15
ATOM     15  O   UNL     1       0.400  11.468  19.563  0.00  0.00    +0.000 OA
ATOM     16  H   UNL     1      -0.560  11.344  19.640  0.00  0.00    +0.000 HD
ENDBRANCH  12  15
ENDBRANCH   5   9
BRANCH   8  17
ATOM     17  O   UNL     1       4.654   2.675  18.122  0.00  0.00    +0.000 OA
ATOM     18  H   UNL     1       5.623   2.743  18.068  0.00  0.00    +0.000 HD
ENDBRANCH   8  17
ENDBRANCH   1   3
BRANCH   2  19
ATOM     19  O   UNL     1       8.316   4.177  17.254  0.00  0.00    +0.000 OA
ATOM     20  H   UNL     1       8.729   4.112  18.135  0.00  0.00    +0.000 HD
ENDBRANCH   2  19
BRANCH   1  21
ATOM     21  C   UNL     1       7.013   6.494  17.501  0.00  0.00    +0.000 C 
BRANCH  21  22
ATOM     22  C   UNL     1       7.772   6.849  18.777  0.00  0.00    +0.000 C 
BRANCH  22  23
ATOM     23  C   UNL     1       8.690   8.050  18.560  0.00  0.00    +0.000 C 
BRANCH  23  24
ATOM     24  C   UNL     1       7.976   9.127  17.753  0.00  0.00    +0.000 C 
BRANCH  24  25
ATOM     25  C   UNL     1       8.403  10.528  18.187  0.00  0.00    +0.000 C 
BRANCH  25  26
ATOM     26  C   UNL     1       9.900  10.717  17.958  0.00  0.00    +0.000 C 
BRANCH  26  27
ATOM     27  C   UNL     1      10.361  12.071  18.481  0.00  0.00    +0.000 C 
BRANCH  27  28
ATOM     28  C   UNL     1      11.260  11.900  19.699  0.00  0.00    +0.000 C 
BRANCH  28  29
ATOM     29  C   UNL     1      10.427  11.883  20.975  0.00  0.00    +0.000 C 
BRANCH  29  30
ATOM     30  C   UNL     1       9.469  13.068  21.010  0.00  0.00    +0.000 C 
BRANCH  30  31
ATOM     31  C   UNL     1       8.882  13.237  22.409  0.00  0.00    +0.000 C 
BRANCH  31  32
ATOM     32  C   UNL     1       7.745  12.247  22.640  0.00  0.00    +0.000 C 
BRANCH  32  33
ATOM     33  C   UNL     1       7.844  11.631  24.033  0.00  0.00    +0.000 C 
BRANCH  33  35
ATOM     34  C   UNL     1       5.984  12.742  25.302  0.00  0.00    +0.000 C 
ATOM     35  C   UNL     1       6.460  11.454  24.653  0.00  0.00    +0.000 C 
ENDBRANCH  33  35
ENDBRANCH  32  33
ENDBRANCH  31  32
ENDBRANCH  30  31
ENDBRANCH  29  30
ENDBRANCH  28  29
ENDBRANCH  27  28
ENDBRANCH  26  27
ENDBRANCH  25  26
ENDBRANCH  24  25
ENDBRANCH  23  24
ENDBRANCH  22  23
ENDBRANCH  21  22
ENDBRANCH   1  21
TORSDOF 19
ENDMDL
