MODEL 1
REMARK VINA RESULT:      -7.5      0.000      0.000
REMARK  Name = 
REMARK  2 active torsions:
REMARK  status: ('A' for Active; 'I' for Inactive)
REMARK    1  A    between atoms: C_2  and  C_3
REMARK    2  A    between atoms: C_16  and  N_17
REMARK                            x       y       z     vdW  Elec       q    Type
REMARK                         _______ _______ _______ _____ _____    ______ ____
ROOT
ATOM      1  O   UNL     1       4.728   2.685  19.065  0.00  0.00    +0.000 OA
ATOM      2  C   UNL     1       4.479   3.849  18.747  0.00  0.00    +0.000 C 
ATOM      3  N   UNL     1       3.644   4.676  19.506  0.00  0.00    +0.000 N 
ATOM      4  C   UNL     1       3.006   4.137  20.705  0.00  0.00    +0.000 C 
ATOM      5  C   UNL     1       1.524   4.514  20.761  0.00  0.00    +0.000 C 
ATOM      6  C   UNL     1       1.290   6.014  20.545  0.00  0.00    +0.000 C 
ATOM      7  C   UNL     1       2.017   6.509  19.285  0.00  0.00    +0.000 C 
ATOM      8  C   UNL     1       3.502   6.127  19.355  0.00  0.00    +0.000 C 
ENDROOT
BRANCH   2   9
ATOM      9  C   UNL     1       5.153   4.378  17.540  0.00  0.00    +0.000 A 
ATOM     10  C   UNL     1       4.770   3.868  16.287  0.00  0.00    +0.000 A 
ATOM     11  C   UNL     1       5.424   4.282  15.113  0.00  0.00    +0.000 A 
ATOM     12  C   UNL     1       6.465   5.209  15.176  0.00  0.00    +0.000 A 
ATOM     13  C   UNL     1       6.796   5.722  16.413  0.00  0.00    +0.000 A 
ATOM     14  C   UNL     1       6.147   5.341  17.567  0.00  0.00    +0.000 A 
ATOM     15  O   UNL     1       6.641   6.000  18.656  0.00  0.00    +0.000 OA
ATOM     16  C   UNL     1       7.762   6.698  18.077  0.00  0.00    +0.000 C 
ATOM     17  O   UNL     1       7.793   6.620  16.642  0.00  0.00    +0.000 OA
ENDBRANCH   2   9
BRANCH   7  18
ATOM     18  N   UNL     1       1.843   7.933  19.057  0.00  0.00    +0.000 N 
ATOM     19  C   UNL     1       2.109   8.620  17.906  0.00  0.00    +0.000 A 
ATOM     20  C   UNL     1       1.716   9.913  18.162  0.00  0.00    +0.000 A 
ATOM     21  N   UNL     1       1.223  10.026  19.436  0.00  0.00    +0.000 NA
ATOM     22  C   UNL     1       1.323   8.824  19.955  0.00  0.00    +0.000 A 
ENDBRANCH   7  18
TORSDOF 2
ENDMDL
MODEL 2
REMARK VINA RESULT:      -7.5      1.225      2.029
REMARK  Name = 
REMARK  2 active torsions:
REMARK  status: ('A' for Active; 'I' for Inactive)
REMARK    1  A    between atoms: C_2  and  C_3
REMARK    2  A    between atoms: C_16  and  N_17
REMARK                            x       y       z     vdW  Elec       q    Type
REMARK                         _______ _______ _______ _____ _____    ______ ____
ROOT
ATOM      1  O   UNL     1       5.157   2.539  19.305  0.00  0.00    +0.000 OA
ATOM      2  C   UNL     1       4.867   3.734  19.232  0.00  0.00    +0.000 C 
ATOM      3  N   UNL     1       3.741   4.277  19.859  0.00  0.00    +0.000 N 
ATOM      4  C   UNL     1       2.845   3.395  20.603  0.00  0.00    +0.000 C 
ATOM      5  C   UNL     1       1.380   3.681  20.265  0.00  0.00    +0.000 C 
ATOM      6  C   UNL     1       1.030   5.169  20.375  0.00  0.00    +0.000 C 
ATOM      7  C   UNL     1       2.034   6.030  19.593  0.00  0.00    +0.000 C 
ATOM      8  C   UNL     1       3.464   5.704  20.047  0.00  0.00    +0.000 C 
ENDROOT
BRANCH   2   9
ATOM      9  C   UNL     1       5.802   4.611  18.490  0.00  0.00    +0.000 A 
ATOM     10  C   UNL     1       6.713   5.387  19.228  0.00  0.00    +0.000 A 
ATOM     11  C   UNL     1       7.576   6.289  18.581  0.00  0.00    +0.000 A 
ATOM     12  C   UNL     1       7.541   6.425  17.192  0.00  0.00    +0.000 A 
ATOM     13  C   UNL     1       6.664   5.625  16.489  0.00  0.00    +0.000 A 
ATOM     14  C   UNL     1       5.830   4.721  17.111  0.00  0.00    +0.000 A 
ATOM     15  O   UNL     1       5.073   4.037  16.203  0.00  0.00    +0.000 OA
ATOM     16  C   UNL     1       5.410   4.725  14.982  0.00  0.00    +0.000 C 
ATOM     17  O   UNL     1       6.501   5.648  15.138  0.00  0.00    +0.000 OA
ENDBRANCH   2   9
BRANCH   7  18
ATOM     18  N   UNL     1       1.755   7.453  19.694  0.00  0.00    +0.000 N 
ATOM     19  C   UNL     1       1.848   8.381  18.696  0.00  0.00    +0.000 A 
ATOM     20  C   UNL     1       1.413   9.557  19.259  0.00  0.00    +0.000 A 
ATOM     21  N   UNL     1       1.062   9.366  20.570  0.00  0.00    +0.000 NA
ATOM     22  C   UNL     1       1.290   8.095  20.809  0.00  0.00    +0.000 A 
ENDBRANCH   7  18
TORSDOF 2
ENDMDL
MODEL 3
REMARK VINA RESULT:      -7.2      1.056      1.376
REMARK  Name = 
REMARK  2 active torsions:
REMARK  status: ('A' for Active; 'I' for Inactive)
REMARK    1  A    between atoms: C_2  and  C_3
REMARK    2  A    between atoms: C_16  and  N_17
REMARK                            x       y       z     vdW  Elec       q    Type
REMARK                         _______ _______ _______ _____ _____    ______ ____
ROOT
ATOM      1  O   UNL     1       4.533   1.950  18.618  0.00  0.00    +0.000 OA
ATOM      2  C   UNL     1       4.314   3.163  18.650  0.00  0.00    +0.000 C 
ATOM      3  N   UNL     1       3.402   3.742  19.538  0.00  0.00    +0.000 N 
ATOM      4  C   UNL     1       2.646   2.881  20.444  0.00  0.00    +0.000 C 
ATOM      5  C   UNL     1       1.164   3.265  20.466  0.00  0.00    +0.000 C 
ATOM      6  C   UNL     1       0.949   4.765  20.699  0.00  0.00    +0.000 C 
ATOM      7  C   UNL     1       1.801   5.600  19.730  0.00  0.00    +0.000 C 
ATOM      8  C   UNL     1       3.272   5.172  19.827  0.00  0.00    +0.000 C 
ENDROOT
BRANCH   2   9
ATOM      9  C   UNL     1       5.109   4.015  17.737  0.00  0.00    +0.000 A 
ATOM     10  C   UNL     1       4.783   4.008  16.369  0.00  0.00    +0.000 A 
ATOM     11  C   UNL     1       5.546   4.744  15.446  0.00  0.00    +0.000 A 
ATOM     12  C   UNL     1       6.641   5.495  15.876  0.00  0.00    +0.000 A 
ATOM     13  C   UNL     1       6.916   5.515  17.228  0.00  0.00    +0.000 A 
ATOM     14  C   UNL     1       6.161   4.817  18.144  0.00  0.00    +0.000 A 
ATOM     15  O   UNL     1       6.618   5.009  19.416  0.00  0.00    +0.000 OA
ATOM     16  C   UNL     1       7.823   5.763  19.170  0.00  0.00    +0.000 C 
ATOM     17  O   UNL     1       7.953   6.185  17.802  0.00  0.00    +0.000 OA
ENDBRANCH   2   9
BRANCH   7  18
ATOM     18  N   UNL     1       1.648   7.031  19.935  0.00  0.00    +0.000 N 
ATOM     19  C   UNL     1       1.220   7.657  21.071  0.00  0.00    +0.000 A 
ATOM     20  C   UNL     1       1.316   9.001  20.797  0.00  0.00    +0.000 A 
ATOM     21  N   UNL     1       1.788   9.203  19.527  0.00  0.00    +0.000 NA
ATOM     22  C   UNL     1       1.966   8.002  19.027  0.00  0.00    +0.000 A 
ENDBRANCH   7  18
TORSDOF 2
ENDMDL
MODEL 4
REMARK VINA RESULT:      -7.2      1.882      3.921
REMARK  Name = 
REMARK  2 active torsions:
REMARK  status: ('A' for Active; 'I' for Inactive)
REMARK    1  A    between atoms: C_2  and  C_3
REMARK    2  A    between atoms: C_16  and  N_17
REMARK                            x       y       z     vdW  Elec       q    Type
REMARK                         _______ _______ _______ _____ _____    ______ ____
ROOT
ATOM      1  O   UNL     1       4.171   8.027  16.366  0.00  0.00    +0.000 OA
ATOM      2  C   UNL     1       4.182   6.949  16.963  0.00  0.00    +0.000 C 
ATOM      3  N   UNL     1       3.227   6.611  17.927  0.00  0.00    +0.000 N 
ATOM      4  C   UNL     1       2.192   7.581  18.276  0.00  0.00    +0.000 C 
ATOM      5  C   UNL     1       2.020   7.685  19.794  0.00  0.00    +0.000 C 
ATOM      6  C   UNL     1       1.849   6.316  20.462  0.00  0.00    +0.000 C 
ATOM      7  C   UNL     1       2.956   5.345  20.020  0.00  0.00    +0.000 C 
ATOM      8  C   UNL     1       3.007   5.275  18.488  0.00  0.00    +0.000 C 
ENDROOT
BRANCH   2   9
ATOM      9  C   UNL     1       5.228   5.975  16.576  0.00  0.00    +0.000 A 
ATOM     10  C   UNL     1       5.109   5.330  15.333  0.00  0.00    +0.000 A 
ATOM     11  C   UNL     1       6.035   4.346  14.943  0.00  0.00    +0.000 A 
ATOM     12  C   UNL     1       7.089   3.996  15.788  0.00  0.00    +0.000 A 
ATOM     13  C   UNL     1       7.204   4.670  16.987  0.00  0.00    +0.000 A 
ATOM     14  C   UNL     1       6.316   5.653  17.368  0.00  0.00    +0.000 A 
ATOM     15  O   UNL     1       6.651   6.182  18.581  0.00  0.00    +0.000 OA
ATOM     16  C   UNL     1       7.734   5.316  18.976  0.00  0.00    +0.000 C 
ATOM     17  O   UNL     1       8.164   4.437  17.923  0.00  0.00    +0.000 OA
ENDBRANCH   2   9
BRANCH   7  18
ATOM     18  N   UNL     1       2.816   4.025  20.610  0.00  0.00    +0.000 N 
ATOM     19  C   UNL     1       3.535   2.906  20.300  0.00  0.00    +0.000 A 
ATOM     20  C   UNL     1       3.089   1.940  21.171  0.00  0.00    +0.000 A 
ATOM     21  N   UNL     1       2.119   2.445  21.998  0.00  0.00    +0.000 NA
ATOM     22  C   UNL     1       1.966   3.696  21.630  0.00  0.00    +0.000 A 
ENDBRANCH   7  18
TORSDOF 2
ENDMDL
MODEL 5
REMARK VINA RESULT:      -7.2      2.961      5.806
REMARK  Name = 
REMARK  2 active torsions:
REMARK  status: ('A' for Active; 'I' for Inactive)
REMARK    1  A    between atoms: C_2  and  C_3
REMARK    2  A    between atoms: C_16  and  N_17
REMARK                            x       y       z     vdW  Elec       q    Type
REMARK                         _______ _______ _______ _____ _____    ______ ____
ROOT
ATOM      1  O   UNL     1       2.470   3.153  16.809  0.00  0.00    +0.000 OA
ATOM      2  C   UNL     1       3.168   4.034  17.313  0.00  0.00    +0.000 C 
ATOM      3  N   UNL     1       4.326   4.523  16.698  0.00  0.00    +0.000 N 
ATOM      4  C   UNL     1       4.753   3.948  15.425  0.00  0.00    +0.000 C 
ATOM      5  C   UNL     1       6.255   3.652  15.428  0.00  0.00    +0.000 C 
ATOM      6  C   UNL     1       7.090   4.853  15.886  0.00  0.00    +0.000 C 
ATOM      7  C   UNL     1       6.559   5.419  17.213  0.00  0.00    +0.000 C 
ATOM      8  C   UNL     1       5.061   5.730  17.084  0.00  0.00    +0.000 C 
ENDROOT
BRANCH   2   9
ATOM      9  C   UNL     1       2.702   4.615  18.593  0.00  0.00    +0.000 A 
ATOM     10  C   UNL     1       2.359   5.978  18.618  0.00  0.00    +0.000 A 
ATOM     11  C   UNL     1       1.976   6.600  19.820  0.00  0.00    +0.000 A 
ATOM     12  C   UNL     1       1.931   5.869  21.008  0.00  0.00    +0.000 A 
ATOM     13  C   UNL     1       2.238   4.525  20.948  0.00  0.00    +0.000 A 
ATOM     14  C   UNL     1       2.591   3.900  19.772  0.00  0.00    +0.000 A 
ATOM     15  O   UNL     1       2.827   2.570  19.967  0.00  0.00    +0.000 OA
ATOM     16  C   UNL     1       2.742   2.477  21.403  0.00  0.00    +0.000 C 
ATOM     17  O   UNL     1       2.254   3.682  22.017  0.00  0.00    +0.000 OA
ENDBRANCH   2   9
BRANCH   7  18
ATOM     18  N   UNL     1       7.307   6.578  17.671  0.00  0.00    +0.000 N 
ATOM     19  C   UNL     1       7.289   7.833  17.130  0.00  0.00    +0.000 A 
ATOM     20  C   UNL     1       8.094   8.587  17.952  0.00  0.00    +0.000 A 
ATOM     21  N   UNL     1       8.598   7.822  18.971  0.00  0.00    +0.000 NA
ATOM     22  C   UNL     1       8.119   6.616  18.770  0.00  0.00    +0.000 A 
ENDBRANCH   7  18
TORSDOF 2
ENDMDL
MODEL 6
REMARK VINA RESULT:      -6.7      7.240      9.580
REMARK  Name = 
REMARK  2 active torsions:
REMARK  status: ('A' for Active; 'I' for Inactive)
REMARK    1  A    between atoms: C_2  and  C_3
REMARK    2  A    between atoms: C_16  and  N_17
REMARK                            x       y       z     vdW  Elec       q    Type
REMARK                         _______ _______ _______ _____ _____    ______ ____
ROOT
ATOM      1  O   UNL     1       0.318  10.261  18.259  0.00  0.00    +0.000 OA
ATOM      2  C   UNL     1      -0.775  10.697  18.623  0.00  0.00    +0.000 C 
ATOM      3  N   UNL     1      -1.948  10.504  17.886  0.00  0.00    +0.000 N 
ATOM      4  C   UNL     1      -1.881   9.791  16.614  0.00  0.00    +0.000 C 
ATOM      5  C   UNL     1      -2.676  10.520  15.528  0.00  0.00    +0.000 C 
ATOM      6  C   UNL     1      -4.099  10.871  15.976  0.00  0.00    +0.000 C 
ATOM      7  C   UNL     1      -4.087  11.589  17.335  0.00  0.00    +0.000 C 
ATOM      8  C   UNL     1      -3.313  10.751  18.361  0.00  0.00    +0.000 C 
ENDROOT
BRANCH   2   9
ATOM      9  C   UNL     1      -0.821  11.398  19.927  0.00  0.00    +0.000 A 
ATOM     10  C   UNL     1      -1.019  12.790  19.927  0.00  0.00    +0.000 A 
ATOM     11  C   UNL     1      -1.002  13.517  21.129  0.00  0.00    +0.000 A 
ATOM     12  C   UNL     1      -0.788  12.865  22.344  0.00  0.00    +0.000 A 
ATOM     13  C   UNL     1      -0.633  11.495  22.321  0.00  0.00    +0.000 A 
ATOM     14  C   UNL     1      -0.672  10.768  21.150  0.00  0.00    +0.000 A 
ATOM     15  O   UNL     1      -0.513   9.433  21.388  0.00  0.00    +0.000 OA
ATOM     16  C   UNL     1      -0.213   9.433  22.798  0.00  0.00    +0.000 C 
ATOM     17  O   UNL     1      -0.403  10.718  23.414  0.00  0.00    +0.000 OA
ENDBRANCH   2   9
BRANCH   7  18
ATOM     18  N   UNL     1      -5.420  11.917  17.811  0.00  0.00    +0.000 N 
ATOM     19  C   UNL     1      -6.245  12.897  17.334  0.00  0.00    +0.000 A 
ATOM     20  C   UNL     1      -7.410  12.763  18.052  0.00  0.00    +0.000 A 
ATOM     21  N   UNL     1      -7.311  11.732  18.949  0.00  0.00    +0.000 NA
ATOM     22  C   UNL     1      -6.100  11.250  18.792  0.00  0.00    +0.000 A 
ENDBRANCH   7  18
TORSDOF 2
ENDMDL
MODEL 7
REMARK VINA RESULT:      -6.6      3.184      5.785
REMARK  Name = 
REMARK  2 active torsions:
REMARK  status: ('A' for Active; 'I' for Inactive)
REMARK    1  A    between atoms: C_2  and  C_3
REMARK    2  A    between atoms: C_16  and  N_17
REMARK                            x       y       z     vdW  Elec       q    Type
REMARK                         _______ _______ _______ _____ _____    ______ ____
ROOT
ATOM      1  O   UNL     1       2.568   2.849  16.324  0.00  0.00    +0.000 OA
ATOM      2  C   UNL     1       3.252   3.632  16.985  0.00  0.00    +0.000 C 
ATOM      3  N   UNL     1       4.326   4.342  16.439  0.00  0.00    +0.000 N 
ATOM      4  C   UNL     1       4.684   4.127  15.039  0.00  0.00    +0.000 C 
ATOM      5  C   UNL     1       6.196   3.956  14.874  0.00  0.00    +0.000 C 
ATOM      6  C   UNL     1       6.993   5.070  15.562  0.00  0.00    +0.000 C 
ATOM      7  C   UNL     1       6.537   5.254  17.019  0.00  0.00    +0.000 C 
ATOM      8  C   UNL     1       5.018   5.471  17.066  0.00  0.00    +0.000 C 
ENDROOT
BRANCH   2   9
ATOM      9  C   UNL     1       2.856   3.847  18.396  0.00  0.00    +0.000 A 
ATOM     10  C   UNL     1       2.007   4.928  18.691  0.00  0.00    +0.000 A 
ATOM     11  C   UNL     1       1.654   5.222  20.019  0.00  0.00    +0.000 A 
ATOM     12  C   UNL     1       2.143   4.441  21.067  0.00  0.00    +0.000 A 
ATOM     13  C   UNL     1       2.945   3.365  20.748  0.00  0.00    +0.000 A 
ATOM     14  C   UNL     1       3.278   3.053  19.448  0.00  0.00    +0.000 A 
ATOM     15  O   UNL     1       4.062   1.937  19.389  0.00  0.00    +0.000 OA
ATOM     16  C   UNL     1       4.308   1.693  20.789  0.00  0.00    +0.000 C 
ATOM     17  O   UNL     1       3.510   2.519  21.653  0.00  0.00    +0.000 OA
ENDBRANCH   2   9
BRANCH   7  18
ATOM     18  N   UNL     1       7.249   6.321  17.702  0.00  0.00    +0.000 N 
ATOM     19  C   UNL     1       7.925   6.230  18.886  0.00  0.00    +0.000 A 
ATOM     20  C   UNL     1       8.485   7.472  19.074  0.00  0.00    +0.000 A 
ATOM     21  N   UNL     1       8.164   8.310  18.037  0.00  0.00    +0.000 NA
ATOM     22  C   UNL     1       7.410   7.595  17.234  0.00  0.00    +0.000 A 
ENDBRANCH   7  18
TORSDOF 2
ENDMDL
MODEL 8
REMARK VINA RESULT:      -6.5      2.734      5.634
REMARK  Name = 
REMARK  2 active torsions:
REMARK  status: ('A' for Active; 'I' for Inactive)
REMARK    1  A    between atoms: C_2  and  C_3
REMARK    2  A    between atoms: C_16  and  N_17
REMARK                            x       y       z     vdW  Elec       q    Type
REMARK                         _______ _______ _______ _____ _____    ______ ____
ROOT
ATOM      1  O   UNL     1       2.582   2.949  16.692  0.00  0.00    +0.000 OA
ATOM      2  C   UNL     1       3.288   3.791  17.248  0.00  0.00    +0.000 C 
ATOM      3  N   UNL     1       4.372   4.406  16.613  0.00  0.00    +0.000 N 
ATOM      4  C   UNL     1       4.712   4.015  15.248  0.00  0.00    +0.000 C 
ATOM      5  C   UNL     1       6.219   3.792  15.095  0.00  0.00    +0.000 C 
ATOM      6  C   UNL     1       7.045   4.964  15.638  0.00  0.00    +0.000 C 
ATOM      7  C   UNL     1       6.606   5.334  17.063  0.00  0.00    +0.000 C 
ATOM      8  C   UNL     1       5.092   5.588  17.093  0.00  0.00    +0.000 C 
ENDROOT
BRANCH   2   9
ATOM      9  C   UNL     1       2.909   4.186  18.624  0.00  0.00    +0.000 A 
ATOM     10  C   UNL     1       2.857   3.186  19.612  0.00  0.00    +0.000 A 
ATOM     11  C   UNL     1       2.437   3.489  20.919  0.00  0.00    +0.000 A 
ATOM     12  C   UNL     1       2.065   4.792  21.255  0.00  0.00    +0.000 A 
ATOM     13  C   UNL     1       2.160   5.761  20.278  0.00  0.00    +0.000 A 
ATOM     14  C   UNL     1       2.594   5.480  19.000  0.00  0.00    +0.000 A 
ATOM     15  O   UNL     1       2.619   6.603  18.225  0.00  0.00    +0.000 OA
ATOM     16  C   UNL     1       2.006   7.566  19.106  0.00  0.00    +0.000 C 
ATOM     17  O   UNL     1       1.823   7.069  20.442  0.00  0.00    +0.000 OA
ENDBRANCH   2   9
BRANCH   7  18
ATOM     18  N   UNL     1       7.347   6.460  17.607  0.00  0.00    +0.000 N 
ATOM     19  C   UNL     1       7.403   7.727  17.100  0.00  0.00    +0.000 A 
ATOM     20  C   UNL     1       8.163   8.438  17.999  0.00  0.00    +0.000 A 
ATOM     21  N   UNL     1       8.567   7.635  19.033  0.00  0.00    +0.000 NA
ATOM     22  C   UNL     1       8.074   6.448  18.765  0.00  0.00    +0.000 A 
ENDBRANCH   7  18
TORSDOF 2
ENDMDL
MODEL 9
REMARK VINA RESULT:      -6.3      2.427      5.535
REMARK  Name = 
REMARK  2 active torsions:
REMARK  status: ('A' for Active; 'I' for Inactive)
REMARK    1  A    between atoms: C_2  and  C_3
REMARK    2  A    between atoms: C_16  and  N_17
REMARK                            x       y       z     vdW  Elec       q    Type
REMARK                         _______ _______ _______ _____ _____    ______ ____
ROOT
ATOM      1  O   UNL     1       0.653   6.265  20.798  0.00  0.00    +0.000 OA
ATOM      2  C   UNL     1       1.644   5.846  20.198  0.00  0.00    +0.000 C 
ATOM      3  N   UNL     1       2.484   6.681  19.454  0.00  0.00    +0.000 N 
ATOM      4  C   UNL     1       2.163   8.101  19.347  0.00  0.00    +0.000 C 
ATOM      5  C   UNL     1       2.293   8.591  17.902  0.00  0.00    +0.000 C 
ATOM      6  C   UNL     1       3.633   8.200  17.267  0.00  0.00    +0.000 C 
ATOM      7  C   UNL     1       3.912   6.700  17.450  0.00  0.00    +0.000 C 
ATOM      8  C   UNL     1       3.809   6.327  18.936  0.00  0.00    +0.000 C 
ENDROOT
BRANCH   2   9
ATOM      9  C   UNL     1       1.960   4.406  20.340  0.00  0.00    +0.000 A 
ATOM     10  C   UNL     1       2.101   3.881  21.637  0.00  0.00    +0.000 A 
ATOM     11  C   UNL     1       2.468   2.538  21.832  0.00  0.00    +0.000 A 
ATOM     12  C   UNL     1       2.698   1.705  20.736  0.00  0.00    +0.000 A 
ATOM     13  C   UNL     1       2.517   2.235  19.475  0.00  0.00    +0.000 A 
ATOM     14  C   UNL     1       2.134   3.543  19.273  0.00  0.00    +0.000 A 
ATOM     15  O   UNL     1       2.003   3.823  17.943  0.00  0.00    +0.000 OA
ATOM     16  C   UNL     1       2.500   2.606  17.350  0.00  0.00    +0.000 C 
ATOM     17  O   UNL     1       2.714   1.559  18.310  0.00  0.00    +0.000 OA
ENDBRANCH   2   9
BRANCH   7  18
ATOM     18  N   UNL     1       5.187   6.291  16.886  0.00  0.00    +0.000 N 
ATOM     19  C   UNL     1       5.399   5.309  15.959  0.00  0.00    +0.000 A 
ATOM     20  C   UNL     1       6.747   5.353  15.694  0.00  0.00    +0.000 A 
ATOM     21  N   UNL     1       7.355   6.332  16.435  0.00  0.00    +0.000 NA
ATOM     22  C   UNL     1       6.396   6.871  17.152  0.00  0.00    +0.000 A 
ENDBRANCH   7  18
TORSDOF 2
ENDMDL
