MODEL 1
REMARK VINA RESULT:      -9.1      0.000      0.000
REMARK  Name = 
REMARK  6 active torsions:
REMARK  status: ('A' for Active; 'I' for Inactive)
REMARK    1  A    between atoms: C_2  and  C_4
REMARK    2  A    between atoms: C_7  and  O_8
REMARK    3  A    between atoms: C_9  and  C_10
REMARK    4  A    between atoms: N_12  and  C_13
REMARK    5  A    between atoms: C_15  and  C_16
REMARK    6  A    between atoms: C_21  and  C_22
REMARK                            x       y       z     vdW  Elec       q    Type
REMARK                         _______ _______ _______ _____ _____    ______ ____
ROOT
ATOM      1  C   UNL     1       2.144   7.529  19.445  0.00  0.00    +0.000 C 
ATOM      2  O   UNL     1       2.122   6.734  20.384  0.00  0.00    +0.000 OA
ATOM      3  N   UNL     1       2.832   7.329  18.260  0.00  0.00    +0.000 N 
ATOM      4  H   UNL     1       2.904   8.134  17.642  0.00  0.00    +0.000 HD
ENDROOT
BRANCH   1   9
ATOM      5  C   UNL     1       0.182  10.218  21.204  0.00  0.00    +0.000 A 
ATOM      6  C   UNL     1      -0.027  11.163  20.197  0.00  0.00    +0.000 A 
ATOM      7  C   UNL     1       0.495  10.953  18.916  0.00  0.00    +0.000 A 
ATOM      8  C   UNL     1       1.221   9.790  18.634  0.00  0.00    +0.000 A 
ATOM      9  C   UNL     1       1.417   8.821  19.627  0.00  0.00    +0.000 A 
ATOM     10  C   UNL     1       0.884   9.048  20.911  0.00  0.00    +0.000 A 
BRANCH   5  12
ATOM     11  N   UNL     1      -0.645   9.375  23.332  0.00  0.00    +0.000 N 
ATOM     12  C   UNL     1      -0.367  10.469  22.560  0.00  0.00    +0.000 C 
ATOM     13  O   UNL     1      -0.531  11.605  22.981  0.00  0.00    +0.000 OA
ATOM     14  H   UNL     1      -0.960   9.545  24.279  0.00  0.00    +0.000 HD
ATOM     15  H   UNL     1      -0.366   8.433  23.093  0.00  0.00    +0.000 HD
ENDBRANCH   5  12
BRANCH   8  16
ATOM     16  O   UNL     1       1.736   9.619  17.376  0.00  0.00    +0.000 OA
ATOM     17  H   UNL     1       1.071   9.163  16.827  0.00  0.00    +0.000 HD
ENDBRANCH   8  16
ENDBRANCH   1   9
BRANCH   3  18
ATOM     18  C   UNL     1       3.528   6.151  17.910  0.00  0.00    +0.000 A 
ATOM     19  C   UNL     1       2.985   4.877  18.098  0.00  0.00    +0.000 A 
ATOM     20  C   UNL     1       3.708   3.717  17.788  0.00  0.00    +0.000 A 
ATOM     21  C   UNL     1       5.001   3.848  17.270  0.00  0.00    +0.000 A 
ATOM     22  C   UNL     1       5.566   5.116  17.058  0.00  0.00    +0.000 A 
ATOM     23  C   UNL     1       4.809   6.265  17.362  0.00  0.00    +0.000 A 
BRANCH  20  24
ATOM     24  C   UNL     1       3.103   2.352  18.023  0.00  0.00    +0.000 C 
ATOM     25  F   UNL     1       1.953   2.127  17.331  0.00  0.00    +0.000 F 
ATOM     26  F   UNL     1       3.952   1.347  17.672  0.00  0.00    +0.000 F 
ATOM     27  F   UNL     1       2.798   2.143  19.334  0.00  0.00    +0.000 F 
ENDBRANCH  20  24
BRANCH  22  28
ATOM     28  C   UNL     1       6.979   5.252  16.543  0.00  0.00    +0.000 C 
ATOM     29  F   UNL     1       7.504   6.498  16.717  0.00  0.00    +0.000 F 
ATOM     30  F   UNL     1       7.843   4.394  17.151  0.00  0.00    +0.000 F 
ATOM     31  F   UNL     1       7.071   4.995  15.209  0.00  0.00    +0.000 F 
ENDBRANCH  22  28
ENDBRANCH   3  18
TORSDOF 6
ENDMDL
MODEL 2
REMARK VINA RESULT:      -8.9      1.274      1.704
REMARK  Name = 
REMARK  6 active torsions:
REMARK  status: ('A' for Active; 'I' for Inactive)
REMARK    1  A    between atoms: C_2  and  C_4
REMARK    2  A    between atoms: C_7  and  O_8
REMARK    3  A    between atoms: C_9  and  C_10
REMARK    4  A    between atoms: N_12  and  C_13
REMARK    5  A    between atoms: C_15  and  C_16
REMARK    6  A    between atoms: C_21  and  C_22
REMARK                            x       y       z     vdW  Elec       q    Type
REMARK                         _______ _______ _______ _____ _____    ______ ____
ROOT
ATOM      1  C   UNL     1       1.743   8.861  18.474  0.00  0.00    +0.000 C 
ATOM      2  O   UNL     1       1.653   8.976  17.252  0.00  0.00    +0.000 OA
ATOM      3  N   UNL     1       2.187   7.725  19.128  0.00  0.00    +0.000 N 
ATOM      4  H   UNL     1       2.052   7.705  20.137  0.00  0.00    +0.000 HD
ENDROOT
BRANCH   1   9
ATOM      5  C   UNL     1       0.154  10.686  21.359  0.00  0.00    +0.000 A 
ATOM      6  C   UNL     1       0.313  12.028  21.007  0.00  0.00    +0.000 A 
ATOM      7  C   UNL     1       0.972  12.371  19.822  0.00  0.00    +0.000 A 
ATOM      8  C   UNL     1       1.466  11.370  18.977  0.00  0.00    +0.000 A 
ATOM      9  C   UNL     1       1.291  10.019  19.304  0.00  0.00    +0.000 A 
ATOM     10  C   UNL     1       0.625   9.692  20.501  0.00  0.00    +0.000 A 
BRANCH   5  12
ATOM     11  N   UNL     1      -0.645   9.018  22.942  0.00  0.00    +0.000 N 
ATOM     12  C   UNL     1      -0.534  10.345  22.630  0.00  0.00    +0.000 C 
ATOM     13  O   UNL     1      -0.953  11.214  23.381  0.00  0.00    +0.000 OA
ATOM     14  H   UNL     1      -1.057   8.786  23.837  0.00  0.00    +0.000 HD
ATOM     15  H   UNL     1      -0.166   8.281  22.442  0.00  0.00    +0.000 HD
ENDBRANCH   5  12
BRANCH   8  16
ATOM     16  O   UNL     1       2.123  11.735  17.831  0.00  0.00    +0.000 OA
ATOM     17  H   UNL     1       2.625  10.965  17.502  0.00  0.00    +0.000 HD
ENDBRANCH   8  16
ENDBRANCH   1   9
BRANCH   3  18
ATOM     18  C   UNL     1       2.691   6.566  18.497  0.00  0.00    +0.000 A 
ATOM     19  C   UNL     1       2.133   5.300  18.700  0.00  0.00    +0.000 A 
ATOM     20  C   UNL     1       2.674   4.154  18.101  0.00  0.00    +0.000 A 
ATOM     21  C   UNL     1       3.794   4.291  17.274  0.00  0.00    +0.000 A 
ATOM     22  C   UNL     1       4.366   5.553  17.041  0.00  0.00    +0.000 A 
ATOM     23  C   UNL     1       3.790   6.690  17.642  0.00  0.00    +0.000 A 
BRANCH  20  24
ATOM     24  C   UNL     1       2.063   2.796  18.358  0.00  0.00    +0.000 C 
ATOM     25  F   UNL     1       0.703   2.799  18.412  0.00  0.00    +0.000 F 
ATOM     26  F   UNL     1       2.396   1.893  17.395  0.00  0.00    +0.000 F 
ATOM     27  F   UNL     1       2.483   2.257  19.536  0.00  0.00    +0.000 F 
ENDBRANCH  20  24
BRANCH  22  28
ATOM     28  C   UNL     1       5.603   5.691  16.186  0.00  0.00    +0.000 C 
ATOM     29  F   UNL     1       6.210   4.502  15.911  0.00  0.00    +0.000 F 
ATOM     30  F   UNL     1       5.345   6.267  14.981  0.00  0.00    +0.000 F 
ATOM     31  F   UNL     1       6.556   6.465  16.776  0.00  0.00    +0.000 F 
ENDBRANCH  22  28
ENDBRANCH   3  18
TORSDOF 6
ENDMDL
MODEL 3
REMARK VINA RESULT:      -8.9      1.319      3.680
REMARK  Name = 
REMARK  6 active torsions:
REMARK  status: ('A' for Active; 'I' for Inactive)
REMARK    1  A    between atoms: C_2  and  C_4
REMARK    2  A    between atoms: C_7  and  O_8
REMARK    3  A    between atoms: C_9  and  C_10
REMARK    4  A    between atoms: N_12  and  C_13
REMARK    5  A    between atoms: C_15  and  C_16
REMARK    6  A    between atoms: C_21  and  C_22
REMARK                            x       y       z     vdW  Elec       q    Type
REMARK                         _______ _______ _______ _____ _____    ______ ____
ROOT
ATOM      1  C   UNL     1       1.729   8.869  18.497  0.00  0.00    +0.000 C 
ATOM      2  O   UNL     1       1.597   8.948  17.276  0.00  0.00    +0.000 OA
ATOM      3  N   UNL     1       2.233   7.766  19.165  0.00  0.00    +0.000 N 
ATOM      4  H   UNL     1       2.130   7.769  20.178  0.00  0.00    +0.000 HD
ENDROOT
BRANCH   1   9
ATOM      5  C   UNL     1       0.116  10.714  21.356  0.00  0.00    +0.000 A 
ATOM      6  C   UNL     1       0.261  12.053  20.986  0.00  0.00    +0.000 A 
ATOM      7  C   UNL     1       0.918  12.387  19.798  0.00  0.00    +0.000 A 
ATOM      8  C   UNL     1       1.424  11.381  18.966  0.00  0.00    +0.000 A 
ATOM      9  C   UNL     1       1.263  10.032  19.311  0.00  0.00    +0.000 A 
ATOM     10  C   UNL     1       0.599   9.714  20.511  0.00  0.00    +0.000 A 
BRANCH   5  12
ATOM     11  N   UNL     1      -0.638   9.061  22.976  0.00  0.00    +0.000 N 
ATOM     12  C   UNL     1      -0.570  10.382  22.630  0.00  0.00    +0.000 C 
ATOM     13  O   UNL     1      -1.025  11.255  23.355  0.00  0.00    +0.000 OA
ATOM     14  H   UNL     1      -1.050   8.838  23.873  0.00  0.00    +0.000 HD
ATOM     15  H   UNL     1      -0.130   8.328  22.498  0.00  0.00    +0.000 HD
ENDBRANCH   5  12
BRANCH   8  16
ATOM     16  O   UNL     1       2.079  11.738  17.817  0.00  0.00    +0.000 OA
ATOM     17  H   UNL     1       2.588  12.552  17.989  0.00  0.00    +0.000 HD
ENDBRANCH   8  16
ENDBRANCH   1   9
BRANCH   3  18
ATOM     18  C   UNL     1       2.756   6.609  18.548  0.00  0.00    +0.000 A 
ATOM     19  C   UNL     1       3.787   6.665  17.604  0.00  0.00    +0.000 A 
ATOM     20  C   UNL     1       4.264   5.511  16.968  0.00  0.00    +0.000 A 
ATOM     21  C   UNL     1       3.695   4.276  17.298  0.00  0.00    +0.000 A 
ATOM     22  C   UNL     1       2.668   4.188  18.253  0.00  0.00    +0.000 A 
ATOM     23  C   UNL     1       2.221   5.363  18.889  0.00  0.00    +0.000 A 
BRANCH  20  24
ATOM     24  C   UNL     1       5.363   5.605  15.936  0.00  0.00    +0.000 C 
ATOM     25  F   UNL     1       6.617   5.661  16.462  0.00  0.00    +0.000 F 
ATOM     26  F   UNL     1       5.364   4.540  15.087  0.00  0.00    +0.000 F 
ATOM     27  F   UNL     1       5.237   6.709  15.149  0.00  0.00    +0.000 F 
ENDBRANCH  20  24
BRANCH  22  28
ATOM     28  C   UNL     1       2.024   2.861  18.571  0.00  0.00    +0.000 C 
ATOM     29  F   UNL     1       2.195   1.925  17.595  0.00  0.00    +0.000 F 
ATOM     30  F   UNL     1       2.509   2.304  19.713  0.00  0.00    +0.000 F 
ATOM     31  F   UNL     1       0.678   2.968  18.749  0.00  0.00    +0.000 F 
ENDBRANCH  22  28
ENDBRANCH   3  18
TORSDOF 6
ENDMDL
MODEL 4
REMARK VINA RESULT:      -8.9      0.600      1.199
REMARK  Name = 
REMARK  6 active torsions:
REMARK  status: ('A' for Active; 'I' for Inactive)
REMARK    1  A    between atoms: C_2  and  C_4
REMARK    2  A    between atoms: C_7  and  O_8
REMARK    3  A    between atoms: C_9  and  C_10
REMARK    4  A    between atoms: N_12  and  C_13
REMARK    5  A    between atoms: C_15  and  C_16
REMARK    6  A    between atoms: C_21  and  C_22
REMARK                            x       y       z     vdW  Elec       q    Type
REMARK                         _______ _______ _______ _____ _____    ______ ____
ROOT
ATOM      1  C   UNL     1       2.125   7.377  19.478  0.00  0.00    +0.000 C 
ATOM      2  O   UNL     1       1.977   6.526  20.355  0.00  0.00    +0.000 OA
ATOM      3  N   UNL     1       2.902   7.213  18.344  0.00  0.00    +0.000 N 
ATOM      4  H   UNL     1       3.073   8.050  17.791  0.00  0.00    +0.000 HD
ENDROOT
BRANCH   1   9
ATOM      5  C   UNL     1       0.292  10.118  21.295  0.00  0.00    +0.000 A 
ATOM      6  C   UNL     1       0.121  11.090  20.306  0.00  0.00    +0.000 A 
ATOM      7  C   UNL     1       0.628  10.881  19.020  0.00  0.00    +0.000 A 
ATOM      8  C   UNL     1       1.301   9.692  18.713  0.00  0.00    +0.000 A 
ATOM      9  C   UNL     1       1.457   8.696  19.687  0.00  0.00    +0.000 A 
ATOM     10  C   UNL     1       0.940   8.924  20.977  0.00  0.00    +0.000 A 
BRANCH   5  12
ATOM     11  N   UNL     1      -1.315  11.207  22.765  0.00  0.00    +0.000 N 
ATOM     12  C   UNL     1      -0.240  10.368  22.658  0.00  0.00    +0.000 C 
ATOM     13  O   UNL     1       0.242   9.821  23.640  0.00  0.00    +0.000 OA
ATOM     14  H   UNL     1      -1.717  11.329  23.685  0.00  0.00    +0.000 HD
ATOM     15  H   UNL     1      -1.847  11.540  21.972  0.00  0.00    +0.000 HD
ENDBRANCH   5  12
BRANCH   8  16
ATOM     16  O   UNL     1       1.803   9.521  17.450  0.00  0.00    +0.000 OA
ATOM     17  H   UNL     1       2.522  10.166  17.311  0.00  0.00    +0.000 HD
ENDBRANCH   8  16
ENDBRANCH   1   9
BRANCH   3  18
ATOM     18  C   UNL     1       3.561   6.020  17.974  0.00  0.00    +0.000 A 
ATOM     19  C   UNL     1       2.987   4.758  18.161  0.00  0.00    +0.000 A 
ATOM     20  C   UNL     1       3.673   3.582  17.830  0.00  0.00    +0.000 A 
ATOM     21  C   UNL     1       4.961   3.682  17.290  0.00  0.00    +0.000 A 
ATOM     22  C   UNL     1       5.556   4.937  17.078  0.00  0.00    +0.000 A 
ATOM     23  C   UNL     1       4.835   6.103  17.404  0.00  0.00    +0.000 A 
BRANCH  20  24
ATOM     24  C   UNL     1       3.036   2.232  18.064  0.00  0.00    +0.000 C 
ATOM     25  F   UNL     1       3.923   1.202  18.125  0.00  0.00    +0.000 F 
ATOM     26  F   UNL     1       2.336   2.190  19.231  0.00  0.00    +0.000 F 
ATOM     27  F   UNL     1       2.149   1.905  17.084  0.00  0.00    +0.000 F 
ENDBRANCH  20  24
BRANCH  22  28
ATOM     28  C   UNL     1       6.963   5.040  16.541  0.00  0.00    +0.000 C 
ATOM     29  F   UNL     1       7.868   4.297  17.239  0.00  0.00    +0.000 F 
ATOM     30  F   UNL     1       7.061   4.631  15.247  0.00  0.00    +0.000 F 
ATOM     31  F   UNL     1       7.434   6.318  16.567  0.00  0.00    +0.000 F 
ENDBRANCH  22  28
ENDBRANCH   3  18
TORSDOF 6
ENDMDL
MODEL 5
REMARK VINA RESULT:      -8.9      0.205      3.390
REMARK  Name = 
REMARK  6 active torsions:
REMARK  status: ('A' for Active; 'I' for Inactive)
REMARK    1  A    between atoms: C_2  and  C_4
REMARK    2  A    between atoms: C_7  and  O_8
REMARK    3  A    between atoms: C_9  and  C_10
REMARK    4  A    between atoms: N_12  and  C_13
REMARK    5  A    between atoms: C_15  and  C_16
REMARK    6  A    between atoms: C_21  and  C_22
REMARK                            x       y       z     vdW  Elec       q    Type
REMARK                         _______ _______ _______ _____ _____    ______ ____
ROOT
ATOM      1  C   UNL     1       2.118   7.550  19.508  0.00  0.00    +0.000 C 
ATOM      2  O   UNL     1       2.066   6.741  20.434  0.00  0.00    +0.000 OA
ATOM      3  N   UNL     1       2.861   7.376  18.352  0.00  0.00    +0.000 N 
ATOM      4  H   UNL     1       2.948   8.191  17.748  0.00  0.00    +0.000 HD
ENDROOT
BRANCH   1   9
ATOM      5  C   UNL     1       0.114  10.226  21.239  0.00  0.00    +0.000 A 
ATOM      6  C   UNL     1      -0.124  11.149  20.218  0.00  0.00    +0.000 A 
ATOM      7  C   UNL     1       0.391  10.928  18.936  0.00  0.00    +0.000 A 
ATOM      8  C   UNL     1       1.139   9.776  18.667  0.00  0.00    +0.000 A 
ATOM      9  C   UNL     1       1.365   8.828  19.675  0.00  0.00    +0.000 A 
ATOM     10  C   UNL     1       0.839   9.067  20.959  0.00  0.00    +0.000 A 
BRANCH   5  12
ATOM     11  N   UNL     1      -0.737   9.401  23.365  0.00  0.00    +0.000 N 
ATOM     12  C   UNL     1      -0.427  10.489  22.595  0.00  0.00    +0.000 C 
ATOM     13  O   UNL     1      -0.560  11.628  23.020  0.00  0.00    +0.000 OA
ATOM     14  H   UNL     1      -1.047   9.577  24.312  0.00  0.00    +0.000 HD
ATOM     15  H   UNL     1      -0.484   8.452  23.123  0.00  0.00    +0.000 HD
ENDBRANCH   5  12
BRANCH   8  16
ATOM     16  O   UNL     1       1.647   9.594  17.407  0.00  0.00    +0.000 OA
ATOM     17  H   UNL     1       2.614   9.715  17.442  0.00  0.00    +0.000 HD
ENDBRANCH   8  16
ENDBRANCH   1   9
BRANCH   3  18
ATOM     18  C   UNL     1       3.589   6.213  18.018  0.00  0.00    +0.000 A 
ATOM     19  C   UNL     1       4.878   6.267  17.477  0.00  0.00    +0.000 A 
ATOM     20  C   UNL     1       5.569   5.104  17.110  0.00  0.00    +0.000 A 
ATOM     21  C   UNL     1       4.950   3.863  17.301  0.00  0.00    +0.000 A 
ATOM     22  C   UNL     1       3.661   3.780  17.855  0.00  0.00    +0.000 A 
ATOM     23  C   UNL     1       2.998   4.964  18.232  0.00  0.00    +0.000 A 
BRANCH  20  24
ATOM     24  C   UNL     1       6.951   5.194  16.506  0.00  0.00    +0.000 C 
ATOM     25  F   UNL     1       7.837   4.292  17.011  0.00  0.00    +0.000 F 
ATOM     26  F   UNL     1       6.938   4.990  15.160  0.00  0.00    +0.000 F 
ATOM     27  F   UNL     1       7.515   6.419  16.694  0.00  0.00    +0.000 F 
ENDBRANCH  20  24
BRANCH  22  28
ATOM     28  C   UNL     1       2.978   2.443  18.016  0.00  0.00    +0.000 C 
ATOM     29  F   UNL     1       2.186   2.366  19.122  0.00  0.00    +0.000 F 
ATOM     30  F   UNL     1       2.178   2.134  16.960  0.00  0.00    +0.000 F 
ATOM     31  F   UNL     1       3.868   1.418  18.124  0.00  0.00    +0.000 F 
ENDBRANCH  22  28
ENDBRANCH   3  18
TORSDOF 6
ENDMDL
MODEL 6
REMARK VINA RESULT:      -8.8      1.492      3.731
REMARK  Name = 
REMARK  6 active torsions:
REMARK  status: ('A' for Active; 'I' for Inactive)
REMARK    1  A    between atoms: C_2  and  C_4
REMARK    2  A    between atoms: C_7  and  O_8
REMARK    3  A    between atoms: C_9  and  C_10
REMARK    4  A    between atoms: N_12  and  C_13
REMARK    5  A    between atoms: C_15  and  C_16
REMARK    6  A    between atoms: C_21  and  C_22
REMARK                            x       y       z     vdW  Elec       q    Type
REMARK                         _______ _______ _______ _____ _____    ______ ____
ROOT
ATOM      1  C   UNL     1       1.671   8.572  18.737  0.00  0.00    +0.000 C 
ATOM      2  O   UNL     1       1.560   8.589  17.511  0.00  0.00    +0.000 OA
ATOM      3  N   UNL     1       2.106   7.483  19.473  0.00  0.00    +0.000 N 
ATOM      4  H   UNL     1       1.989   7.549  20.482  0.00  0.00    +0.000 HD
ENDROOT
BRANCH   1   9
ATOM      5  C   UNL     1       0.249  10.659  21.529  0.00  0.00    +0.000 A 
ATOM      6  C   UNL     1       0.360  11.961  21.035  0.00  0.00    +0.000 A 
ATOM      7  C   UNL     1       0.930  12.190  19.779  0.00  0.00    +0.000 A 
ATOM      8  C   UNL     1       1.384  11.115  19.005  0.00  0.00    +0.000 A 
ATOM      9  C   UNL     1       1.256   9.801  19.476  0.00  0.00    +0.000 A 
ATOM     10  C   UNL     1       0.679   9.589  20.743  0.00  0.00    +0.000 A 
BRANCH   5  12
ATOM     11  N   UNL     1      -1.550  11.034  23.126  0.00  0.00    +0.000 N 
ATOM     12  C   UNL     1      -0.344  10.440  22.872  0.00  0.00    +0.000 C 
ATOM     13  O   UNL     1       0.205   9.732  23.704  0.00  0.00    +0.000 OA
ATOM     14  H   UNL     1      -1.985  10.835  24.018  0.00  0.00    +0.000 HD
ATOM     15  H   UNL     1      -2.116  11.481  22.417  0.00  0.00    +0.000 HD
ENDBRANCH   5  12
BRANCH   8  16
ATOM     16  O   UNL     1       1.955  11.370  17.786  0.00  0.00    +0.000 OA
ATOM     17  H   UNL     1       1.363  11.961  17.283  0.00  0.00    +0.000 HD
ENDBRANCH   8  16
ENDBRANCH   1   9
BRANCH   3  18
ATOM     18  C   UNL     1       2.577   6.268  18.931  0.00  0.00    +0.000 A 
ATOM     19  C   UNL     1       3.619   6.217  18.000  0.00  0.00    +0.000 A 
ATOM     20  C   UNL     1       4.043   5.006  17.437  0.00  0.00    +0.000 A 
ATOM     21  C   UNL     1       3.409   3.822  17.829  0.00  0.00    +0.000 A 
ATOM     22  C   UNL     1       2.368   3.842  18.773  0.00  0.00    +0.000 A 
ATOM     23  C   UNL     1       1.975   5.072  19.335  0.00  0.00    +0.000 A 
BRANCH  20  24
ATOM     24  C   UNL     1       5.157   4.985  16.416  0.00  0.00    +0.000 C 
ATOM     25  F   UNL     1       5.533   6.217  15.978  0.00  0.00    +0.000 F 
ATOM     26  F   UNL     1       6.288   4.401  16.901  0.00  0.00    +0.000 F 
ATOM     27  F   UNL     1       4.820   4.278  15.302  0.00  0.00    +0.000 F 
ENDBRANCH  20  24
BRANCH  22  28
ATOM     28  C   UNL     1       1.654   2.569  19.157  0.00  0.00    +0.000 C 
ATOM     29  F   UNL     1       1.357   2.491  20.485  0.00  0.00    +0.000 F 
ATOM     30  F   UNL     1       0.474   2.411  18.500  0.00  0.00    +0.000 F 
ATOM     31  F   UNL     1       2.391   1.458  18.877  0.00  0.00    +0.000 F 
ENDBRANCH  22  28
ENDBRANCH   3  18
TORSDOF 6
ENDMDL
MODEL 7
REMARK VINA RESULT:      -8.8      0.783      3.431
REMARK  Name = 
REMARK  6 active torsions:
REMARK  status: ('A' for Active; 'I' for Inactive)
REMARK    1  A    between atoms: C_2  and  C_4
REMARK    2  A    between atoms: C_7  and  O_8
REMARK    3  A    between atoms: C_9  and  C_10
REMARK    4  A    between atoms: N_12  and  C_13
REMARK    5  A    between atoms: C_15  and  C_16
REMARK    6  A    between atoms: C_21  and  C_22
REMARK                            x       y       z     vdW  Elec       q    Type
REMARK                         _______ _______ _______ _____ _____    ______ ____
ROOT
ATOM      1  C   UNL     1       1.953   7.911  19.470  0.00  0.00    +0.000 C 
ATOM      2  O   UNL     1       2.080   7.190  20.459  0.00  0.00    +0.000 OA
ATOM      3  N   UNL     1       2.431   7.608  18.207  0.00  0.00    +0.000 N 
ATOM      4  H   UNL     1       2.408   8.363  17.525  0.00  0.00    +0.000 HD
ENDROOT
BRANCH   1   9
ATOM      5  C   UNL     1       0.055  10.634  21.248  0.00  0.00    +0.000 A 
ATOM      6  C   UNL     1      -0.075  11.619  20.266  0.00  0.00    +0.000 A 
ATOM      7  C   UNL     1       0.482  11.424  18.997  0.00  0.00    +0.000 A 
ATOM      8  C   UNL     1       1.163  10.237  18.703  0.00  0.00    +0.000 A 
ATOM      9  C   UNL     1       1.280   9.230  19.670  0.00  0.00    +0.000 A 
ATOM     10  C   UNL     1       0.713   9.442  20.941  0.00  0.00    +0.000 A 
BRANCH   5  12
ATOM     11  N   UNL     1      -0.895   9.766  23.314  0.00  0.00    +0.000 N 
ATOM     12  C   UNL     1      -0.529  10.869  22.592  0.00  0.00    +0.000 C 
ATOM     13  O   UNL     1      -0.647  11.997  23.049  0.00  0.00    +0.000 OA
ATOM     14  H   UNL     1      -1.235   9.921  24.255  0.00  0.00    +0.000 HD
ATOM     15  H   UNL     1      -0.659   8.819  23.051  0.00  0.00    +0.000 HD
ENDBRANCH   5  12
BRANCH   8  16
ATOM     16  O   UNL     1       1.715  10.081  17.458  0.00  0.00    +0.000 OA
ATOM     17  H   UNL     1       1.467  10.850  16.910  0.00  0.00    +0.000 HD
ENDBRANCH   8  16
ENDBRANCH   1   9
BRANCH   3  18
ATOM     18  C   UNL     1       3.048   6.392  17.840  0.00  0.00    +0.000 A 
ATOM     19  C   UNL     1       4.253   6.347  17.132  0.00  0.00    +0.000 A 
ATOM     20  C   UNL     1       4.828   5.132  16.736  0.00  0.00    +0.000 A 
ATOM     21  C   UNL     1       4.177   3.938  17.069  0.00  0.00    +0.000 A 
ATOM     22  C   UNL     1       2.972   3.953  17.792  0.00  0.00    +0.000 A 
ATOM     23  C   UNL     1       2.427   5.189  18.192  0.00  0.00    +0.000 A 
BRANCH  20  24
ATOM     24  C   UNL     1       6.120   5.115  15.953  0.00  0.00    +0.000 C 
ATOM     25  F   UNL     1       6.685   3.882  15.838  0.00  0.00    +0.000 F 
ATOM     26  F   UNL     1       5.955   5.570  14.680  0.00  0.00    +0.000 F 
ATOM     27  F   UNL     1       7.072   5.912  16.514  0.00  0.00    +0.000 F 
ENDBRANCH  20  24
BRANCH  22  28
ATOM     28  C   UNL     1       2.249   2.667  18.108  0.00  0.00    +0.000 C 
ATOM     29  F   UNL     1       2.390   1.713  17.145  0.00  0.00    +0.000 F 
ATOM     30  F   UNL     1       2.677   2.096  19.266  0.00  0.00    +0.000 F 
ATOM     31  F   UNL     1       0.907   2.850  18.254  0.00  0.00    +0.000 F 
ENDBRANCH  22  28
ENDBRANCH   3  18
TORSDOF 6
ENDMDL
MODEL 8
REMARK VINA RESULT:      -8.8      1.321      1.808
REMARK  Name = 
REMARK  6 active torsions:
REMARK  status: ('A' for Active; 'I' for Inactive)
REMARK    1  A    between atoms: C_2  and  C_4
REMARK    2  A    between atoms: C_7  and  O_8
REMARK    3  A    between atoms: C_9  and  C_10
REMARK    4  A    between atoms: N_12  and  C_13
REMARK    5  A    between atoms: C_15  and  C_16
REMARK    6  A    between atoms: C_21  and  C_22
REMARK                            x       y       z     vdW  Elec       q    Type
REMARK                         _______ _______ _______ _____ _____    ______ ____
ROOT
ATOM      1  C   UNL     1       1.554   8.849  18.608  0.00  0.00    +0.000 C 
ATOM      2  O   UNL     1       1.230   8.865  17.420  0.00  0.00    +0.000 OA
ATOM      3  N   UNL     1       2.198   7.796  19.234  0.00  0.00    +0.000 N 
ATOM      4  H   UNL     1       2.254   7.844  20.249  0.00  0.00    +0.000 HD
ENDROOT
BRANCH   1   9
ATOM      5  C   UNL     1       0.132  10.771  21.517  0.00  0.00    +0.000 A 
ATOM      6  C   UNL     1       0.330  12.101  21.140  0.00  0.00    +0.000 A 
ATOM      7  C   UNL     1       0.961  12.403  19.929  0.00  0.00    +0.000 A 
ATOM      8  C   UNL     1       1.388  11.373  19.083  0.00  0.00    +0.000 A 
ATOM      9  C   UNL     1       1.173  10.033  19.435  0.00  0.00    +0.000 A 
ATOM     10  C   UNL     1       0.536   9.748  20.658  0.00  0.00    +0.000 A 
BRANCH   5  12
ATOM     11  N   UNL     1      -0.268   9.254  23.378  0.00  0.00    +0.000 N 
ATOM     12  C   UNL     1      -0.525  10.473  22.814  0.00  0.00    +0.000 C 
ATOM     13  O   UNL     1      -1.239  11.295  23.371  0.00  0.00    +0.000 OA
ATOM     14  H   UNL     1      -0.665   9.074  24.292  0.00  0.00    +0.000 HD
ATOM     15  H   UNL     1       0.444   8.619  23.043  0.00  0.00    +0.000 HD
ENDBRANCH   5  12
BRANCH   8  16
ATOM     16  O   UNL     1       2.020  11.697  17.911  0.00  0.00    +0.000 OA
ATOM     17  H   UNL     1       2.605  10.958  17.659  0.00  0.00    +0.000 HD
ENDBRANCH   8  16
ENDBRANCH   1   9
BRANCH   3  18
ATOM     18  C   UNL     1       2.665   6.629  18.592  0.00  0.00    +0.000 A 
ATOM     19  C   UNL     1       2.118   5.366  18.842  0.00  0.00    +0.000 A 
ATOM     20  C   UNL     1       2.623   4.212  18.229  0.00  0.00    +0.000 A 
ATOM     21  C   UNL     1       3.697   4.336  17.340  0.00  0.00    +0.000 A 
ATOM     22  C   UNL     1       4.258   5.593  17.060  0.00  0.00    +0.000 A 
ATOM     23  C   UNL     1       3.717   6.739  17.677  0.00  0.00    +0.000 A 
BRANCH  20  24
ATOM     24  C   UNL     1       2.026   2.858  18.536  0.00  0.00    +0.000 C 
ATOM     25  F   UNL     1       2.522   2.273  19.659  0.00  0.00    +0.000 F 
ATOM     26  F   UNL     1       0.677   2.920  18.713  0.00  0.00    +0.000 F 
ATOM     27  F   UNL     1       2.230   1.966  17.527  0.00  0.00    +0.000 F 
ENDBRANCH  20  24
BRANCH  22  28
ATOM     28  C   UNL     1       5.446   5.717  16.137  0.00  0.00    +0.000 C 
ATOM     29  F   UNL     1       5.207   6.494  15.043  0.00  0.00    +0.000 F 
ATOM     30  F   UNL     1       6.532   6.260  16.752  0.00  0.00    +0.000 F 
ATOM     31  F   UNL     1       5.853   4.510  15.654  0.00  0.00    +0.000 F 
ENDBRANCH  22  28
ENDBRANCH   3  18
TORSDOF 6
ENDMDL
MODEL 9
REMARK VINA RESULT:      -8.7      0.879      3.397
REMARK  Name = 
REMARK  6 active torsions:
REMARK  status: ('A' for Active; 'I' for Inactive)
REMARK    1  A    between atoms: C_2  and  C_4
REMARK    2  A    between atoms: C_7  and  O_8
REMARK    3  A    between atoms: C_9  and  C_10
REMARK    4  A    between atoms: N_12  and  C_13
REMARK    5  A    between atoms: C_15  and  C_16
REMARK    6  A    between atoms: C_21  and  C_22
REMARK                            x       y       z     vdW  Elec       q    Type
REMARK                         _______ _______ _______ _____ _____    ______ ____
ROOT
ATOM      1  C   UNL     1       2.107   7.307  19.443  0.00  0.00    +0.000 C 
ATOM      2  O   UNL     1       2.006   6.467  20.337  0.00  0.00    +0.000 OA
ATOM      3  N   UNL     1       2.799   7.119  18.259  0.00  0.00    +0.000 N 
ATOM      4  H   UNL     1       2.944   7.948  17.687  0.00  0.00    +0.000 HD
ENDROOT
BRANCH   1   9
ATOM      5  C   UNL     1       0.366  10.060  21.333  0.00  0.00    +0.000 A 
ATOM      6  C   UNL     1       0.213  11.056  20.365  0.00  0.00    +0.000 A 
ATOM      7  C   UNL     1       0.702  10.859  19.069  0.00  0.00    +0.000 A 
ATOM      8  C   UNL     1       1.338   9.659  18.733  0.00  0.00    +0.000 A 
ATOM      9  C   UNL     1       1.477   8.640  19.685  0.00  0.00    +0.000 A 
ATOM     10  C   UNL     1       0.978   8.855  20.985  0.00  0.00    +0.000 A 
BRANCH   5  12
ATOM     11  N   UNL     1      -1.202  11.156  22.838  0.00  0.00    +0.000 N 
ATOM     12  C   UNL     1      -0.146  10.297  22.705  0.00  0.00    +0.000 C 
ATOM     13  O   UNL     1       0.335   9.724  23.673  0.00  0.00    +0.000 OA
ATOM     14  H   UNL     1      -1.592  11.270  23.765  0.00  0.00    +0.000 HD
ATOM     15  H   UNL     1      -1.736  11.514  22.058  0.00  0.00    +0.000 HD
ENDBRANCH   5  12
BRANCH   8  16
ATOM     16  O   UNL     1       1.824   9.500  17.461  0.00  0.00    +0.000 OA
ATOM     17  H   UNL     1       2.630  10.042  17.366  0.00  0.00    +0.000 HD
ENDBRANCH   8  16
ENDBRANCH   1   9
BRANCH   3  18
ATOM     18  C   UNL     1       3.410   5.911  17.856  0.00  0.00    +0.000 A 
ATOM     19  C   UNL     1       4.462   5.875  16.935  0.00  0.00    +0.000 A 
ATOM     20  C   UNL     1       5.026   4.664  16.512  0.00  0.00    +0.000 A 
ATOM     21  C   UNL     1       4.525   3.468  17.036  0.00  0.00    +0.000 A 
ATOM     22  C   UNL     1       3.479   3.475  17.974  0.00  0.00    +0.000 A 
ATOM     23  C   UNL     1       2.943   4.708  18.394  0.00  0.00    +0.000 A 
BRANCH  20  24
ATOM     24  C   UNL     1       6.147   4.655  15.498  0.00  0.00    +0.000 C 
ATOM     25  F   UNL     1       6.054   5.636  14.558  0.00  0.00    +0.000 F 
ATOM     26  F   UNL     1       7.368   4.810  16.079  0.00  0.00    +0.000 F 
ATOM     27  F   UNL     1       6.207   3.482  14.809  0.00  0.00    +0.000 F 
ENDBRANCH  20  24
BRANCH  22  28
ATOM     28  C   UNL     1       2.910   2.180  18.501  0.00  0.00    +0.000 C 
ATOM     29  F   UNL     1       3.666   1.089  18.196  0.00  0.00    +0.000 F 
ATOM     30  F   UNL     1       2.779   2.179  19.855  0.00  0.00    +0.000 F 
ATOM     31  F   UNL     1       1.668   1.921  18.004  0.00  0.00    +0.000 F 
ENDBRANCH  22  28
ENDBRANCH   3  18
TORSDOF 6
ENDMDL
