MODEL 1
REMARK VINA RESULT:      -6.8      0.000      0.000
REMARK  Name = 
REMARK  6 active torsions:
REMARK  status: ('A' for Active; 'I' for Inactive)
REMARK    1  A    between atoms: N_1  and  C_2
REMARK    2  A    between atoms: C_2  and  C_3
REMARK    3  A    between atoms: C_2  and  C_28
REMARK    4  A    between atoms: C_3  and  N_4
REMARK    5  A    between atoms: C_7  and  C_8
REMARK    6  A    between atoms: C_19  and  C_20
REMARK                            x       y       z     vdW  Elec       q    Type
REMARK                         _______ _______ _______ _____ _____    ______ ____
ROOT
ATOM      1  N   UNL     1      -1.299  12.789  20.893  0.00  0.00    +0.000 N 
ATOM      2  C   UNL     1      -0.304  11.847  20.691  0.00  0.00    +0.000 A 
ATOM      3  O   UNL     1       0.748  11.836  21.331  0.00  0.00    +0.000 OA
ATOM      4  C   UNL     1      -0.514  10.871  19.587  0.00  0.00    +0.000 A 
ATOM      5  C   UNL     1      -1.660  10.964  18.898  0.00  0.00    +0.000 A 
ATOM      6  N   UNL     1      -2.621  11.907  19.170  0.00  0.00    +0.000 N 
ATOM      7  C   UNL     1      -2.410  12.935  20.070  0.00  0.00    +0.000 A 
ATOM      8  O   UNL     1      -3.136  13.927  20.133  0.00  0.00    +0.000 OA
ATOM      9  C   UNL     1      -3.767  11.911  18.243  0.00  0.00    +0.000 C 
ATOM     10  C   UNL     1      -3.774  10.590  17.460  0.00  0.00    +0.000 C 
ATOM     11  S   UNL     1      -2.072   9.986  17.522  0.00  0.00    +0.000 S 
ENDROOT
BRANCH   4  12
ATOM     12  C   UNL     1       0.514   9.859  19.302  0.00  0.00    +0.000 A 
ATOM     13  C   UNL     1       1.239   9.885  18.103  0.00  0.00    +0.000 A 
ATOM     14  C   UNL     1       2.171   8.880  17.826  0.00  0.00    +0.000 A 
ATOM     15  C   UNL     1       2.388   7.850  18.744  0.00  0.00    +0.000 A 
ATOM     16  C   UNL     1       1.678   7.825  19.943  0.00  0.00    +0.000 A 
ATOM     17  C   UNL     1       0.748   8.825  20.214  0.00  0.00    +0.000 A 
ATOM     18  F   UNL     1       0.059   8.774  21.365  0.00  0.00    +0.000 F 
ENDBRANCH   4  12
BRANCH   9  19
ATOM     19  C   UNL     1      -5.112  12.106  18.928  0.00  0.00    +0.000 A 
ATOM     20  C   UNL     1      -5.988  13.108  18.481  0.00  0.00    +0.000 A 
ATOM     21  C   UNL     1      -7.224  13.300  19.102  0.00  0.00    +0.000 A 
ATOM     22  C   UNL     1      -7.601  12.488  20.169  0.00  0.00    +0.000 A 
ATOM     23  C   UNL     1      -6.742  11.492  20.625  0.00  0.00    +0.000 A 
ATOM     24  C   UNL     1      -5.501  11.306  20.014  0.00  0.00    +0.000 A 
ENDBRANCH   9  19
BRANCH   1  25
ATOM     25  C   UNL     1      -1.102  13.792  21.944  0.00  0.00    +0.000 C 
BRANCH  25  26
ATOM     26  C   UNL     1      -1.652  13.349  23.330  0.00  0.00    +0.000 C 
BRANCH  26  27
ATOM     27  C   UNL     1      -3.120  13.725  23.469  0.00  0.00    +0.000 A 
ATOM     28  C   UNL     1      -4.107  12.726  23.464  0.00  0.00    +0.000 A 
ATOM     29  C   UNL     1      -5.458  13.058  23.606  0.00  0.00    +0.000 A 
ATOM     30  C   UNL     1      -5.839  14.387  23.756  0.00  0.00    +0.000 A 
ATOM     31  C   UNL     1      -4.873  15.390  23.760  0.00  0.00    +0.000 A 
ATOM     32  C   UNL     1      -3.524  15.063  23.619  0.00  0.00    +0.000 A 
ENDBRANCH  26  27
BRANCH  26  33
ATOM     33  N   UNL     1      -1.463  11.913  23.602  0.00  0.00    +0.000 NA
ATOM     34  H   UNL     1      -1.255  11.787  24.589  0.00  0.00    +0.000 HD
ATOM     35  H   UNL     1      -0.612  11.601  23.129  0.00  0.00    +0.000 HD
ENDBRANCH  26  33
ENDBRANCH  25  26
ENDBRANCH   1  25
TORSDOF 6
ENDMDL
MODEL 2
REMARK VINA RESULT:      -6.7      0.530      1.238
REMARK  Name = 
REMARK  6 active torsions:
REMARK  status: ('A' for Active; 'I' for Inactive)
REMARK    1  A    between atoms: N_1  and  C_2
REMARK    2  A    between atoms: C_2  and  C_3
REMARK    3  A    between atoms: C_2  and  C_28
REMARK    4  A    between atoms: C_3  and  N_4
REMARK    5  A    between atoms: C_7  and  C_8
REMARK    6  A    between atoms: C_19  and  C_20
REMARK                            x       y       z     vdW  Elec       q    Type
REMARK                         _______ _______ _______ _____ _____    ______ ____
ROOT
ATOM      1  N   UNL     1      -0.927  12.639  20.722  0.00  0.00    +0.000 N 
ATOM      2  C   UNL     1       0.043  11.668  20.542  0.00  0.00    +0.000 A 
ATOM      3  O   UNL     1       1.088  11.635  21.194  0.00  0.00    +0.000 OA
ATOM      4  C   UNL     1      -0.183  10.684  19.448  0.00  0.00    +0.000 A 
ATOM      5  C   UNL     1      -1.319  10.800  18.747  0.00  0.00    +0.000 A 
ATOM      6  N   UNL     1      -2.256  11.772  18.997  0.00  0.00    +0.000 N 
ATOM      7  C   UNL     1      -2.026  12.806  19.887  0.00  0.00    +0.000 A 
ATOM      8  O   UNL     1      -2.724  13.817  19.929  0.00  0.00    +0.000 OA
ATOM      9  C   UNL     1      -3.392  11.796  18.058  0.00  0.00    +0.000 C 
ATOM     10  C   UNL     1      -3.428  10.466  17.291  0.00  0.00    +0.000 C 
ATOM     11  S   UNL     1      -1.745   9.816  17.378  0.00  0.00    +0.000 S 
ENDROOT
BRANCH   4  12
ATOM     12  C   UNL     1       0.819   9.639  19.187  0.00  0.00    +0.000 A 
ATOM     13  C   UNL     1       1.549   9.624  17.991  0.00  0.00    +0.000 A 
ATOM     14  C   UNL     1       2.455   8.590  17.737  0.00  0.00    +0.000 A 
ATOM     15  C   UNL     1       2.642   7.573  18.674  0.00  0.00    +0.000 A 
ATOM     16  C   UNL     1       1.927   7.589  19.871  0.00  0.00    +0.000 A 
ATOM     17  C   UNL     1       1.023   8.617  20.119  0.00  0.00    +0.000 A 
ATOM     18  F   UNL     1       0.329   8.606  21.268  0.00  0.00    +0.000 F 
ENDBRANCH   4  12
BRANCH   9  19
ATOM     19  C   UNL     1      -4.737  12.037  18.726  0.00  0.00    +0.000 A 
ATOM     20  C   UNL     1      -4.885  11.818  20.105  0.00  0.00    +0.000 A 
ATOM     21  C   UNL     1      -6.115  12.032  20.731  0.00  0.00    +0.000 A 
ATOM     22  C   UNL     1      -7.207  12.476  19.989  0.00  0.00    +0.000 A 
ATOM     23  C   UNL     1      -7.076  12.695  18.620  0.00  0.00    +0.000 A 
ATOM     24  C   UNL     1      -5.852  12.471  17.990  0.00  0.00    +0.000 A 
ENDBRANCH   9  19
BRANCH   1  25
ATOM     25  C   UNL     1      -0.713  13.649  21.763  0.00  0.00    +0.000 C 
BRANCH  25  26
ATOM     26  C   UNL     1      -1.174  13.187  23.175  0.00  0.00    +0.000 C 
BRANCH  26  27
ATOM     27  C   UNL     1      -2.644  13.513  23.392  0.00  0.00    +0.000 A 
ATOM     28  C   UNL     1      -3.124  14.808  23.137  0.00  0.00    +0.000 A 
ATOM     29  C   UNL     1      -4.476  15.115  23.317  0.00  0.00    +0.000 A 
ATOM     30  C   UNL     1      -5.364  14.136  23.753  0.00  0.00    +0.000 A 
ATOM     31  C   UNL     1      -4.903  12.848  24.013  0.00  0.00    +0.000 A 
ATOM     32  C   UNL     1      -3.555  12.537  23.834  0.00  0.00    +0.000 A 
ENDBRANCH  26  27
BRANCH  26  33
ATOM     33  N   UNL     1      -0.922  11.759  23.434  0.00  0.00    +0.000 NA
ATOM     34  H   UNL     1       0.002  11.654  23.846  0.00  0.00    +0.000 HD
ATOM     35  H   UNL     1      -0.847  11.273  22.537  0.00  0.00    +0.000 HD
ENDBRANCH  26  33
ENDBRANCH  25  26
ENDBRANCH   1  25
TORSDOF 6
ENDMDL
MODEL 3
REMARK VINA RESULT:      -6.6      3.229      6.600
REMARK  Name = 
REMARK  6 active torsions:
REMARK  status: ('A' for Active; 'I' for Inactive)
REMARK    1  A    between atoms: N_1  and  C_2
REMARK    2  A    between atoms: C_2  and  C_3
REMARK    3  A    between atoms: C_2  and  C_28
REMARK    4  A    between atoms: C_3  and  N_4
REMARK    5  A    between atoms: C_7  and  C_8
REMARK    6  A    between atoms: C_19  and  C_20
REMARK                            x       y       z     vdW  Elec       q    Type
REMARK                         _______ _______ _______ _____ _____    ______ ____
ROOT
ATOM      1  N   UNL     1      -0.989  12.535  20.256  0.00  0.00    +0.000 N 
ATOM      2  C   UNL     1      -0.407  13.492  19.443  0.00  0.00    +0.000 A 
ATOM      3  O   UNL     1       0.247  13.210  18.439  0.00  0.00    +0.000 OA
ATOM      4  C   UNL     1      -0.530  14.911  19.878  0.00  0.00    +0.000 A 
ATOM      5  C   UNL     1      -1.218  15.148  21.003  0.00  0.00    +0.000 A 
ATOM      6  N   UNL     1      -1.796  14.151  21.750  0.00  0.00    +0.000 N 
ATOM      7  C   UNL     1      -1.578  12.812  21.486  0.00  0.00    +0.000 A 
ATOM      8  O   UNL     1      -1.860  11.919  22.284  0.00  0.00    +0.000 OA
ATOM      9  C   UNL     1      -2.427  14.601  23.004  0.00  0.00    +0.000 C 
ATOM     10  C   UNL     1      -2.622  16.124  22.941  0.00  0.00    +0.000 C 
ATOM     11  S   UNL     1      -1.412  16.712  21.735  0.00  0.00    +0.000 S 
ENDROOT
BRANCH   4  12
ATOM     12  C   UNL     1       0.085  15.977  19.073  0.00  0.00    +0.000 A 
ATOM     13  C   UNL     1      -0.692  16.785  18.232  0.00  0.00    +0.000 A 
ATOM     14  C   UNL     1      -0.081  17.755  17.431  0.00  0.00    +0.000 A 
ATOM     15  C   UNL     1       1.304  17.927  17.469  0.00  0.00    +0.000 A 
ATOM     16  C   UNL     1       2.081  17.134  18.312  0.00  0.00    +0.000 A 
ATOM     17  C   UNL     1       1.470  16.167  19.105  0.00  0.00    +0.000 A 
ATOM     18  F   UNL     1       2.236  15.399  19.895  0.00  0.00    +0.000 F 
ENDBRANCH   4  12
BRANCH   9  19
ATOM     19  C   UNL     1      -3.760  13.928  23.298  0.00  0.00    +0.000 A 
ATOM     20  C   UNL     1      -4.852  14.128  22.439  0.00  0.00    +0.000 A 
ATOM     21  C   UNL     1      -6.081  13.519  22.698  0.00  0.00    +0.000 A 
ATOM     22  C   UNL     1      -6.230  12.697  23.813  0.00  0.00    +0.000 A 
ATOM     23  C   UNL     1      -5.157  12.491  24.675  0.00  0.00    +0.000 A 
ATOM     24  C   UNL     1      -3.930  13.108  24.425  0.00  0.00    +0.000 A 
ENDBRANCH   9  19
BRANCH   1  25
ATOM     25  C   UNL     1      -0.849  11.125  19.880  0.00  0.00    +0.000 C 
BRANCH  25  26
ATOM     26  C   UNL     1       0.212  10.363  20.725  0.00  0.00    +0.000 C 
BRANCH  26  27
ATOM     27  C   UNL     1       1.008   9.407  19.849  0.00  0.00    +0.000 A 
ATOM     28  C   UNL     1       1.516   8.214  20.389  0.00  0.00    +0.000 A 
ATOM     29  C   UNL     1       2.235   7.320  19.590  0.00  0.00    +0.000 A 
ATOM     30  C   UNL     1       2.455   7.604  18.246  0.00  0.00    +0.000 A 
ATOM     31  C   UNL     1       1.960   8.783  17.696  0.00  0.00    +0.000 A 
ATOM     32  C   UNL     1       1.242   9.678  18.489  0.00  0.00    +0.000 A 
ENDBRANCH  26  27
BRANCH  26  33
ATOM     33  N   UNL     1       1.120  11.257  21.465  0.00  0.00    +0.000 NA
ATOM     34  H   UNL     1       0.935  12.219  21.191  0.00  0.00    +0.000 HD
ATOM     35  H   UNL     1       2.077  11.089  21.144  0.00  0.00    +0.000 HD
ENDBRANCH  26  33
ENDBRANCH  25  26
ENDBRANCH   1  25
TORSDOF 6
ENDMDL
MODEL 4
REMARK VINA RESULT:      -6.6      3.118      6.624
REMARK  Name = 
REMARK  6 active torsions:
REMARK  status: ('A' for Active; 'I' for Inactive)
REMARK    1  A    between atoms: N_1  and  C_2
REMARK    2  A    between atoms: C_2  and  C_3
REMARK    3  A    between atoms: C_2  and  C_28
REMARK    4  A    between atoms: C_3  and  N_4
REMARK    5  A    between atoms: C_7  and  C_8
REMARK    6  A    between atoms: C_19  and  C_20
REMARK                            x       y       z     vdW  Elec       q    Type
REMARK                         _______ _______ _______ _____ _____    ______ ____
ROOT
ATOM      1  N   UNL     1      -0.065  11.356  20.784  0.00  0.00    +0.000 N 
ATOM      2  C   UNL     1       0.879  12.121  20.118  0.00  0.00    +0.000 A 
ATOM      3  O   UNL     1       1.594  11.672  19.221  0.00  0.00    +0.000 OA
ATOM      4  C   UNL     1       1.065  13.520  20.590  0.00  0.00    +0.000 A 
ATOM      5  C   UNL     1       0.287  13.935  21.599  0.00  0.00    +0.000 A 
ATOM      6  N   UNL     1      -0.652  13.131  22.197  0.00  0.00    +0.000 N 
ATOM      7  C   UNL     1      -0.756  11.782  21.912  0.00  0.00    +0.000 A 
ATOM      8  O   UNL     1      -1.394  10.999  22.614  0.00  0.00    +0.000 OA
ATOM      9  C   UNL     1      -1.342  13.735  23.351  0.00  0.00    +0.000 C 
ATOM     10  C   UNL     1      -1.112  15.253  23.325  0.00  0.00    +0.000 C 
ATOM     11  S   UNL     1       0.395  15.494  22.358  0.00  0.00    +0.000 S 
ENDROOT
BRANCH   4  12
ATOM     12  C   UNL     1       2.067  14.381  19.942  0.00  0.00    +0.000 A 
ATOM     13  C   UNL     1       1.726  15.185  18.846  0.00  0.00    +0.000 A 
ATOM     14  C   UNL     1       2.706  15.952  18.209  0.00  0.00    +0.000 A 
ATOM     15  C   UNL     1       4.026  15.926  18.664  0.00  0.00    +0.000 A 
ATOM     16  C   UNL     1       4.368  15.137  19.761  0.00  0.00    +0.000 A 
ATOM     17  C   UNL     1       3.392  14.372  20.391  0.00  0.00    +0.000 A 
ATOM     18  F   UNL     1       3.743  13.603  21.433  0.00  0.00    +0.000 F 
ENDBRANCH   4  12
BRANCH   9  19
ATOM     19  C   UNL     1      -2.835  13.445  23.396  0.00  0.00    +0.000 A 
ATOM     20  C   UNL     1      -3.399  12.844  24.533  0.00  0.00    +0.000 A 
ATOM     21  C   UNL     1      -4.767  12.569  24.587  0.00  0.00    +0.000 A 
ATOM     22  C   UNL     1      -5.587  12.901  23.511  0.00  0.00    +0.000 A 
ATOM     23  C   UNL     1      -5.042  13.494  22.376  0.00  0.00    +0.000 A 
ATOM     24  C   UNL     1      -3.673  13.760  22.314  0.00  0.00    +0.000 A 
ENDBRANCH   9  19
BRANCH   1  25
ATOM     25  C   UNL     1      -0.242   9.960  20.372  0.00  0.00    +0.000 C 
BRANCH  25  26
ATOM     26  C   UNL     1       0.630   8.961  21.186  0.00  0.00    +0.000 C 
BRANCH  26  27
ATOM     27  C   UNL     1       1.443   8.077  20.253  0.00  0.00    +0.000 A 
ATOM     28  C   UNL     1       1.821   8.549  18.986  0.00  0.00    +0.000 A 
ATOM     29  C   UNL     1       2.582   7.752  18.125  0.00  0.00    +0.000 A 
ATOM     30  C   UNL     1       2.974   6.476  18.519  0.00  0.00    +0.000 A 
ATOM     31  C   UNL     1       2.605   5.991  19.770  0.00  0.00    +0.000 A 
ATOM     32  C   UNL     1       1.846   6.784  20.632  0.00  0.00    +0.000 A 
ENDBRANCH  26  27
BRANCH  26  33
ATOM     33  N   UNL     1       1.512   9.620  22.166  0.00  0.00    +0.000 NA
ATOM     34  H   UNL     1       2.375   9.089  22.245  0.00  0.00    +0.000 HD
ATOM     35  H   UNL     1       1.088   9.540  23.093  0.00  0.00    +0.000 HD
ENDBRANCH  26  33
ENDBRANCH  25  26
ENDBRANCH   1  25
TORSDOF 6
ENDMDL
MODEL 5
REMARK VINA RESULT:      -6.6      3.180      6.614
REMARK  Name = 
REMARK  6 active torsions:
REMARK  status: ('A' for Active; 'I' for Inactive)
REMARK    1  A    between atoms: N_1  and  C_2
REMARK    2  A    between atoms: C_2  and  C_3
REMARK    3  A    between atoms: C_2  and  C_28
REMARK    4  A    between atoms: C_3  and  N_4
REMARK    5  A    between atoms: C_7  and  C_8
REMARK    6  A    between atoms: C_19  and  C_20
REMARK                            x       y       z     vdW  Elec       q    Type
REMARK                         _______ _______ _______ _____ _____    ______ ____
ROOT
ATOM      1  N   UNL     1      -0.101  11.388  20.824  0.00  0.00    +0.000 N 
ATOM      2  C   UNL     1       0.850  12.162  20.180  0.00  0.00    +0.000 A 
ATOM      3  O   UNL     1       1.573  11.726  19.283  0.00  0.00    +0.000 OA
ATOM      4  C   UNL     1       1.033  13.554  20.674  0.00  0.00    +0.000 A 
ATOM      5  C   UNL     1       0.244  13.954  21.682  0.00  0.00    +0.000 A 
ATOM      6  N   UNL     1      -0.701  13.142  22.258  0.00  0.00    +0.000 N 
ATOM      7  C   UNL     1      -0.803  11.797  21.952  0.00  0.00    +0.000 A 
ATOM      8  O   UNL     1      -1.449  11.004  22.635  0.00  0.00    +0.000 OA
ATOM      9  C   UNL     1      -1.403  13.729  23.414  0.00  0.00    +0.000 C 
ATOM     10  C   UNL     1      -1.172  15.247  23.414  0.00  0.00    +0.000 C 
ATOM     11  S   UNL     1       0.345  15.502  22.466  0.00  0.00    +0.000 S 
ENDROOT
BRANCH   4  12
ATOM     12  C   UNL     1       2.041  14.424  20.050  0.00  0.00    +0.000 A 
ATOM     13  C   UNL     1       3.361  14.451  20.522  0.00  0.00    +0.000 A 
ATOM     14  C   UNL     1       4.290  15.327  19.953  0.00  0.00    +0.000 A 
ATOM     15  C   UNL     1       3.911  16.173  18.909  0.00  0.00    +0.000 A 
ATOM     16  C   UNL     1       2.603  16.142  18.428  0.00  0.00    +0.000 A 
ATOM     17  C   UNL     1       1.680  15.272  18.999  0.00  0.00    +0.000 A 
ATOM     18  F   UNL     1       0.420  15.270  18.537  0.00  0.00    +0.000 F 
ENDBRANCH   4  12
BRANCH   9  19
ATOM     19  C   UNL     1      -2.896  13.439  23.440  0.00  0.00    +0.000 A 
ATOM     20  C   UNL     1      -3.700  13.801  22.347  0.00  0.00    +0.000 A 
ATOM     21  C   UNL     1      -5.072  13.544  22.358  0.00  0.00    +0.000 A 
ATOM     22  C   UNL     1      -5.654  12.915  23.456  0.00  0.00    +0.000 A 
ATOM     23  C   UNL     1      -4.871  12.554  24.548  0.00  0.00    +0.000 A 
ATOM     24  C   UNL     1      -3.501  12.819  24.545  0.00  0.00    +0.000 A 
ENDBRANCH   9  19
BRANCH   1  25
ATOM     25  C   UNL     1      -0.275   9.998  20.390  0.00  0.00    +0.000 C 
BRANCH  25  26
ATOM     26  C   UNL     1       0.600   8.989  21.186  0.00  0.00    +0.000 C 
BRANCH  26  27
ATOM     27  C   UNL     1       1.422   8.129  20.239  0.00  0.00    +0.000 A 
ATOM     28  C   UNL     1       1.827   6.841  20.627  0.00  0.00    +0.000 A 
ATOM     29  C   UNL     1       2.570   6.035  19.759  0.00  0.00    +0.000 A 
ATOM     30  C   UNL     1       2.916   6.503  18.495  0.00  0.00    +0.000 A 
ATOM     31  C   UNL     1       2.525   7.778  18.095  0.00  0.00    +0.000 A 
ATOM     32  C   UNL     1       1.784   8.585  18.959  0.00  0.00    +0.000 A 
ENDBRANCH  26  27
BRANCH  26  33
ATOM     33  N   UNL     1       1.474   9.633  22.183  0.00  0.00    +0.000 NA
ATOM     34  H   UNL     1       2.391   9.784  21.772  0.00  0.00    +0.000 HD
ATOM     35  H   UNL     1       1.650   8.968  22.941  0.00  0.00    +0.000 HD
ENDBRANCH  26  33
ENDBRANCH  25  26
ENDBRANCH   1  25
TORSDOF 6
ENDMDL
MODEL 6
REMARK VINA RESULT:      -6.5      3.193      6.583
REMARK  Name = 
REMARK  6 active torsions:
REMARK  status: ('A' for Active; 'I' for Inactive)
REMARK    1  A    between atoms: N_1  and  C_2
REMARK    2  A    between atoms: C_2  and  C_3
REMARK    3  A    between atoms: C_2  and  C_28
REMARK    4  A    between atoms: C_3  and  N_4
REMARK    5  A    between atoms: C_7  and  C_8
REMARK    6  A    between atoms: C_19  and  C_20
REMARK                            x       y       z     vdW  Elec       q    Type
REMARK                         _______ _______ _______ _____ _____    ______ ____
ROOT
ATOM      1  N   UNL     1      -0.015  11.551  20.585  0.00  0.00    +0.000 N 
ATOM      2  C   UNL     1       0.923  12.343  19.946  0.00  0.00    +0.000 A 
ATOM      3  O   UNL     1       1.635  11.931  19.029  0.00  0.00    +0.000 OA
ATOM      4  C   UNL     1       1.109  13.724  20.471  0.00  0.00    +0.000 A 
ATOM      5  C   UNL     1       0.334  14.097  21.498  0.00  0.00    +0.000 A 
ATOM      6  N   UNL     1      -0.600  13.269  22.069  0.00  0.00    +0.000 N 
ATOM      7  C   UNL     1      -0.703  11.931  21.732  0.00  0.00    +0.000 A 
ATOM      8  O   UNL     1      -1.336  11.120  22.406  0.00  0.00    +0.000 OA
ATOM      9  C   UNL     1      -1.287  13.826  23.248  0.00  0.00    +0.000 C 
ATOM     10  C   UNL     1      -1.060  15.345  23.280  0.00  0.00    +0.000 C 
ATOM     11  S   UNL     1       0.442  15.626  22.317  0.00  0.00    +0.000 S 
ENDROOT
BRANCH   4  12
ATOM     12  C   UNL     1       2.106  14.611  19.853  0.00  0.00    +0.000 A 
ATOM     13  C   UNL     1       1.755  15.470  18.803  0.00  0.00    +0.000 A 
ATOM     14  C   UNL     1       2.730  16.264  18.191  0.00  0.00    +0.000 A 
ATOM     15  C   UNL     1       4.055  16.209  18.626  0.00  0.00    +0.000 A 
ATOM     16  C   UNL     1       4.409  15.365  19.677  0.00  0.00    +0.000 A 
ATOM     17  C   UNL     1       3.437  14.573  20.281  0.00  0.00    +0.000 A 
ATOM     18  F   UNL     1       3.799  13.751  21.278  0.00  0.00    +0.000 F 
ENDBRANCH   4  12
BRANCH   9  19
ATOM     19  C   UNL     1      -2.779  13.531  23.289  0.00  0.00    +0.000 A 
ATOM     20  C   UNL     1      -3.596  13.901  22.208  0.00  0.00    +0.000 A 
ATOM     21  C   UNL     1      -4.968  13.640  22.233  0.00  0.00    +0.000 A 
ATOM     22  C   UNL     1      -5.535  12.998  23.332  0.00  0.00    +0.000 A 
ATOM     23  C   UNL     1      -4.738  12.627  24.411  0.00  0.00    +0.000 A 
ATOM     24  C   UNL     1      -3.369  12.898  24.394  0.00  0.00    +0.000 A 
ENDBRANCH   9  19
BRANCH   1  25
ATOM     25  C   UNL     1      -0.192  10.171  20.121  0.00  0.00    +0.000 C 
BRANCH  25  26
ATOM     26  C   UNL     1       0.623   9.134  20.945  0.00  0.00    +0.000 C 
BRANCH  26  27
ATOM     27  C   UNL     1       1.448   8.247  20.024  0.00  0.00    +0.000 A 
ATOM     28  C   UNL     1       1.840   6.966  20.445  0.00  0.00    +0.000 A 
ATOM     29  C   UNL     1       2.585   6.136  19.602  0.00  0.00    +0.000 A 
ATOM     30  C   UNL     1       2.945   6.572  18.331  0.00  0.00    +0.000 A 
ATOM     31  C   UNL     1       2.567   7.840  17.899  0.00  0.00    +0.000 A 
ATOM     32  C   UNL     1       1.823   8.672  18.738  0.00  0.00    +0.000 A 
ENDBRANCH  26  27
BRANCH  26  33
ATOM     33  N   UNL     1       1.483   9.749  21.971  0.00  0.00    +0.000 NA
ATOM     34  H   UNL     1       2.419   9.868  21.591  0.00  0.00    +0.000 HD
ATOM     35  H   UNL     1       1.611   9.080  22.734  0.00  0.00    +0.000 HD
ENDBRANCH  26  33
ENDBRANCH  25  26
ENDBRANCH   1  25
TORSDOF 6
ENDMDL
MODEL 7
REMARK VINA RESULT:      -6.5      3.334      8.072
REMARK  Name = 
REMARK  6 active torsions:
REMARK  status: ('A' for Active; 'I' for Inactive)
REMARK    1  A    between atoms: N_1  and  C_2
REMARK    2  A    between atoms: C_2  and  C_3
REMARK    3  A    between atoms: C_2  and  C_28
REMARK    4  A    between atoms: C_3  and  N_4
REMARK    5  A    between atoms: C_7  and  C_8
REMARK    6  A    between atoms: C_19  and  C_20
REMARK                            x       y       z     vdW  Elec       q    Type
REMARK                         _______ _______ _______ _____ _____    ______ ____
ROOT
ATOM      1  N   UNL     1       0.521  11.760  21.214  0.00  0.00    +0.000 N 
ATOM      2  C   UNL     1      -0.590  12.037  21.992  0.00  0.00    +0.000 A 
ATOM      3  O   UNL     1      -1.080  11.221  22.774  0.00  0.00    +0.000 OA
ATOM      4  C   UNL     1      -1.243  13.359  21.789  0.00  0.00    +0.000 A 
ATOM      5  C   UNL     1      -0.686  14.185  20.892  0.00  0.00    +0.000 A 
ATOM      6  N   UNL     1       0.437  13.858  20.172  0.00  0.00    +0.000 N 
ATOM      7  C   UNL     1       0.987  12.589  20.200  0.00  0.00    +0.000 A 
ATOM      8  O   UNL     1       1.815  12.203  19.376  0.00  0.00    +0.000 OA
ATOM      9  C   UNL     1       0.842  14.856  19.166  0.00  0.00    +0.000 C 
ATOM     10  C   UNL     1       0.131  16.183  19.472  0.00  0.00    +0.000 C 
ATOM     11  S   UNL     1      -1.329  15.734  20.436  0.00  0.00    +0.000 S 
ENDROOT
BRANCH   4  12
ATOM     12  C   UNL     1      -2.441  13.709  22.566  0.00  0.00    +0.000 A 
ATOM     13  C   UNL     1      -3.725  13.504  22.042  0.00  0.00    +0.000 A 
ATOM     14  C   UNL     1      -4.851  13.896  22.774  0.00  0.00    +0.000 A 
ATOM     15  C   UNL     1      -4.702  14.487  24.029  0.00  0.00    +0.000 A 
ATOM     16  C   UNL     1      -3.428  14.683  24.560  0.00  0.00    +0.000 A 
ATOM     17  C   UNL     1      -2.310  14.295  23.829  0.00  0.00    +0.000 A 
ATOM     18  F   UNL     1      -1.091  14.510  24.346  0.00  0.00    +0.000 F 
ENDBRANCH   4  12
BRANCH   9  19
ATOM     19  C   UNL     1       2.344  15.086  19.097  0.00  0.00    +0.000 A 
ATOM     20  C   UNL     1       3.051  15.458  20.252  0.00  0.00    +0.000 A 
ATOM     21  C   UNL     1       4.429  15.675  20.203  0.00  0.00    +0.000 A 
ATOM     22  C   UNL     1       5.118  15.513  19.002  0.00  0.00    +0.000 A 
ATOM     23  C   UNL     1       4.430  15.148  17.849  0.00  0.00    +0.000 A 
ATOM     24  C   UNL     1       3.051  14.941  17.892  0.00  0.00    +0.000 A 
ENDBRANCH   9  19
BRANCH   1  25
ATOM     25  C   UNL     1       1.162  10.449  21.359  0.00  0.00    +0.000 C 
BRANCH  25  26
ATOM     26  C   UNL     1       0.401   9.307  20.628  0.00  0.00    +0.000 C 
BRANCH  26  27
ATOM     27  C   UNL     1       1.354   8.496  19.763  0.00  0.00    +0.000 A 
ATOM     28  C   UNL     1       1.888   7.290  20.243  0.00  0.00    +0.000 A 
ATOM     29  C   UNL     1       2.753   6.528  19.452  0.00  0.00    +0.000 A 
ATOM     30  C   UNL     1       3.095   6.960  18.174  0.00  0.00    +0.000 A 
ATOM     31  C   UNL     1       2.577   8.155  17.684  0.00  0.00    +0.000 A 
ATOM     32  C   UNL     1       1.712   8.918  18.471  0.00  0.00    +0.000 A 
ENDBRANCH  26  27
BRANCH  26  33
ATOM     33  N   UNL     1      -0.342   8.421  21.542  0.00  0.00    +0.000 NA
ATOM     34  H   UNL     1      -0.017   8.578  22.493  0.00  0.00    +0.000 HD
ATOM     35  H   UNL     1      -0.074   7.453  21.347  0.00  0.00    +0.000 HD
ENDBRANCH  26  33
ENDBRANCH  25  26
ENDBRANCH   1  25
TORSDOF 6
ENDMDL
MODEL 8
REMARK VINA RESULT:      -6.5      3.261      6.757
REMARK  Name = 
REMARK  6 active torsions:
REMARK  status: ('A' for Active; 'I' for Inactive)
REMARK    1  A    between atoms: N_1  and  C_2
REMARK    2  A    between atoms: C_2  and  C_3
REMARK    3  A    between atoms: C_2  and  C_28
REMARK    4  A    between atoms: C_3  and  N_4
REMARK    5  A    between atoms: C_7  and  C_8
REMARK    6  A    between atoms: C_19  and  C_20
REMARK                            x       y       z     vdW  Elec       q    Type
REMARK                         _______ _______ _______ _____ _____    ______ ____
ROOT
ATOM      1  N   UNL     1       0.014  11.522  20.664  0.00  0.00    +0.000 N 
ATOM      2  C   UNL     1       0.979  12.308  20.056  0.00  0.00    +0.000 A 
ATOM      3  O   UNL     1       1.705  11.896  19.151  0.00  0.00    +0.000 OA
ATOM      4  C   UNL     1       1.173  13.679  20.601  0.00  0.00    +0.000 A 
ATOM      5  C   UNL     1       0.380  14.053  21.615  0.00  0.00    +0.000 A 
ATOM      6  N   UNL     1      -0.580  13.232  22.155  0.00  0.00    +0.000 N 
ATOM      7  C   UNL     1      -0.694  11.900  21.800  0.00  0.00    +0.000 A 
ATOM      8  O   UNL     1      -1.355  11.091  22.450  0.00  0.00    +0.000 OA
ATOM      9  C   UNL     1      -1.284  13.785  23.325  0.00  0.00    +0.000 C 
ATOM     10  C   UNL     1      -1.036  15.300  23.380  0.00  0.00    +0.000 C 
ATOM     11  S   UNL     1       0.491  15.570  22.455  0.00  0.00    +0.000 S 
ENDROOT
BRANCH   4  12
ATOM     12  C   UNL     1       2.197  14.559  20.017  0.00  0.00    +0.000 A 
ATOM     13  C   UNL     1       3.514  14.549  20.496  0.00  0.00    +0.000 A 
ATOM     14  C   UNL     1       4.458  15.434  19.966  0.00  0.00    +0.000 A 
ATOM     15  C   UNL     1       4.096  16.325  18.955  0.00  0.00    +0.000 A 
ATOM     16  C   UNL     1       2.791  16.332  18.466  0.00  0.00    +0.000 A 
ATOM     17  C   UNL     1       1.852  15.453  18.998  0.00  0.00    +0.000 A 
ATOM     18  F   UNL     1       0.595  15.486  18.530  0.00  0.00    +0.000 F 
ENDBRANCH   4  12
BRANCH   9  19
ATOM     19  C   UNL     1      -2.781  13.512  23.328  0.00  0.00    +0.000 A 
ATOM     20  C   UNL     1      -3.377  12.878  24.430  0.00  0.00    +0.000 A 
ATOM     21  C   UNL     1      -4.749  12.619  24.445  0.00  0.00    +0.000 A 
ATOM     22  C   UNL     1      -5.541  12.998  23.364  0.00  0.00    +0.000 A 
ATOM     23  C   UNL     1      -4.964  13.625  22.263  0.00  0.00    +0.000 A 
ATOM     24  C   UNL     1      -3.592  13.875  22.240  0.00  0.00    +0.000 A 
ENDBRANCH   9  19
BRANCH   1  25
ATOM     25  C   UNL     1      -0.172  10.151  20.180  0.00  0.00    +0.000 C 
BRANCH  25  26
ATOM     26  C   UNL     1       0.651   9.099  20.977  0.00  0.00    +0.000 C 
BRANCH  26  27
ATOM     27  C   UNL     1       1.491   8.250  20.034  0.00  0.00    +0.000 A 
ATOM     28  C   UNL     1       1.811   8.727  18.753  0.00  0.00    +0.000 A 
ATOM     29  C   UNL     1       2.596   7.964  17.883  0.00  0.00    +0.000 A 
ATOM     30  C   UNL     1       3.070   6.718  18.281  0.00  0.00    +0.000 A 
ATOM     31  C   UNL     1       2.759   6.229  19.547  0.00  0.00    +0.000 A 
ATOM     32  C   UNL     1       1.977   6.988  20.418  0.00  0.00    +0.000 A 
ENDBRANCH  26  27
BRANCH  26  33
ATOM     33  N   UNL     1       1.498   9.692  22.026  0.00  0.00    +0.000 NA
ATOM     34  H   UNL     1       1.998   8.949  22.509  0.00  0.00    +0.000 HD
ATOM     35  H   UNL     1       0.894  10.092  22.747  0.00  0.00    +0.000 HD
ENDBRANCH  26  33
ENDBRANCH  25  26
ENDBRANCH   1  25
TORSDOF 6
ENDMDL
MODEL 9
REMARK VINA RESULT:      -6.5      3.272      8.015
REMARK  Name = 
REMARK  6 active torsions:
REMARK  status: ('A' for Active; 'I' for Inactive)
REMARK    1  A    between atoms: N_1  and  C_2
REMARK    2  A    between atoms: C_2  and  C_3
REMARK    3  A    between atoms: C_2  and  C_28
REMARK    4  A    between atoms: C_3  and  N_4
REMARK    5  A    between atoms: C_7  and  C_8
REMARK    6  A    between atoms: C_19  and  C_20
REMARK                            x       y       z     vdW  Elec       q    Type
REMARK                         _______ _______ _______ _____ _____    ______ ____
ROOT
ATOM      1  N   UNL     1       0.470  11.798  21.202  0.00  0.00    +0.000 N 
ATOM      2  C   UNL     1      -0.661  12.067  21.953  0.00  0.00    +0.000 A 
ATOM      3  O   UNL     1      -1.161  11.250  22.728  0.00  0.00    +0.000 OA
ATOM      4  C   UNL     1      -1.323  13.381  21.728  0.00  0.00    +0.000 A 
ATOM      5  C   UNL     1      -0.754  14.208  20.839  0.00  0.00    +0.000 A 
ATOM      6  N   UNL     1       0.388  13.889  20.147  0.00  0.00    +0.000 N 
ATOM      7  C   UNL     1       0.951  12.626  20.194  0.00  0.00    +0.000 A 
ATOM      8  O   UNL     1       1.801  12.244  19.392  0.00  0.00    +0.000 OA
ATOM      9  C   UNL     1       0.806  14.886  19.145  0.00  0.00    +0.000 C 
ATOM     10  C   UNL     1       0.075  16.207  19.428  0.00  0.00    +0.000 C 
ATOM     11  S   UNL     1      -1.402  15.748  20.361  0.00  0.00    +0.000 S 
ENDROOT
BRANCH   4  12
ATOM     12  C   UNL     1      -2.542  13.722  22.476  0.00  0.00    +0.000 A 
ATOM     13  C   UNL     1      -2.471  14.399  23.701  0.00  0.00    +0.000 A 
ATOM     14  C   UNL     1      -3.638  14.663  24.424  0.00  0.00    +0.000 A 
ATOM     15  C   UNL     1      -4.879  14.260  23.928  0.00  0.00    +0.000 A 
ATOM     16  C   UNL     1      -4.957  13.596  22.704  0.00  0.00    +0.000 A 
ATOM     17  C   UNL     1      -3.794  13.332  21.989  0.00  0.00    +0.000 A 
ATOM     18  F   UNL     1      -3.886  12.674  20.822  0.00  0.00    +0.000 F 
ENDBRANCH   4  12
BRANCH   9  19
ATOM     19  C   UNL     1       2.307  15.131  19.109  0.00  0.00    +0.000 A 
ATOM     20  C   UNL     1       3.014  14.979  17.905  0.00  0.00    +0.000 A 
ATOM     21  C   UNL     1       4.392  15.198  17.858  0.00  0.00    +0.000 A 
ATOM     22  C   UNL     1       5.077  15.579  19.011  0.00  0.00    +0.000 A 
ATOM     23  C   UNL     1       4.390  15.731  20.211  0.00  0.00    +0.000 A 
ATOM     24  C   UNL     1       3.014  15.502  20.264  0.00  0.00    +0.000 A 
ENDBRANCH   9  19
BRANCH   1  25
ATOM     25  C   UNL     1       1.121  10.494  21.369  0.00  0.00    +0.000 C 
BRANCH  25  26
ATOM     26  C   UNL     1       0.371   9.335  20.652  0.00  0.00    +0.000 C 
BRANCH  26  27
ATOM     27  C   UNL     1       1.328   8.537  19.779  0.00  0.00    +0.000 A 
ATOM     28  C   UNL     1       1.865   7.327  20.246  0.00  0.00    +0.000 A 
ATOM     29  C   UNL     1       2.733   6.576  19.446  0.00  0.00    +0.000 A 
ATOM     30  C   UNL     1       3.074   7.024  18.174  0.00  0.00    +0.000 A 
ATOM     31  C   UNL     1       2.553   8.224  17.697  0.00  0.00    +0.000 A 
ATOM     32  C   UNL     1       1.686   8.975  18.492  0.00  0.00    +0.000 A 
ENDBRANCH  26  27
BRANCH  26  33
ATOM     33  N   UNL     1      -0.343   8.440  21.580  0.00  0.00    +0.000 NA
ATOM     34  H   UNL     1      -1.022   7.893  21.056  0.00  0.00    +0.000 HD
ATOM     35  H   UNL     1      -0.917   9.010  22.207  0.00  0.00    +0.000 HD
ENDBRANCH  26  33
ENDBRANCH  25  26
ENDBRANCH   1  25
TORSDOF 6
ENDMDL
