MODEL 1
REMARK VINA RESULT:      -8.0      0.000      0.000
REMARK  Name = 
REMARK  9 active torsions:
REMARK  status: ('A' for Active; 'I' for Inactive)
REMARK    1  A    between atoms: C_1  and  C_2
REMARK    2  A    between atoms: C_2  and  C_3
REMARK    3  A    between atoms: C_3  and  O_4
REMARK    4  A    between atoms: C_27  and  C_28
REMARK    5  A    between atoms: N_29  and  O_30
REMARK    6  A    between atoms: O_30  and  C_31
REMARK    7  A    between atoms: C_31  and  C_32
REMARK    8  A    between atoms: C_31  and  C_33
REMARK    9  A    between atoms: C_31  and  C_34
REMARK                            x       y       z     vdW  Elec       q    Type
REMARK                         _______ _______ _______ _____ _____    ______ ____
ROOT
ATOM      1  C   UNL     1      -1.246  12.393  19.852  0.00  0.00    +0.000 C 
ATOM      2  C   UNL     1      -0.934  13.179  18.521  0.00  0.00    +0.000 C 
ATOM      3  C   UNL     1       0.075  14.274  18.666  0.00  0.00    +0.000 C 
ATOM      4  O   UNL     1      -0.236  15.452  18.788  0.00  0.00    +0.000 OA
ATOM      5  O   UNL     1       1.351  13.853  18.599  0.00  0.00    +0.000 OA
ATOM      6  C   UNL     1       1.676  12.953  19.651  0.00  0.00    +0.000 C 
ATOM      7  C   UNL     1       1.082  11.584  19.492  0.00  0.00    +0.000 A 
ATOM      8  C   UNL     1      -0.164  11.143  19.834  0.00  0.00    +0.000 A 
ATOM      9  C   UNL     1      -0.126   9.614  20.202  0.00  0.00    +0.000 A 
ATOM     10  C   UNL     1       0.884   8.779  19.714  0.00  0.00    +0.000 A 
ATOM     11  N   UNL     1       1.722   9.387  18.799  0.00  0.00    +0.000 N 
ATOM     12  C   UNL     1       1.910  10.699  18.650  0.00  0.00    +0.000 A 
ATOM     13  O   UNL     1       2.747  11.175  17.891  0.00  0.00    +0.000 OA
ATOM     14  C   UNL     1       2.529   8.480  18.013  0.00  0.00    +0.000 C 
ATOM     15  C   UNL     1       2.364   7.193  18.705  0.00  0.00    +0.000 A 
ATOM     16  C   UNL     1       1.483   7.307  19.789  0.00  0.00    +0.000 A 
ATOM     17  N   UNL     1       1.464   6.304  20.705  0.00  0.00    +0.000 NA
ATOM     18  C   UNL     1       2.261   5.145  20.478  0.00  0.00    +0.000 A 
ATOM     19  C   UNL     1       2.402   4.075  21.402  0.00  0.00    +0.000 A 
ATOM     20  C   UNL     1       3.161   2.883  21.179  0.00  0.00    +0.000 A 
ATOM     21  C   UNL     1       3.844   2.716  19.992  0.00  0.00    +0.000 A 
ATOM     22  C   UNL     1       3.795   3.756  19.080  0.00  0.00    +0.000 A 
ATOM     23  C   UNL     1       3.033   4.950  19.298  0.00  0.00    +0.000 A 
ATOM     24  C   UNL     1       3.065   6.028  18.400  0.00  0.00    +0.000 A 
ENDROOT
BRANCH   1  26
ATOM     25  C   UNL     1      -3.869  11.976  19.045  0.00  0.00    +0.000 C 
ATOM     26  C   UNL     1      -2.827  12.600  19.985  0.00  0.00    +0.000 C 
ENDBRANCH   1  26
BRANCH   1  27
ATOM     27  O   UNL     1      -0.812  13.155  21.018  0.00  0.00    +0.000 OA
ATOM     28  H   UNL     1      -0.461  14.022  20.728  0.00  0.00    +0.000 HD
ENDBRANCH   1  27
BRANCH  24  29
ATOM     29  C   UNL     1       3.863   5.977  17.140  0.00  0.00    +0.000 C 
ATOM     30  N   UNL     1       5.149   6.127  17.161  0.00  0.00    +0.000 NA
BRANCH  30  31
ATOM     31  O   UNL     1       5.693   6.078  15.867  0.00  0.00    +0.000 OA
BRANCH  31  32
ATOM     32  C   UNL     1       6.540   4.912  15.736  0.00  0.00    +0.000 C 
ATOM     33  C   UNL     1       5.661   3.678  15.500  0.00  0.00    +0.000 C 
ATOM     34  C   UNL     1       7.434   5.138  14.508  0.00  0.00    +0.000 C 
ATOM     35  C   UNL     1       7.446   4.716  16.962  0.00  0.00    +0.000 C 
ENDBRANCH  31  32
ENDBRANCH  30  31
ENDBRANCH  24  29
TORSDOF 5
ENDMDL
MODEL 2
REMARK VINA RESULT:      -7.6      2.416      9.665
REMARK  Name = 
REMARK  9 active torsions:
REMARK  status: ('A' for Active; 'I' for Inactive)
REMARK    1  A    between atoms: C_1  and  C_2
REMARK    2  A    between atoms: C_2  and  C_3
REMARK    3  A    between atoms: C_3  and  O_4
REMARK    4  A    between atoms: C_27  and  C_28
REMARK    5  A    between atoms: N_29  and  O_30
REMARK    6  A    between atoms: O_30  and  C_31
REMARK    7  A    between atoms: C_31  and  C_32
REMARK    8  A    between atoms: C_31  and  C_33
REMARK    9  A    between atoms: C_31  and  C_34
REMARK                            x       y       z     vdW  Elec       q    Type
REMARK                         _______ _______ _______ _____ _____    ______ ____
ROOT
ATOM      1  C   UNL     1       3.970   4.879  17.231  0.00  0.00    +0.000 C 
ATOM      2  C   UNL     1       2.926   3.860  17.828  0.00  0.00    +0.000 C 
ATOM      3  C   UNL     1       3.339   3.229  19.121  0.00  0.00    +0.000 C 
ATOM      4  O   UNL     1       3.830   2.110  19.186  0.00  0.00    +0.000 OA
ATOM      5  O   UNL     1       3.074   3.982  20.204  0.00  0.00    +0.000 OA
ATOM      6  C   UNL     1       3.782   5.215  20.188  0.00  0.00    +0.000 C 
ATOM      7  C   UNL     1       3.249   6.215  19.205  0.00  0.00    +0.000 A 
ATOM      8  C   UNL     1       3.512   6.333  17.871  0.00  0.00    +0.000 A 
ATOM      9  C   UNL     1       3.394   7.835  17.416  0.00  0.00    +0.000 A 
ATOM     10  C   UNL     1       2.619   8.748  18.136  0.00  0.00    +0.000 A 
ATOM     11  N   UNL     1       1.886   8.179  19.160  0.00  0.00    +0.000 N 
ATOM     12  C   UNL     1       2.132   7.010  19.752  0.00  0.00    +0.000 A 
ATOM     13  O   UNL     1       1.507   6.607  20.727  0.00  0.00    +0.000 OA
ATOM     14  C   UNL     1       0.816   9.004  19.677  0.00  0.00    +0.000 C 
ATOM     15  C   UNL     1       1.092  10.324  19.091  0.00  0.00    +0.000 A 
ATOM     16  C   UNL     1       2.209  10.282  18.245  0.00  0.00    +0.000 A 
ATOM     17  N   UNL     1       2.775  11.460  17.875  0.00  0.00    +0.000 NA
ATOM     18  C   UNL     1       2.162  12.679  18.282  0.00  0.00    +0.000 A 
ATOM     19  C   UNL     1       2.707  13.970  18.044  0.00  0.00    +0.000 A 
ATOM     20  C   UNL     1       2.090  15.210  18.404  0.00  0.00    +0.000 A 
ATOM     21  C   UNL     1       0.871  15.207  19.050  0.00  0.00    +0.000 A 
ATOM     22  C   UNL     1       0.323  13.975  19.366  0.00  0.00    +0.000 A 
ATOM     23  C   UNL     1       0.936  12.732  19.005  0.00  0.00    +0.000 A 
ATOM     24  C   UNL     1       0.408  11.496  19.408  0.00  0.00    +0.000 A 
ENDROOT
BRANCH   1  26
ATOM     25  C   UNL     1       5.545   4.443  14.987  0.00  0.00    +0.000 C 
ATOM     26  C   UNL     1       4.250   4.246  15.788  0.00  0.00    +0.000 C 
ENDBRANCH   1  26
BRANCH   1  27
ATOM     27  O   UNL     1       5.286   4.684  17.830  0.00  0.00    +0.000 OA
ATOM     28  H   UNL     1       5.870   4.225  17.192  0.00  0.00    +0.000 HD
ENDBRANCH   1  27
BRANCH  24  29
ATOM     29  C   UNL     1      -0.851  11.402  20.203  0.00  0.00    +0.000 C 
ATOM     30  N   UNL     1      -0.870  11.720  21.458  0.00  0.00    +0.000 NA
BRANCH  30  31
ATOM     31  O   UNL     1      -2.143  11.526  22.018  0.00  0.00    +0.000 OA
BRANCH  31  32
ATOM     32  C   UNL     1      -2.586  12.743  22.664  0.00  0.00    +0.000 C 
ATOM     33  C   UNL     1      -3.502  12.382  23.839  0.00  0.00    +0.000 C 
ATOM     34  C   UNL     1      -1.333  13.452  23.198  0.00  0.00    +0.000 C 
ATOM     35  C   UNL     1      -3.295  13.691  21.683  0.00  0.00    +0.000 C 
ENDBRANCH  31  32
ENDBRANCH  30  31
ENDBRANCH  24  29
TORSDOF 5
ENDMDL
MODEL 3
REMARK VINA RESULT:      -7.6      0.599      1.049
REMARK  Name = 
REMARK  9 active torsions:
REMARK  status: ('A' for Active; 'I' for Inactive)
REMARK    1  A    between atoms: C_1  and  C_2
REMARK    2  A    between atoms: C_2  and  C_3
REMARK    3  A    between atoms: C_3  and  O_4
REMARK    4  A    between atoms: C_27  and  C_28
REMARK    5  A    between atoms: N_29  and  O_30
REMARK    6  A    between atoms: O_30  and  C_31
REMARK    7  A    between atoms: C_31  and  C_32
REMARK    8  A    between atoms: C_31  and  C_33
REMARK    9  A    between atoms: C_31  and  C_34
REMARK                            x       y       z     vdW  Elec       q    Type
REMARK                         _______ _______ _______ _____ _____    ______ ____
ROOT
ATOM      1  C   UNL     1      -1.230  12.457  20.004  0.00  0.00    +0.000 C 
ATOM      2  C   UNL     1      -0.993  13.341  18.719  0.00  0.00    +0.000 C 
ATOM      3  C   UNL     1      -0.017  14.459  18.902  0.00  0.00    +0.000 C 
ATOM      4  O   UNL     1      -0.363  15.614  19.113  0.00  0.00    +0.000 OA
ATOM      5  O   UNL     1       1.269  14.089  18.762  0.00  0.00    +0.000 OA
ATOM      6  C   UNL     1       1.663  13.134  19.739  0.00  0.00    +0.000 C 
ATOM      7  C   UNL     1       1.109  11.758  19.510  0.00  0.00    +0.000 A 
ATOM      8  C   UNL     1      -0.107  11.251  19.865  0.00  0.00    +0.000 A 
ATOM      9  C   UNL     1      -0.005   9.703  20.126  0.00  0.00    +0.000 A 
ATOM     10  C   UNL     1       1.014   8.940  19.549  0.00  0.00    +0.000 A 
ATOM     11  N   UNL     1       1.797   9.636  18.649  0.00  0.00    +0.000 N 
ATOM     12  C   UNL     1       1.934  10.961  18.581  0.00  0.00    +0.000 A 
ATOM     13  O   UNL     1       2.726  11.516  17.828  0.00  0.00    +0.000 OA
ATOM     14  C   UNL     1       2.604   8.813  17.775  0.00  0.00    +0.000 C 
ATOM     15  C   UNL     1       2.508   7.478  18.384  0.00  0.00    +0.000 A 
ATOM     16  C   UNL     1       1.665   7.489  19.504  0.00  0.00    +0.000 A 
ATOM     17  N   UNL     1       1.713   6.427  20.350  0.00  0.00    +0.000 NA
ATOM     18  C   UNL     1       2.540   5.315  20.018  0.00  0.00    +0.000 A 
ATOM     19  C   UNL     1       2.751   4.192  20.862  0.00  0.00    +0.000 A 
ATOM     20  C   UNL     1       3.541   3.045  20.534  0.00  0.00    +0.000 A 
ATOM     21  C   UNL     1       4.184   2.982  19.315  0.00  0.00    +0.000 A 
ATOM     22  C   UNL     1       4.066   4.077  18.477  0.00  0.00    +0.000 A 
ATOM     23  C   UNL     1       3.274   5.226  18.801  0.00  0.00    +0.000 A 
ATOM     24  C   UNL     1       3.236   6.362  17.977  0.00  0.00    +0.000 A 
ENDROOT
BRANCH   1  26
ATOM     25  C   UNL     1      -3.509  12.696  21.570  0.00  0.00    +0.000 C 
ATOM     26  C   UNL     1      -2.811  12.598  20.206  0.00  0.00    +0.000 C 
ENDBRANCH   1  26
BRANCH   1  27
ATOM     27  O   UNL     1      -0.778  13.156  21.203  0.00  0.00    +0.000 OA
ATOM     28  H   UNL     1      -1.492  13.743  21.527  0.00  0.00    +0.000 HD
ENDBRANCH   1  27
BRANCH  24  29
ATOM     29  C   UNL     1       3.988   6.422  16.690  0.00  0.00    +0.000 C 
ATOM     30  N   UNL     1       5.235   6.079  16.631  0.00  0.00    +0.000 NA
BRANCH  30  31
ATOM     31  O   UNL     1       5.753   6.245  15.336  0.00  0.00    +0.000 OA
BRANCH  31  32
ATOM     32  C   UNL     1       6.443   5.040  14.927  0.00  0.00    +0.000 C 
ATOM     33  C   UNL     1       7.543   5.410  13.925  0.00  0.00    +0.000 C 
ATOM     34  C   UNL     1       7.085   4.437  16.184  0.00  0.00    +0.000 C 
ATOM     35  C   UNL     1       5.482   4.000  14.330  0.00  0.00    +0.000 C 
ENDBRANCH  31  32
ENDBRANCH  30  31
ENDBRANCH  24  29
TORSDOF 5
ENDMDL
MODEL 4
REMARK VINA RESULT:      -7.5      0.629      1.065
REMARK  Name = 
REMARK  9 active torsions:
REMARK  status: ('A' for Active; 'I' for Inactive)
REMARK    1  A    between atoms: C_1  and  C_2
REMARK    2  A    between atoms: C_2  and  C_3
REMARK    3  A    between atoms: C_3  and  O_4
REMARK    4  A    between atoms: C_27  and  C_28
REMARK    5  A    between atoms: N_29  and  O_30
REMARK    6  A    between atoms: O_30  and  C_31
REMARK    7  A    between atoms: C_31  and  C_32
REMARK    8  A    between atoms: C_31  and  C_33
REMARK    9  A    between atoms: C_31  and  C_34
REMARK                            x       y       z     vdW  Elec       q    Type
REMARK                         _______ _______ _______ _____ _____    ______ ____
ROOT
ATOM      1  C   UNL     1      -1.346  12.313  20.567  0.00  0.00    +0.000 C 
ATOM      2  C   UNL     1      -1.104  13.141  19.247  0.00  0.00    +0.000 C 
ATOM      3  C   UNL     1      -0.080  14.226  19.370  0.00  0.00    +0.000 C 
ATOM      4  O   UNL     1      -0.375  15.400  19.549  0.00  0.00    +0.000 OA
ATOM      5  O   UNL     1       1.186  13.799  19.216  0.00  0.00    +0.000 OA
ATOM      6  C   UNL     1       1.565  12.863  20.217  0.00  0.00    +0.000 C 
ATOM      7  C   UNL     1       0.952  11.503  20.047  0.00  0.00    +0.000 A 
ATOM      8  C   UNL     1      -0.275  11.058  20.445  0.00  0.00    +0.000 A 
ATOM      9  C   UNL     1      -0.228   9.517  20.759  0.00  0.00    +0.000 A 
ATOM     10  C   UNL     1       0.746   8.694  20.186  0.00  0.00    +0.000 A 
ATOM     11  N   UNL     1       1.535   9.328  19.246  0.00  0.00    +0.000 N 
ATOM     12  C   UNL     1       1.724  10.643  19.129  0.00  0.00    +0.000 A 
ATOM     13  O   UNL     1       2.519  11.139  18.340  0.00  0.00    +0.000 OA
ATOM     14  C   UNL     1       2.289   8.443  18.384  0.00  0.00    +0.000 C 
ATOM     15  C   UNL     1       2.154   7.135  19.041  0.00  0.00    +0.000 A 
ATOM     16  C   UNL     1       1.339   7.217  20.178  0.00  0.00    +0.000 A 
ATOM     17  N   UNL     1       1.364   6.183  21.059  0.00  0.00    +0.000 NA
ATOM     18  C   UNL     1       2.139   5.029  20.748  0.00  0.00    +0.000 A 
ATOM     19  C   UNL     1       2.324   3.928  21.626  0.00  0.00    +0.000 A 
ATOM     20  C   UNL     1       3.061   2.739  21.321  0.00  0.00    +0.000 A 
ATOM     21  C   UNL     1       3.673   2.609  20.091  0.00  0.00    +0.000 A 
ATOM     22  C   UNL     1       3.579   3.679  19.218  0.00  0.00    +0.000 A 
ATOM     23  C   UNL     1       2.841   4.869  19.520  0.00  0.00    +0.000 A 
ATOM     24  C   UNL     1       2.828   5.977  18.658  0.00  0.00    +0.000 A 
ENDROOT
BRANCH   1  26
ATOM     25  C   UNL     1      -3.541  13.045  22.100  0.00  0.00    +0.000 C 
ATOM     26  C   UNL     1      -2.915  12.523  20.798  0.00  0.00    +0.000 C 
ENDBRANCH   1  26
BRANCH   1  27
ATOM     27  O   UNL     1      -0.840  13.032  21.731  0.00  0.00    +0.000 OA
ATOM     28  H   UNL     1      -0.677  12.399  22.460  0.00  0.00    +0.000 HD
ENDBRANCH   1  27
BRANCH  24  29
ATOM     29  C   UNL     1       3.552   5.964  17.353  0.00  0.00    +0.000 C 
ATOM     30  N   UNL     1       4.846   5.977  17.310  0.00  0.00    +0.000 NA
BRANCH  30  31
ATOM     31  O   UNL     1       5.317   5.996  15.987  0.00  0.00    +0.000 OA
BRANCH  31  32
ATOM     32  C   UNL     1       6.269   4.924  15.791  0.00  0.00    +0.000 C 
ATOM     33  C   UNL     1       7.198   4.849  17.009  0.00  0.00    +0.000 C 
ATOM     34  C   UNL     1       5.466   3.619  15.687  0.00  0.00    +0.000 C 
ATOM     35  C   UNL     1       7.075   5.099  14.494  0.00  0.00    +0.000 C 
ENDBRANCH  31  32
ENDBRANCH  30  31
ENDBRANCH  24  29
TORSDOF 5
ENDMDL
MODEL 5
REMARK VINA RESULT:      -7.5      2.739      9.694
REMARK  Name = 
REMARK  9 active torsions:
REMARK  status: ('A' for Active; 'I' for Inactive)
REMARK    1  A    between atoms: C_1  and  C_2
REMARK    2  A    between atoms: C_2  and  C_3
REMARK    3  A    between atoms: C_3  and  O_4
REMARK    4  A    between atoms: C_27  and  C_28
REMARK    5  A    between atoms: N_29  and  O_30
REMARK    6  A    between atoms: O_30  and  C_31
REMARK    7  A    between atoms: C_31  and  C_32
REMARK    8  A    between atoms: C_31  and  C_33
REMARK    9  A    between atoms: C_31  and  C_34
REMARK                            x       y       z     vdW  Elec       q    Type
REMARK                         _______ _______ _______ _____ _____    ______ ____
ROOT
ATOM      1  C   UNL     1       3.011   5.130  18.111  0.00  0.00    +0.000 C 
ATOM      2  C   UNL     1       1.769   4.319  18.647  0.00  0.00    +0.000 C 
ATOM      3  C   UNL     1       1.930   3.775  20.032  0.00  0.00    +0.000 C 
ATOM      4  O   UNL     1       2.248   2.614  20.256  0.00  0.00    +0.000 OA
ATOM      5  O   UNL     1       1.646   4.661  21.003  0.00  0.00    +0.000 OA
ATOM      6  C   UNL     1       2.517   5.784  20.978  0.00  0.00    +0.000 C 
ATOM      7  C   UNL     1       2.253   6.741  19.853  0.00  0.00    +0.000 A 
ATOM      8  C   UNL     1       2.688   6.688  18.560  0.00  0.00    +0.000 A 
ATOM      9  C   UNL     1       2.838   8.138  17.969  0.00  0.00    +0.000 A 
ATOM     10  C   UNL     1       2.119   9.212  18.500  0.00  0.00    +0.000 A 
ATOM     11  N   UNL     1       1.195   8.849  19.461  0.00  0.00    +0.000 N 
ATOM     12  C   UNL     1       1.201   7.724  20.177  0.00  0.00    +0.000 A 
ATOM     13  O   UNL     1       0.413   7.506  21.090  0.00  0.00    +0.000 OA
ATOM     14  C   UNL     1       0.198   9.853  19.761  0.00  0.00    +0.000 C 
ATOM     15  C   UNL     1       0.726  11.060  19.108  0.00  0.00    +0.000 A 
ATOM     16  C   UNL     1       1.919  10.789  18.424  0.00  0.00    +0.000 A 
ATOM     17  N   UNL     1       2.686  11.841  18.036  0.00  0.00    +0.000 NA
ATOM     18  C   UNL     1       2.206  13.164  18.254  0.00  0.00    +0.000 A 
ATOM     19  C   UNL     1       2.952  14.342  17.983  0.00  0.00    +0.000 A 
ATOM     20  C   UNL     1       2.477  15.682  18.152  0.00  0.00    +0.000 A 
ATOM     21  C   UNL     1       1.201  15.901  18.628  0.00  0.00    +0.000 A 
ATOM     22  C   UNL     1       0.451  14.789  18.970  0.00  0.00    +0.000 A 
ATOM     23  C   UNL     1       0.922  13.447  18.800  0.00  0.00    +0.000 A 
ATOM     24  C   UNL     1       0.180  12.337  19.231  0.00  0.00    +0.000 A 
ENDROOT
BRANCH   1  26
ATOM     25  C   UNL     1       4.799   4.026  16.296  0.00  0.00    +0.000 C 
ATOM     26  C   UNL     1       3.370   4.323  16.777  0.00  0.00    +0.000 C 
ENDBRANCH   1  26
BRANCH   1  27
ATOM     27  O   UNL     1       4.204   4.828  18.894  0.00  0.00    +0.000 OA
ATOM     28  H   UNL     1       4.018   4.077  19.495  0.00  0.00    +0.000 HD
ENDBRANCH   1  27
BRANCH  24  29
ATOM     29  C   UNL     1      -1.166  12.487  19.857  0.00  0.00    +0.000 C 
ATOM     30  N   UNL     1      -1.292  12.627  21.138  0.00  0.00    +0.000 NA
BRANCH  30  31
ATOM     31  O   UNL     1      -2.642  12.717  21.515  0.00  0.00    +0.000 OA
BRANCH  31  32
ATOM     32  C   UNL     1      -2.747  13.351  22.812  0.00  0.00    +0.000 C 
ATOM     33  C   UNL     1      -1.338  13.632  23.347  0.00  0.00    +0.000 C 
ATOM     34  C   UNL     1      -3.485  14.681  22.607  0.00  0.00    +0.000 C 
ATOM     35  C   UNL     1      -3.554  12.499  23.805  0.00  0.00    +0.000 C 
ENDBRANCH  31  32
ENDBRANCH  30  31
ENDBRANCH  24  29
TORSDOF 5
ENDMDL
MODEL 6
REMARK VINA RESULT:      -7.1      2.550      9.479
REMARK  Name = 
REMARK  9 active torsions:
REMARK  status: ('A' for Active; 'I' for Inactive)
REMARK    1  A    between atoms: C_1  and  C_2
REMARK    2  A    between atoms: C_2  and  C_3
REMARK    3  A    between atoms: C_3  and  O_4
REMARK    4  A    between atoms: C_27  and  C_28
REMARK    5  A    between atoms: N_29  and  O_30
REMARK    6  A    between atoms: O_30  and  C_31
REMARK    7  A    between atoms: C_31  and  C_32
REMARK    8  A    between atoms: C_31  and  C_33
REMARK    9  A    between atoms: C_31  and  C_34
REMARK                            x       y       z     vdW  Elec       q    Type
REMARK                         _______ _______ _______ _____ _____    ______ ____
ROOT
ATOM      1  C   UNL     1       3.318   5.339  18.140  0.00  0.00    +0.000 C 
ATOM      2  C   UNL     1       2.081   4.433  18.509  0.00  0.00    +0.000 C 
ATOM      3  C   UNL     1       2.113   3.868  19.894  0.00  0.00    +0.000 C 
ATOM      4  O   UNL     1       2.483   2.727  20.138  0.00  0.00    +0.000 OA
ATOM      5  O   UNL     1       1.650   4.710  20.836  0.00  0.00    +0.000 OA
ATOM      6  C   UNL     1       2.436   5.891  20.935  0.00  0.00    +0.000 C 
ATOM      7  C   UNL     1       2.241   6.853  19.800  0.00  0.00    +0.000 A 
ATOM      8  C   UNL     1       2.832   6.861  18.570  0.00  0.00    +0.000 A 
ATOM      9  C   UNL     1       2.949   8.331  18.023  0.00  0.00    +0.000 A 
ATOM     10  C   UNL     1       2.095   9.340  18.478  0.00  0.00    +0.000 A 
ATOM     11  N   UNL     1       1.090   8.891  19.314  0.00  0.00    +0.000 N 
ATOM     12  C   UNL     1       1.090   7.753  20.008  0.00  0.00    +0.000 A 
ATOM     13  O   UNL     1       0.215   7.459  20.815  0.00  0.00    +0.000 OA
ATOM     14  C   UNL     1      -0.005   9.817  19.504  0.00  0.00    +0.000 C 
ATOM     15  C   UNL     1       0.510  11.073  18.938  0.00  0.00    +0.000 A 
ATOM     16  C   UNL     1       1.793  10.901  18.402  0.00  0.00    +0.000 A 
ATOM     17  N   UNL     1       2.524  12.012  18.126  0.00  0.00    +0.000 NA
ATOM     18  C   UNL     1       1.928  13.293  18.303  0.00  0.00    +0.000 A 
ATOM     19  C   UNL     1       2.615  14.527  18.143  0.00  0.00    +0.000 A 
ATOM     20  C   UNL     1       2.028  15.825  18.273  0.00  0.00    +0.000 A 
ATOM     21  C   UNL     1       0.692  15.945  18.593  0.00  0.00    +0.000 A 
ATOM     22  C   UNL     1      -0.013  14.776  18.824  0.00  0.00    +0.000 A 
ATOM     23  C   UNL     1       0.571  13.474  18.692  0.00  0.00    +0.000 A 
ATOM     24  C   UNL     1      -0.136  12.305  19.013  0.00  0.00    +0.000 A 
ENDROOT
BRANCH   1  26
ATOM     25  C   UNL     1       5.102   5.070  16.030  0.00  0.00    +0.000 C 
ATOM     26  C   UNL     1       3.892   4.591  16.848  0.00  0.00    +0.000 C 
ENDBRANCH   1  26
BRANCH   1  27
ATOM     27  O   UNL     1       4.426   5.103  19.059  0.00  0.00    +0.000 OA
ATOM     28  H   UNL     1       5.261   5.035  18.552  0.00  0.00    +0.000 HD
ENDBRANCH   1  27
BRANCH  24  29
ATOM     29  C   UNL     1      -1.556  12.347  19.472  0.00  0.00    +0.000 C 
ATOM     30  N   UNL     1      -2.525  12.074  18.658  0.00  0.00    +0.000 NA
BRANCH  30  31
ATOM     31  O   UNL     1      -3.775  12.207  19.285  0.00  0.00    +0.000 OA
BRANCH  31  32
ATOM     32  C   UNL     1      -4.789  11.530  18.505  0.00  0.00    +0.000 C 
ATOM     33  C   UNL     1      -4.194  10.243  17.920  0.00  0.00    +0.000 C 
ATOM     34  C   UNL     1      -5.931  11.169  19.465  0.00  0.00    +0.000 C 
ATOM     35  C   UNL     1      -5.357  12.428  17.395  0.00  0.00    +0.000 C 
ENDBRANCH  31  32
ENDBRANCH  30  31
ENDBRANCH  24  29
TORSDOF 5
ENDMDL
MODEL 7
REMARK VINA RESULT:      -7.1      1.959      4.521
REMARK  Name = 
REMARK  9 active torsions:
REMARK  status: ('A' for Active; 'I' for Inactive)
REMARK    1  A    between atoms: C_1  and  C_2
REMARK    2  A    between atoms: C_2  and  C_3
REMARK    3  A    between atoms: C_3  and  O_4
REMARK    4  A    between atoms: C_27  and  C_28
REMARK    5  A    between atoms: N_29  and  O_30
REMARK    6  A    between atoms: O_30  and  C_31
REMARK    7  A    between atoms: C_31  and  C_32
REMARK    8  A    between atoms: C_31  and  C_33
REMARK    9  A    between atoms: C_31  and  C_34
REMARK                            x       y       z     vdW  Elec       q    Type
REMARK                         _______ _______ _______ _____ _____    ______ ____
ROOT
ATOM      1  C   UNL     1       0.327  13.529  18.910  0.00  0.00    +0.000 C 
ATOM      2  C   UNL     1      -0.289  13.500  20.361  0.00  0.00    +0.000 C 
ATOM      3  C   UNL     1      -1.766  13.266  20.407  0.00  0.00    +0.000 C 
ATOM      4  O   UNL     1      -2.578  14.172  20.539  0.00  0.00    +0.000 OA
ATOM      5  O   UNL     1      -2.115  11.968  20.341  0.00  0.00    +0.000 OA
ATOM      6  C   UNL     1      -1.716  11.365  19.116  0.00  0.00    +0.000 C 
ATOM      7  C   UNL     1      -0.241  11.106  19.014  0.00  0.00    +0.000 A 
ATOM      8  C   UNL     1       0.756  11.956  18.633  0.00  0.00    +0.000 A 
ATOM      9  C   UNL     1       1.934  11.158  17.961  0.00  0.00    +0.000 A 
ATOM     10  C   UNL     1       2.134   9.802  18.231  0.00  0.00    +0.000 A 
ATOM     11  N   UNL     1       1.311   9.299  19.220  0.00  0.00    +0.000 N 
ATOM     12  C   UNL     1       0.154   9.823  19.627  0.00  0.00    +0.000 A 
ATOM     13  O   UNL     1      -0.584   9.273  20.437  0.00  0.00    +0.000 OA
ATOM     14  C   UNL     1       1.728   8.030  19.776  0.00  0.00    +0.000 C 
ATOM     15  C   UNL     1       2.770   7.577  18.842  0.00  0.00    +0.000 A 
ATOM     16  C   UNL     1       2.999   8.526  17.836  0.00  0.00    +0.000 A 
ATOM     17  N   UNL     1       3.694   8.135  16.737  0.00  0.00    +0.000 NA
ATOM     18  C   UNL     1       4.238   6.819  16.693  0.00  0.00    +0.000 A 
ATOM     19  C   UNL     1       4.898   6.261  15.566  0.00  0.00    +0.000 A 
ATOM     20  C   UNL     1       5.490   4.959  15.513  0.00  0.00    +0.000 A 
ATOM     21  C   UNL     1       5.429   4.132  16.616  0.00  0.00    +0.000 A 
ATOM     22  C   UNL     1       4.741   4.600  17.722  0.00  0.00    +0.000 A 
ATOM     23  C   UNL     1       4.149   5.904  17.780  0.00  0.00    +0.000 A 
ATOM     24  C   UNL     1       3.383   6.327  18.877  0.00  0.00    +0.000 A 
ENDROOT
BRANCH   1  26
ATOM     25  C   UNL     1       2.520  15.222  18.737  0.00  0.00    +0.000 C 
ATOM     26  C   UNL     1       1.011  14.975  18.879  0.00  0.00    +0.000 C 
ENDBRANCH   1  26
BRANCH   1  27
ATOM     27  O   UNL     1      -0.713  13.740  17.909  0.00  0.00    +0.000 OA
ATOM     28  H   UNL     1      -1.566  13.400  18.249  0.00  0.00    +0.000 HD
ENDBRANCH   1  27
BRANCH  24  29
ATOM     29  C   UNL     1       3.175   5.456  20.071  0.00  0.00    +0.000 C 
ATOM     30  N   UNL     1       2.020   4.920  20.309  0.00  0.00    +0.000 NA
BRANCH  30  31
ATOM     31  O   UNL     1       2.037   4.170  21.497  0.00  0.00    +0.000 OA
BRANCH  31  32
ATOM     32  C   UNL     1       1.934   2.760  21.187  0.00  0.00    +0.000 C 
ATOM     33  C   UNL     1       3.342   2.153  21.147  0.00  0.00    +0.000 C 
ATOM     34  C   UNL     1       1.134   2.105  22.322  0.00  0.00    +0.000 C 
ATOM     35  C   UNL     1       1.190   2.512  19.866  0.00  0.00    +0.000 C 
ENDBRANCH  31  32
ENDBRANCH  30  31
ENDBRANCH  24  29
TORSDOF 5
ENDMDL
MODEL 8
REMARK VINA RESULT:      -7.1      2.356      9.418
REMARK  Name = 
REMARK  9 active torsions:
REMARK  status: ('A' for Active; 'I' for Inactive)
REMARK    1  A    between atoms: C_1  and  C_2
REMARK    2  A    between atoms: C_2  and  C_3
REMARK    3  A    between atoms: C_3  and  O_4
REMARK    4  A    between atoms: C_27  and  C_28
REMARK    5  A    between atoms: N_29  and  O_30
REMARK    6  A    between atoms: O_30  and  C_31
REMARK    7  A    between atoms: C_31  and  C_32
REMARK    8  A    between atoms: C_31  and  C_33
REMARK    9  A    between atoms: C_31  and  C_34
REMARK                            x       y       z     vdW  Elec       q    Type
REMARK                         _______ _______ _______ _____ _____    ______ ____
ROOT
ATOM      1  C   UNL     1       4.271   5.181  17.274  0.00  0.00    +0.000 C 
ATOM      2  C   UNL     1       3.107   4.143  17.504  0.00  0.00    +0.000 C 
ATOM      3  C   UNL     1       3.151   3.438  18.823  0.00  0.00    +0.000 C 
ATOM      4  O   UNL     1       3.611   2.312  18.959  0.00  0.00    +0.000 OA
ATOM      5  O   UNL     1       2.596   4.133  19.831  0.00  0.00    +0.000 OA
ATOM      6  C   UNL     1       3.276   5.357  20.080  0.00  0.00    +0.000 C 
ATOM      7  C   UNL     1       3.029   6.416  19.045  0.00  0.00    +0.000 A 
ATOM      8  C   UNL     1       3.648   6.603  17.843  0.00  0.00    +0.000 A 
ATOM      9  C   UNL     1       3.653   8.129  17.457  0.00  0.00    +0.000 A 
ATOM     10  C   UNL     1       2.706   9.010  17.986  0.00  0.00    +0.000 A 
ATOM     11  N   UNL     1       1.722   8.394  18.736  0.00  0.00    +0.000 N 
ATOM     12  C   UNL     1       1.801   7.192  19.307  0.00  0.00    +0.000 A 
ATOM     13  O   UNL     1       0.934   6.744  20.049  0.00  0.00    +0.000 OA
ATOM     14  C   UNL     1       0.548   9.202  18.984  0.00  0.00    +0.000 C 
ATOM     15  C   UNL     1       0.969  10.548  18.571  0.00  0.00    +0.000 A 
ATOM     16  C   UNL     1       2.275  10.540  18.063  0.00  0.00    +0.000 A 
ATOM     17  N   UNL     1       2.916  11.730  17.929  0.00  0.00    +0.000 NA
ATOM     18  C   UNL     1       2.210  12.932  18.219  0.00  0.00    +0.000 A 
ATOM     19  C   UNL     1       2.794  14.228  18.211  0.00  0.00    +0.000 A 
ATOM     20  C   UNL     1       2.096  15.453  18.456  0.00  0.00    +0.000 A 
ATOM     21  C   UNL     1       0.747  15.428  18.742  0.00  0.00    +0.000 A 
ATOM     22  C   UNL     1       0.138  14.188  18.825  0.00  0.00    +0.000 A 
ATOM     23  C   UNL     1       0.833  12.960  18.579  0.00  0.00    +0.000 A 
ATOM     24  C   UNL     1       0.219  11.709  18.752  0.00  0.00    +0.000 A 
ENDROOT
BRANCH   1  26
ATOM     25  C   UNL     1       6.387   4.126  15.821  0.00  0.00    +0.000 C 
ATOM     26  C   UNL     1       4.939   4.625  15.931  0.00  0.00    +0.000 C 
ENDBRANCH   1  26
BRANCH   1  27
ATOM     27  O   UNL     1       5.372   4.940  18.200  0.00  0.00    +0.000 OA
ATOM     28  H   UNL     1       6.164   4.656  17.698  0.00  0.00    +0.000 HD
ENDBRANCH   1  27
BRANCH  24  29
ATOM     29  C   UNL     1      -1.210  11.586  19.164  0.00  0.00    +0.000 C 
ATOM     30  N   UNL     1      -2.164  11.726  18.301  0.00  0.00    +0.000 NA
BRANCH  30  31
ATOM     31  O   UNL     1      -3.426  11.606  18.906  0.00  0.00    +0.000 OA
BRANCH  31  32
ATOM     32  C   UNL     1      -4.321  10.877  18.033  0.00  0.00    +0.000 C 
ATOM     33  C   UNL     1      -4.544  11.691  16.752  0.00  0.00    +0.000 C 
ATOM     34  C   UNL     1      -3.628   9.554  17.678  0.00  0.00    +0.000 C 
ATOM     35  C   UNL     1      -5.658  10.552  18.719  0.00  0.00    +0.000 C 
ENDBRANCH  31  32
ENDBRANCH  30  31
ENDBRANCH  24  29
TORSDOF 5
ENDMDL
MODEL 9
REMARK VINA RESULT:      -6.8      6.049     11.021
REMARK  Name = 
REMARK  9 active torsions:
REMARK  status: ('A' for Active; 'I' for Inactive)
REMARK    1  A    between atoms: C_1  and  C_2
REMARK    2  A    between atoms: C_2  and  C_3
REMARK    3  A    between atoms: C_3  and  O_4
REMARK    4  A    between atoms: C_27  and  C_28
REMARK    5  A    between atoms: N_29  and  O_30
REMARK    6  A    between atoms: O_30  and  C_31
REMARK    7  A    between atoms: C_31  and  C_32
REMARK    8  A    between atoms: C_31  and  C_33
REMARK    9  A    between atoms: C_31  and  C_34
REMARK                            x       y       z     vdW  Elec       q    Type
REMARK                         _______ _______ _______ _____ _____    ______ ____
ROOT
ATOM      1  C   UNL     1       9.614  14.324  18.095  0.00  0.00    +0.000 C 
ATOM      2  C   UNL     1       9.881  13.243  19.213  0.00  0.00    +0.000 C 
ATOM      3  C   UNL     1      10.581  13.763  20.429  0.00  0.00    +0.000 C 
ATOM      4  O   UNL     1      11.784  13.631  20.610  0.00  0.00    +0.000 OA
ATOM      5  O   UNL     1       9.760  14.342  21.324  0.00  0.00    +0.000 OA
ATOM      6  C   UNL     1       9.108  15.489  20.794  0.00  0.00    +0.000 C 
ATOM      7  C   UNL     1       8.019  15.174  19.810  0.00  0.00    +0.000 A 
ATOM      8  C   UNL     1       8.117  14.919  18.473  0.00  0.00    +0.000 A 
ATOM      9  C   UNL     1       6.811  15.377  17.726  0.00  0.00    +0.000 A 
ATOM     10  C   UNL     1       5.594  15.493  18.405  0.00  0.00    +0.000 A 
ATOM     11  N   UNL     1       5.634  15.041  19.710  0.00  0.00    +0.000 N 
ATOM     12  C   UNL     1       6.725  14.897  20.463  0.00  0.00    +0.000 A 
ATOM     13  O   UNL     1       6.686  14.591  21.650  0.00  0.00    +0.000 OA
ATOM     14  C   UNL     1       4.341  14.804  20.314  0.00  0.00    +0.000 C 
ATOM     15  C   UNL     1       3.406  15.433  19.370  0.00  0.00    +0.000 A 
ATOM     16  C   UNL     1       4.080  15.958  18.259  0.00  0.00    +0.000 A 
ATOM     17  N   UNL     1       3.411  16.829  17.460  0.00  0.00    +0.000 NA
ATOM     18  C   UNL     1       2.038  17.099  17.726  0.00  0.00    +0.000 A 
ATOM     19  C   UNL     1       1.259  18.059  17.027  0.00  0.00    +0.000 A 
ATOM     20  C   UNL     1      -0.132  18.317  17.247  0.00  0.00    +0.000 A 
ATOM     21  C   UNL     1      -0.815  17.611  18.216  0.00  0.00    +0.000 A 
ATOM     22  C   UNL     1      -0.090  16.707  18.973  0.00  0.00    +0.000 A 
ATOM     23  C   UNL     1       1.301  16.445  18.754  0.00  0.00    +0.000 A 
ATOM     24  C   UNL     1       2.038  15.588  19.587  0.00  0.00    +0.000 A 
ENDROOT
BRANCH   1  26
ATOM     25  C   UNL     1      11.730  12.990  16.892  0.00  0.00    +0.000 C 
ATOM     26  C   UNL     1      10.356  13.675  16.836  0.00  0.00    +0.000 C 
ENDBRANCH   1  26
BRANCH   1  27
ATOM     27  O   UNL     1      10.464  15.493  18.291  0.00  0.00    +0.000 OA
ATOM     28  H   UNL     1      10.072  16.262  17.829  0.00  0.00    +0.000 HD
ENDBRANCH   1  27
BRANCH  24  29
ATOM     29  C   UNL     1       1.403  14.866  20.728  0.00  0.00    +0.000 C 
ATOM     30  N   UNL     1       1.034  13.630  20.609  0.00  0.00    +0.000 NA
BRANCH  30  31
ATOM     31  O   UNL     1       0.431  13.158  21.787  0.00  0.00    +0.000 OA
BRANCH  31  32
ATOM     32  C   UNL     1      -0.427  12.034  21.481  0.00  0.00    +0.000 C 
ATOM     33  C   UNL     1      -1.645  12.534  20.694  0.00  0.00    +0.000 C 
ATOM     34  C   UNL     1       0.383  11.073  20.600  0.00  0.00    +0.000 C 
ATOM     35  C   UNL     1      -0.861  11.279  22.747  0.00  0.00    +0.000 C 
ENDBRANCH  31  32
ENDBRANCH  30  31
ENDBRANCH  24  29
TORSDOF 5
ENDMDL
