MODEL 1
REMARK VINA RESULT:      -6.3      0.000      0.000
REMARK  Name = 
REMARK  9 active torsions:
REMARK  status: ('A' for Active; 'I' for Inactive)
REMARK    1  A    between atoms: C_1  and  C_2
REMARK    2  A    between atoms: C_2  and  C_3
REMARK    3  A    between atoms: C_2  and  C_4
REMARK    4  A    between atoms: C_2  and  N_6
REMARK    5  A    between atoms: N_6  and  C_7
REMARK    6  A    between atoms: C_7  and  C_8
REMARK    7  A    between atoms: C_8  and  O_9
REMARK    8  A    between atoms: C_8  and  C_10
REMARK    9  A    between atoms: C_10  and  N_11
REMARK                            x       y       z     vdW  Elec       q    Type
REMARK                         _______ _______ _______ _____ _____    ______ ____
ROOT
ATOM      1  C   UNL     1       3.349   6.399  17.615  0.00  0.00    +0.000 C 
ENDROOT
BRANCH   1   2
ATOM      2  O   UNL     1       2.987   7.712  17.972  0.00  0.00    +0.000 OA
ATOM      3  H   UNL     1       2.202   7.657  18.578  0.00  0.00    +0.000 HD
ENDBRANCH   1   2
BRANCH   1   4
ATOM      4  C   UNL     1       2.391   5.372  18.238  0.00  0.00    +0.000 C 
BRANCH   4   5
ATOM      5  N   UNL     1       2.540   4.049  17.613  0.00  0.00    +0.000 NA
ATOM      6  H   UNL     1       1.783   3.936  16.897  0.00  0.00    +0.000 HD
BRANCH   5   8
ATOM      7  C   UNL     1       3.412   1.786  17.995  0.00  0.00    +0.000 C 
ATOM      8  C   UNL     1       2.490   2.895  18.550  0.00  0.00    +0.000 C 
ATOM      9  C   UNL     1       1.051   2.331  18.671  0.00  0.00    +0.000 C 
BRANCH   8  10
ATOM     10  C   UNL     1       2.983   3.286  19.968  0.00  0.00    +0.000 C 
ATOM     11 BR   UNL     1       1.665   2.949  21.359  0.00  0.00    +0.000 Br
ENDBRANCH   8  10
ENDBRANCH   5   8
ENDBRANCH   4   5
ENDBRANCH   1   4
BRANCH   1  12
ATOM     12  C   UNL     1       4.794   6.093  18.057  0.00  0.00    +0.000 C 
BRANCH  12  13
ATOM     13  N   UNL     1       5.608   5.609  16.934  0.00  0.00    +0.000 N 
ATOM     14  C   UNL     1       5.247   5.724  15.643  0.00  0.00    +0.000 A 
ATOM     15  C   UNL     1       6.229   5.159  14.863  0.00  0.00    +0.000 A 
ATOM     16  N   UNL     1       7.209   4.684  15.653  0.00  0.00    +0.000 NA
ATOM     17  C   UNL     1       6.810   4.966  16.913  0.00  0.00    +0.000 A 
ATOM     18  N   UNL     1       7.600   4.602  18.042  0.00  0.00    +0.000 N 
ATOM     19  O   UNL     1       7.258   4.849  19.155  0.00  0.00    +0.000 OA
ATOM     20  O   UNL     1       8.743   3.976  17.853  0.00  0.00    +0.000 OA
ENDBRANCH  12  13
ENDBRANCH   1  12
TORSDOF 7
ENDMDL
MODEL 2
REMARK VINA RESULT:      -6.2      3.112      5.427
REMARK  Name = 
REMARK  9 active torsions:
REMARK  status: ('A' for Active; 'I' for Inactive)
REMARK    1  A    between atoms: C_1  and  C_2
REMARK    2  A    between atoms: C_2  and  C_3
REMARK    3  A    between atoms: C_2  and  C_4
REMARK    4  A    between atoms: C_2  and  N_6
REMARK    5  A    between atoms: N_6  and  C_7
REMARK    6  A    between atoms: C_7  and  C_8
REMARK    7  A    between atoms: C_8  and  O_9
REMARK    8  A    between atoms: C_8  and  C_10
REMARK    9  A    between atoms: C_10  and  N_11
REMARK                            x       y       z     vdW  Elec       q    Type
REMARK                         _______ _______ _______ _____ _____    ______ ____
ROOT
ATOM      1  C   UNL     1       3.119   5.713  19.022  0.00  0.00    +0.000 C 
ENDROOT
BRANCH   1   2
ATOM      2  O   UNL     1       2.076   6.599  18.692  0.00  0.00    +0.000 OA
ATOM      3  H   UNL     1       2.476   7.495  18.533  0.00  0.00    +0.000 HD
ENDBRANCH   1   2
BRANCH   1   4
ATOM      4  C   UNL     1       4.387   6.024  18.211  0.00  0.00    +0.000 C 
BRANCH   4   5
ATOM      5  N   UNL     1       4.977   4.801  17.646  0.00  0.00    +0.000 NA
ATOM      6  H   UNL     1       5.529   4.324  18.399  0.00  0.00    +0.000 HD
BRANCH   5   8
ATOM      7  C   UNL     1       7.248   5.449  16.977  0.00  0.00    +0.000 C 
ATOM      8  C   UNL     1       5.858   5.009  16.466  0.00  0.00    +0.000 C 
ATOM      9  C   UNL     1       5.299   6.114  15.534  0.00  0.00    +0.000 C 
BRANCH   8  10
ATOM     10  C   UNL     1       6.023   3.707  15.638  0.00  0.00    +0.000 C 
ATOM     11 BR   UNL     1       6.160   4.027  13.723  0.00  0.00    +0.000 Br
ENDBRANCH   8  10
ENDBRANCH   5   8
ENDBRANCH   4   5
ENDBRANCH   1   4
BRANCH   1  12
ATOM     12  C   UNL     1       2.693   4.252  18.775  0.00  0.00    +0.000 C 
BRANCH  12  13
ATOM     13  N   UNL     1       2.433   3.549  20.038  0.00  0.00    +0.000 N 
ATOM     14  C   UNL     1       1.275   3.632  20.719  0.00  0.00    +0.000 A 
ATOM     15  C   UNL     1       1.379   2.861  21.853  0.00  0.00    +0.000 A 
ATOM     16  N   UNL     1       2.597   2.291  21.896  0.00  0.00    +0.000 NA
ATOM     17  C   UNL     1       3.227   2.725  20.781  0.00  0.00    +0.000 A 
ATOM     18  N   UNL     1       4.563   2.332  20.480  0.00  0.00    +0.000 N 
ATOM     19  O   UNL     1       5.123   2.706  19.499  0.00  0.00    +0.000 OA
ATOM     20  O   UNL     1       5.199   1.529  21.308  0.00  0.00    +0.000 OA
ENDBRANCH  12  13
ENDBRANCH   1  12
TORSDOF 7
ENDMDL
MODEL 3
REMARK VINA RESULT:      -6.1      1.512      1.819
REMARK  Name = 
REMARK  9 active torsions:
REMARK  status: ('A' for Active; 'I' for Inactive)
REMARK    1  A    between atoms: C_1  and  C_2
REMARK    2  A    between atoms: C_2  and  C_3
REMARK    3  A    between atoms: C_2  and  C_4
REMARK    4  A    between atoms: C_2  and  N_6
REMARK    5  A    between atoms: N_6  and  C_7
REMARK    6  A    between atoms: C_7  and  C_8
REMARK    7  A    between atoms: C_8  and  O_9
REMARK    8  A    between atoms: C_8  and  C_10
REMARK    9  A    between atoms: C_10  and  N_11
REMARK                            x       y       z     vdW  Elec       q    Type
REMARK                         _______ _______ _______ _____ _____    ______ ____
ROOT
ATOM      1  C   UNL     1       3.547   5.790  17.432  0.00  0.00    +0.000 C 
ENDROOT
BRANCH   1   2
ATOM      2  O   UNL     1       4.596   6.650  17.812  0.00  0.00    +0.000 OA
ATOM      3  H   UNL     1       4.281   7.192  18.582  0.00  0.00    +0.000 HD
ENDBRANCH   1   2
BRANCH   1   4
ATOM      4  C   UNL     1       2.581   5.545  18.602  0.00  0.00    +0.000 C 
BRANCH   4   5
ATOM      5  N   UNL     1       3.257   4.884  19.728  0.00  0.00    +0.000 NA
ATOM      6  H   UNL     1       4.247   4.684  19.446  0.00  0.00    +0.000 HD
BRANCH   5   8
ATOM      7  C   UNL     1       1.410   3.330  19.284  0.00  0.00    +0.000 C 
ATOM      8  C   UNL     1       2.627   3.619  20.192  0.00  0.00    +0.000 C 
ATOM      9  C   UNL     1       2.136   3.739  21.657  0.00  0.00    +0.000 C 
BRANCH   8  10
ATOM     10  C   UNL     1       3.609   2.422  20.101  0.00  0.00    +0.000 C 
ATOM     11 BR   UNL     1       3.481   1.449  18.421  0.00  0.00    +0.000 Br
ENDBRANCH   8  10
ENDBRANCH   5   8
ENDBRANCH   4   5
ENDBRANCH   1   4
BRANCH   1  12
ATOM     12  C   UNL     1       4.102   4.443  16.928  0.00  0.00    +0.000 C 
BRANCH  12  13
ATOM     13  N   UNL     1       5.396   4.614  16.254  0.00  0.00    +0.000 N 
ATOM     14  C   UNL     1       5.533   4.780  14.926  0.00  0.00    +0.000 A 
ATOM     15  C   UNL     1       6.872   4.897  14.636  0.00  0.00    +0.000 A 
ATOM     16  N   UNL     1       7.585   4.804  15.774  0.00  0.00    +0.000 NA
ATOM     17  C   UNL     1       6.666   4.629  16.750  0.00  0.00    +0.000 A 
ATOM     18  N   UNL     1       7.049   4.481  18.114  0.00  0.00    +0.000 N 
ATOM     19  O   UNL     1       6.246   4.330  18.980  0.00  0.00    +0.000 OA
ATOM     20  O   UNL     1       8.326   4.514  18.431  0.00  0.00    +0.000 OA
ENDBRANCH  12  13
ENDBRANCH   1  12
TORSDOF 7
ENDMDL
MODEL 4
REMARK VINA RESULT:      -6.1      2.193      2.906
REMARK  Name = 
REMARK  9 active torsions:
REMARK  status: ('A' for Active; 'I' for Inactive)
REMARK    1  A    between atoms: C_1  and  C_2
REMARK    2  A    between atoms: C_2  and  C_3
REMARK    3  A    between atoms: C_2  and  C_4
REMARK    4  A    between atoms: C_2  and  N_6
REMARK    5  A    between atoms: N_6  and  C_7
REMARK    6  A    between atoms: C_7  and  C_8
REMARK    7  A    between atoms: C_8  and  O_9
REMARK    8  A    between atoms: C_8  and  C_10
REMARK    9  A    between atoms: C_10  and  N_11
REMARK                            x       y       z     vdW  Elec       q    Type
REMARK                         _______ _______ _______ _____ _____    ______ ____
ROOT
ATOM      1  C   UNL     1       4.503   2.471  18.449  0.00  0.00    +0.000 C 
ENDROOT
BRANCH   1   2
ATOM      2  O   UNL     1       3.918   1.422  17.715  0.00  0.00    +0.000 OA
ATOM      3  H   UNL     1       3.565   1.802  16.869  0.00  0.00    +0.000 HD
ENDBRANCH   1   2
BRANCH   1   4
ATOM      4  C   UNL     1       3.910   2.553  19.865  0.00  0.00    +0.000 C 
BRANCH   4   5
ATOM      5  N   UNL     1       3.339   3.882  20.133  0.00  0.00    +0.000 NA
ATOM      6  H   UNL     1       3.889   4.326  20.907  0.00  0.00    +0.000 HD
BRANCH   5   8
ATOM      7  C   UNL     1       1.737   3.095  21.817  0.00  0.00    +0.000 C 
ATOM      8  C   UNL     1       1.898   3.890  20.502  0.00  0.00    +0.000 C 
ATOM      9  C   UNL     1       1.032   3.219  19.406  0.00  0.00    +0.000 C 
BRANCH   8  10
ATOM     10  C   UNL     1       1.372   5.332  20.727  0.00  0.00    +0.000 C 
ATOM     11 BR   UNL     1       2.358   6.675  19.721  0.00  0.00    +0.000 Br
ENDBRANCH   8  10
ENDBRANCH   5   8
ENDBRANCH   4   5
ENDBRANCH   1   4
BRANCH   1  12
ATOM     12  C   UNL     1       4.304   3.819  17.727  0.00  0.00    +0.000 C 
BRANCH  12  13
ATOM     13  N   UNL     1       5.523   4.233  17.019  0.00  0.00    +0.000 N 
ATOM     14  C   UNL     1       5.780   3.936  15.732  0.00  0.00    +0.000 A 
ATOM     15  C   UNL     1       7.005   4.466  15.399  0.00  0.00    +0.000 A 
ATOM     16  N   UNL     1       7.526   5.095  16.468  0.00  0.00    +0.000 NA
ATOM     17  C   UNL     1       6.608   4.939  17.448  0.00  0.00    +0.000 A 
ATOM     18  N   UNL     1       6.814   5.473  18.753  0.00  0.00    +0.000 N 
ATOM     19  O   UNL     1       6.010   5.344  19.620  0.00  0.00    +0.000 OA
ATOM     20  O   UNL     1       7.926   6.131  19.010  0.00  0.00    +0.000 OA
ENDBRANCH  12  13
ENDBRANCH   1  12
TORSDOF 7
ENDMDL
MODEL 5
REMARK VINA RESULT:      -6.1      1.371      1.526
REMARK  Name = 
REMARK  9 active torsions:
REMARK  status: ('A' for Active; 'I' for Inactive)
REMARK    1  A    between atoms: C_1  and  C_2
REMARK    2  A    between atoms: C_2  and  C_3
REMARK    3  A    between atoms: C_2  and  C_4
REMARK    4  A    between atoms: C_2  and  N_6
REMARK    5  A    between atoms: N_6  and  C_7
REMARK    6  A    between atoms: C_7  and  C_8
REMARK    7  A    between atoms: C_8  and  O_9
REMARK    8  A    between atoms: C_8  and  C_10
REMARK    9  A    between atoms: C_10  and  N_11
REMARK                            x       y       z     vdW  Elec       q    Type
REMARK                         _______ _______ _______ _____ _____    ______ ____
ROOT
ATOM      1  C   UNL     1       3.786   6.303  17.955  0.00  0.00    +0.000 C 
ENDROOT
BRANCH   1   2
ATOM      2  O   UNL     1       2.849   7.347  17.838  0.00  0.00    +0.000 OA
ATOM      3  H   UNL     1       1.983   6.948  17.560  0.00  0.00    +0.000 HD
ENDBRANCH   1   2
BRANCH   1   4
ATOM      4  C   UNL     1       3.757   5.688  19.364  0.00  0.00    +0.000 C 
BRANCH   4   5
ATOM      5  N   UNL     1       2.393   5.303  19.754  0.00  0.00    +0.000 NA
ATOM      6  H   UNL     1       2.227   5.628  20.737  0.00  0.00    +0.000 HD
BRANCH   5   8
ATOM      7  C   UNL     1       1.367   3.579  18.339  0.00  0.00    +0.000 C 
ATOM      8  C   UNL     1       2.098   3.847  19.674  0.00  0.00    +0.000 C 
ATOM      9  C   UNL     1       1.184   3.394  20.841  0.00  0.00    +0.000 C 
BRANCH   8  10
ATOM     10  C   UNL     1       3.395   2.996  19.709  0.00  0.00    +0.000 C 
ATOM     11 BR   UNL     1       3.452   1.626  18.329  0.00  0.00    +0.000 Br
ENDBRANCH   8  10
ENDBRANCH   5   8
ENDBRANCH   4   5
ENDBRANCH   1   4
BRANCH   1  12
ATOM     12  C   UNL     1       5.209   6.809  17.641  0.00  0.00    +0.000 C 
BRANCH  12  13
ATOM     13  N   UNL     1       5.874   5.956  16.648  0.00  0.00    +0.000 N 
ATOM     14  C   UNL     1       5.494   5.868  15.360  0.00  0.00    +0.000 A 
ATOM     15  C   UNL     1       6.323   4.977  14.720  0.00  0.00    +0.000 A 
ATOM     16  N   UNL     1       7.226   4.498  15.596  0.00  0.00    +0.000 NA
ATOM     17  C   UNL     1       6.934   5.105  16.768  0.00  0.00    +0.000 A 
ATOM     18  N   UNL     1       7.683   4.841  17.950  0.00  0.00    +0.000 N 
ATOM     19  O   UNL     1       7.435   5.374  18.985  0.00  0.00    +0.000 OA
ATOM     20  O   UNL     1       8.681   3.982  17.901  0.00  0.00    +0.000 OA
ENDBRANCH  12  13
ENDBRANCH   1  12
TORSDOF 7
ENDMDL
MODEL 6
REMARK VINA RESULT:      -6.0      3.316      5.584
REMARK  Name = 
REMARK  9 active torsions:
REMARK  status: ('A' for Active; 'I' for Inactive)
REMARK    1  A    between atoms: C_1  and  C_2
REMARK    2  A    between atoms: C_2  and  C_3
REMARK    3  A    between atoms: C_2  and  C_4
REMARK    4  A    between atoms: C_2  and  N_6
REMARK    5  A    between atoms: N_6  and  C_7
REMARK    6  A    between atoms: C_7  and  C_8
REMARK    7  A    between atoms: C_8  and  O_9
REMARK    8  A    between atoms: C_8  and  C_10
REMARK    9  A    between atoms: C_10  and  N_11
REMARK                            x       y       z     vdW  Elec       q    Type
REMARK                         _______ _______ _______ _____ _____    ______ ____
ROOT
ATOM      1  C   UNL     1       2.602   4.082  17.668  0.00  0.00    +0.000 C 
ENDROOT
BRANCH   1   2
ATOM      2  O   UNL     1       2.117   2.766  17.797  0.00  0.00    +0.000 OA
ATOM      3  H   UNL     1       1.132   2.791  17.673  0.00  0.00    +0.000 HD
ENDBRANCH   1   2
BRANCH   1   4
ATOM      4  C   UNL     1       3.914   4.112  16.868  0.00  0.00    +0.000 C 
BRANCH   4   5
ATOM      5  N   UNL     1       4.949   4.893  17.562  0.00  0.00    +0.000 NA
ATOM      6  H   UNL     1       4.479   5.679  18.075  0.00  0.00    +0.000 HD
BRANCH   5   8
ATOM      7  C   UNL     1       7.245   4.535  16.774  0.00  0.00    +0.000 C 
ATOM      8  C   UNL     1       6.010   5.459  16.687  0.00  0.00    +0.000 C 
ATOM      9  C   UNL     1       6.420   6.881  17.147  0.00  0.00    +0.000 C 
BRANCH   8  10
ATOM     10  C   UNL     1       5.552   5.537  15.207  0.00  0.00    +0.000 C 
ATOM     11 BR   UNL     1       6.357   4.169  14.081  0.00  0.00    +0.000 Br
ENDBRANCH   8  10
ENDBRANCH   5   8
ENDBRANCH   4   5
ENDBRANCH   1   4
BRANCH   1  12
ATOM     12  C   UNL     1       2.826   4.719  19.054  0.00  0.00    +0.000 C 
BRANCH  12  13
ATOM     13  N   UNL     1       2.462   3.793  20.135  0.00  0.00    +0.000 N 
ATOM     14  C   UNL     1       1.248   3.758  20.714  0.00  0.00    +0.000 A 
ATOM     15  C   UNL     1       1.257   2.787  21.688  0.00  0.00    +0.000 A 
ATOM     16  N   UNL     1       2.472   2.209  21.731  0.00  0.00    +0.000 NA
ATOM     17  C   UNL     1       3.193   2.839  20.777  0.00  0.00    +0.000 A 
ATOM     18  N   UNL     1       4.554   2.497  20.527  0.00  0.00    +0.000 N 
ATOM     19  O   UNL     1       5.196   3.044  19.687  0.00  0.00    +0.000 OA
ATOM     20  O   UNL     1       5.121   1.548  21.243  0.00  0.00    +0.000 OA
ENDBRANCH  12  13
ENDBRANCH   1  12
TORSDOF 7
ENDMDL
MODEL 7
REMARK VINA RESULT:      -6.0      2.119      2.692
REMARK  Name = 
REMARK  9 active torsions:
REMARK  status: ('A' for Active; 'I' for Inactive)
REMARK    1  A    between atoms: C_1  and  C_2
REMARK    2  A    between atoms: C_2  and  C_3
REMARK    3  A    between atoms: C_2  and  C_4
REMARK    4  A    between atoms: C_2  and  N_6
REMARK    5  A    between atoms: N_6  and  C_7
REMARK    6  A    between atoms: C_7  and  C_8
REMARK    7  A    between atoms: C_8  and  O_9
REMARK    8  A    between atoms: C_8  and  C_10
REMARK    9  A    between atoms: C_10  and  N_11
REMARK                            x       y       z     vdW  Elec       q    Type
REMARK                         _______ _______ _______ _____ _____    ______ ____
ROOT
ATOM      1  C   UNL     1       4.801   3.301  17.831  0.00  0.00    +0.000 C 
ENDROOT
BRANCH   1   2
ATOM      2  O   UNL     1       4.319   2.026  17.478  0.00  0.00    +0.000 OA
ATOM      3  H   UNL     1       4.459   1.908  16.501  0.00  0.00    +0.000 HD
ENDBRANCH   1   2
BRANCH   1   4
ATOM      4  C   UNL     1       4.261   3.735  19.204  0.00  0.00    +0.000 C 
BRANCH   4   5
ATOM      5  N   UNL     1       3.306   2.755  19.740  0.00  0.00    +0.000 NA
ATOM      6  H   UNL     1       3.389   1.873  19.180  0.00  0.00    +0.000 HD
BRANCH   5   8
ATOM      7  C   UNL     1       1.356   3.102  21.191  0.00  0.00    +0.000 C 
ATOM      8  C   UNL     1       1.883   3.190  19.740  0.00  0.00    +0.000 C 
ATOM      9  C   UNL     1       1.015   2.274  18.840  0.00  0.00    +0.000 C 
BRANCH   8  10
ATOM     10  C   UNL     1       1.731   4.652  19.244  0.00  0.00    +0.000 C 
ATOM     11 BR   UNL     1       1.684   5.952  20.691  0.00  0.00    +0.000 Br
ENDBRANCH   8  10
ENDBRANCH   5   8
ENDBRANCH   4   5
ENDBRANCH   1   4
BRANCH   1  12
ATOM     12  C   UNL     1       4.410   4.346  16.768  0.00  0.00    +0.000 C 
BRANCH  12  13
ATOM     13  N   UNL     1       5.518   4.608  15.840  0.00  0.00    +0.000 N 
ATOM     14  C   UNL     1       5.708   3.936  14.691  0.00  0.00    +0.000 A 
ATOM     15  C   UNL     1       6.838   4.428  14.079  0.00  0.00    +0.000 A 
ATOM     16  N   UNL     1       7.366   5.407  14.836  0.00  0.00    +0.000 NA
ATOM     17  C   UNL     1       6.548   5.500  15.908  0.00  0.00    +0.000 A 
ATOM     18  N   UNL     1       6.792   6.440  16.951  0.00  0.00    +0.000 N 
ATOM     19  O   UNL     1       6.075   6.532  17.897  0.00  0.00    +0.000 OA
ATOM     20  O   UNL     1       7.840   7.234  16.869  0.00  0.00    +0.000 OA
ENDBRANCH  12  13
ENDBRANCH   1  12
TORSDOF 7
ENDMDL
MODEL 8
REMARK VINA RESULT:      -6.0      2.823      5.785
REMARK  Name = 
REMARK  9 active torsions:
REMARK  status: ('A' for Active; 'I' for Inactive)
REMARK    1  A    between atoms: C_1  and  C_2
REMARK    2  A    between atoms: C_2  and  C_3
REMARK    3  A    between atoms: C_2  and  C_4
REMARK    4  A    between atoms: C_2  and  N_6
REMARK    5  A    between atoms: N_6  and  C_7
REMARK    6  A    between atoms: C_7  and  C_8
REMARK    7  A    between atoms: C_8  and  O_9
REMARK    8  A    between atoms: C_8  and  C_10
REMARK    9  A    between atoms: C_10  and  N_11
REMARK                            x       y       z     vdW  Elec       q    Type
REMARK                         _______ _______ _______ _____ _____    ______ ____
ROOT
ATOM      1  C   UNL     1       3.966   2.780  17.844  0.00  0.00    +0.000 C 
ENDROOT
BRANCH   1   2
ATOM      2  O   UNL     1       4.237   1.406  17.698  0.00  0.00    +0.000 OA
ATOM      3  H   UNL     1       3.977   0.953  18.543  0.00  0.00    +0.000 HD
ENDBRANCH   1   2
BRANCH   1   4
ATOM      4  C   UNL     1       4.726   3.608  16.795  0.00  0.00    +0.000 C 
BRANCH   4   5
ATOM      5  N   UNL     1       5.578   4.626  17.428  0.00  0.00    +0.000 NA
ATOM      6  H   UNL     1       4.988   5.179  18.096  0.00  0.00    +0.000 HD
BRANCH   5   8
ATOM      7  C   UNL     1       5.158   6.438  15.827  0.00  0.00    +0.000 C 
ATOM      8  C   UNL     1       6.248   5.566  16.490  0.00  0.00    +0.000 C 
ATOM      9  C   UNL     1       7.015   4.802  15.381  0.00  0.00    +0.000 C 
BRANCH   8  10
ATOM     10  C   UNL     1       7.247   6.496  17.226  0.00  0.00    +0.000 C 
ATOM     11 BR   UNL     1       7.743   5.846  18.992  0.00  0.00    +0.000 Br
ENDBRANCH   8  10
ENDBRANCH   5   8
ENDBRANCH   4   5
ENDBRANCH   1   4
BRANCH   1  12
ATOM     12  C   UNL     1       4.345   3.264  19.258  0.00  0.00    +0.000 C 
BRANCH  12  13
ATOM     13  N   UNL     1       3.152   3.588  20.051  0.00  0.00    +0.000 N 
ATOM     14  C   UNL     1       2.449   2.681  20.755  0.00  0.00    +0.000 A 
ATOM     15  C   UNL     1       1.396   3.322  21.364  0.00  0.00    +0.000 A 
ATOM     16  N   UNL     1       1.426   4.630  21.049  0.00  0.00    +0.000 NA
ATOM     17  C   UNL     1       2.503   4.772  20.245  0.00  0.00    +0.000 A 
ATOM     18  N   UNL     1       2.860   6.038  19.696  0.00  0.00    +0.000 N 
ATOM     19  O   UNL     1       3.809   6.173  18.990  0.00  0.00    +0.000 OA
ATOM     20  O   UNL     1       2.122   7.092  19.977  0.00  0.00    +0.000 OA
ENDBRANCH  12  13
ENDBRANCH   1  12
TORSDOF 7
ENDMDL
MODEL 9
REMARK VINA RESULT:      -6.0      2.524      3.132
REMARK  Name = 
REMARK  9 active torsions:
REMARK  status: ('A' for Active; 'I' for Inactive)
REMARK    1  A    between atoms: C_1  and  C_2
REMARK    2  A    between atoms: C_2  and  C_3
REMARK    3  A    between atoms: C_2  and  C_4
REMARK    4  A    between atoms: C_2  and  N_6
REMARK    5  A    between atoms: N_6  and  C_7
REMARK    6  A    between atoms: C_7  and  C_8
REMARK    7  A    between atoms: C_8  and  O_9
REMARK    8  A    between atoms: C_8  and  C_10
REMARK    9  A    between atoms: C_10  and  N_11
REMARK                            x       y       z     vdW  Elec       q    Type
REMARK                         _______ _______ _______ _____ _____    ______ ____
ROOT
ATOM      1  C   UNL     1       4.593   3.477  17.584  0.00  0.00    +0.000 C 
ENDROOT
BRANCH   1   2
ATOM      2  O   UNL     1       4.967   2.562  16.582  0.00  0.00    +0.000 OA
ATOM      3  H   UNL     1       4.636   1.665  16.850  0.00  0.00    +0.000 HD
ENDBRANCH   1   2
BRANCH   1   4
ATOM      4  C   UNL     1       3.298   3.034  18.284  0.00  0.00    +0.000 C 
BRANCH   4   5
ATOM      5  N   UNL     1       3.223   3.556  19.657  0.00  0.00    +0.000 NA
ATOM      6  H   UNL     1       3.884   3.004  20.255  0.00  0.00    +0.000 HD
BRANCH   5   8
ATOM      7  C   UNL     1       1.969   2.714  21.591  0.00  0.00    +0.000 C 
ATOM      8  C   UNL     1       1.872   3.519  20.276  0.00  0.00    +0.000 C 
ATOM      9  C   UNL     1       0.844   2.827  19.345  0.00  0.00    +0.000 C 
BRANCH   8  10
ATOM     10  C   UNL     1       1.353   4.944  20.605  0.00  0.00    +0.000 C 
ATOM     11 BR   UNL     1       2.406   6.355  19.776  0.00  0.00    +0.000 Br
ENDBRANCH   8  10
ENDBRANCH   5   8
ENDBRANCH   4   5
ENDBRANCH   1   4
BRANCH   1  12
ATOM     12  C   UNL     1       4.403   4.888  16.991  0.00  0.00    +0.000 C 
BRANCH  12  13
ATOM     13  N   UNL     1       5.663   5.644  16.992  0.00  0.00    +0.000 N 
ATOM     14  C   UNL     1       6.066   6.428  18.008  0.00  0.00    +0.000 A 
ATOM     15  C   UNL     1       7.276   6.989  17.672  0.00  0.00    +0.000 A 
ATOM     16  N   UNL     1       7.641   6.566  16.448  0.00  0.00    +0.000 NA
ATOM     17  C   UNL     1       6.642   5.748  16.048  0.00  0.00    +0.000 A 
ATOM     18  N   UNL     1       6.671   5.105  14.777  0.00  0.00    +0.000 N 
ATOM     19  O   UNL     1       5.797   4.380  14.418  0.00  0.00    +0.000 OA
ATOM     20  O   UNL     1       7.693   5.315  13.973  0.00  0.00    +0.000 OA
ENDBRANCH  12  13
ENDBRANCH   1  12
TORSDOF 7
ENDMDL
