MODEL 1
REMARK VINA RESULT:      -8.5      0.000      0.000
REMARK  Name = 
REMARK  7 active torsions:
REMARK  status: ('A' for Active; 'I' for Inactive)
REMARK    1  A    between atoms: C_1  and  N_2
REMARK    2  A    between atoms: C_13  and  N_14
REMARK    3  A    between atoms: N_16  and  C_17
REMARK    4  A    between atoms: C_17  and  C_18
REMARK    5  A    between atoms: C_28  and  C_29
REMARK    6  A    between atoms: C_29  and  C_30
REMARK    7  A    between atoms: C_30  and  O_32
REMARK                            x       y       z     vdW  Elec       q    Type
REMARK                         _______ _______ _______ _____ _____    ______ ____
ROOT
ATOM      1  C   UNL     1       1.570  11.731  18.561  0.00  0.00    +0.000 C 
ATOM      2  N   UNL     1       1.475  10.397  19.125  0.00  0.00    +0.000 N 
ATOM      3  C   UNL     1       1.835   9.322  18.304  0.00  0.00    +0.000 A 
ATOM      4  O   UNL     1       2.032   9.441  17.096  0.00  0.00    +0.000 OA
ATOM      5  C   UNL     1       1.983   8.081  18.999  0.00  0.00    +0.000 A 
ATOM      6  C   UNL     1       1.542   7.809  20.263  0.00  0.00    +0.000 A 
ATOM      7  N   UNL     1       1.853   6.510  20.612  0.00  0.00    +0.000 NA
ATOM      8  C   UNL     1       2.452   5.974  19.547  0.00  0.00    +0.000 A 
ATOM      9  N   UNL     1       2.818   4.674  19.345  0.00  0.00    +0.000 N 
ATOM     10  C   UNL     1       2.897   4.064  18.017  0.00  0.00    +0.000 C 
ATOM     11  C   UNL     1       2.264   2.685  18.015  0.00  0.00    +0.000 C 
ATOM     12  C   UNL     1       2.925   1.796  19.056  0.00  0.00    +0.000 C 
ATOM     13  C   UNL     1       2.884   2.448  20.449  0.00  0.00    +0.000 C 
ATOM     14  C   UNL     1       3.441   3.900  20.427  0.00  0.00    +0.000 C 
ATOM     15  N   UNL     1       2.684   6.967  18.609  0.00  0.00    +0.000 N 
ATOM     16  C   UNL     1       0.887   8.881  21.000  0.00  0.00    +0.000 A 
ATOM     17  C   UNL     1       0.220   8.682  22.213  0.00  0.00    +0.000 A 
ATOM     18  C   UNL     1      -0.425   9.757  22.857  0.00  0.00    +0.000 A 
ATOM     19  C   UNL     1      -0.376  11.052  22.323  0.00  0.00    +0.000 A 
ATOM     20  C   UNL     1       0.318  11.254  21.123  0.00  0.00    +0.000 A 
ATOM     21  C   UNL     1       0.915  10.186  20.431  0.00  0.00    +0.000 A 
ENDROOT
BRANCH  13  22
ATOM     22  N   UNL     1       3.605   1.575  21.387  0.00  0.00    +0.000 NA
ATOM     23  H   UNL     1       4.273   2.125  21.928  0.00  0.00    +0.000 HD
ATOM     24  H   UNL     1       4.167   0.913  20.852  0.00  0.00    +0.000 HD
ENDBRANCH  13  22
BRANCH  15  25
ATOM     25  C   UNL     1       3.602   6.926  17.475  0.00  0.00    +0.000 C 
BRANCH  25  26
ATOM     26  C   UNL     1       4.967   6.361  17.766  0.00  0.00    +0.000 A 
ATOM     27  C   UNL     1       5.422   6.214  19.093  0.00  0.00    +0.000 A 
ATOM     28  C   UNL     1       6.704   5.734  19.353  0.00  0.00    +0.000 A 
ATOM     29  C   UNL     1       7.532   5.358  18.305  0.00  0.00    +0.000 A 
ATOM     30  C   UNL     1       7.068   5.419  16.992  0.00  0.00    +0.000 A 
ATOM     31  C   UNL     1       5.788   5.900  16.725  0.00  0.00    +0.000 A 
ATOM     32 CL   UNL     1       5.244   5.856  15.083  0.00  0.00    +0.000 Cl
ENDBRANCH  25  26
ENDBRANCH  15  25
BRANCH  19  33
ATOM     33  C   UNL     1      -1.132  12.211  22.945  0.00  0.00    +0.000 C 
BRANCH  33  34
ATOM     34  C   UNL     1      -2.646  12.151  22.841  0.00  0.00    +0.000 C 
ATOM     35  O   UNL     1      -3.362  11.849  23.788  0.00  0.00    +0.000 OA
BRANCH  34  36
ATOM     36  O   UNL     1      -3.162  12.525  21.653  0.00  0.00    +0.000 OA
ATOM     37  H   UNL     1      -3.914  13.146  21.722  0.00  0.00    +0.000 HD
ENDBRANCH  34  36
ENDBRANCH  33  34
ENDBRANCH  19  33
TORSDOF 6
ENDMDL
MODEL 2
REMARK VINA RESULT:      -8.5      5.176     10.772
REMARK  Name = 
REMARK  7 active torsions:
REMARK  status: ('A' for Active; 'I' for Inactive)
REMARK    1  A    between atoms: C_1  and  N_2
REMARK    2  A    between atoms: C_13  and  N_14
REMARK    3  A    between atoms: N_16  and  C_17
REMARK    4  A    between atoms: C_17  and  C_18
REMARK    5  A    between atoms: C_28  and  C_29
REMARK    6  A    between atoms: C_29  and  C_30
REMARK    7  A    between atoms: C_30  and  O_32
REMARK                            x       y       z     vdW  Elec       q    Type
REMARK                         _______ _______ _______ _____ _____    ______ ____
ROOT
ATOM      1  C   UNL     1      -2.525   9.573  16.280  0.00  0.00    +0.000 C 
ATOM      2  N   UNL     1      -2.307  10.425  17.434  0.00  0.00    +0.000 N 
ATOM      3  C   UNL     1      -3.251  11.426  17.686  0.00  0.00    +0.000 A 
ATOM      4  O   UNL     1      -4.127  11.736  16.879  0.00  0.00    +0.000 OA
ATOM      5  C   UNL     1      -3.127  12.036  18.973  0.00  0.00    +0.000 A 
ATOM      6  C   UNL     1      -2.051  11.939  19.809  0.00  0.00    +0.000 A 
ATOM      7  N   UNL     1      -2.274  12.658  20.966  0.00  0.00    +0.000 NA
ATOM      8  C   UNL     1      -3.472  13.228  20.823  0.00  0.00    +0.000 A 
ATOM      9  N   UNL     1      -4.076  14.148  21.632  0.00  0.00    +0.000 N 
ATOM     10  C   UNL     1      -5.043  15.130  21.140  0.00  0.00    +0.000 C 
ATOM     11  C   UNL     1      -4.761  16.505  21.717  0.00  0.00    +0.000 C 
ATOM     12  C   UNL     1      -4.770  16.454  23.236  0.00  0.00    +0.000 C 
ATOM     13  C   UNL     1      -3.785  15.395  23.761  0.00  0.00    +0.000 C 
ATOM     14  C   UNL     1      -4.012  14.010  23.092  0.00  0.00    +0.000 C 
ATOM     15  N   UNL     1      -4.078  12.729  19.680  0.00  0.00    +0.000 N 
ATOM     16  C   UNL     1      -0.929  11.115  19.381  0.00  0.00    +0.000 A 
ATOM     17  C   UNL     1       0.302  11.089  20.043  0.00  0.00    +0.000 A 
ATOM     18  C   UNL     1       1.359  10.295  19.554  0.00  0.00    +0.000 A 
ATOM     19  C   UNL     1       1.188   9.483  18.425  0.00  0.00    +0.000 A 
ATOM     20  C   UNL     1      -0.055   9.488  17.780  0.00  0.00    +0.000 A 
ATOM     21  C   UNL     1      -1.103  10.319  18.212  0.00  0.00    +0.000 A 
ENDROOT
BRANCH  13  22
ATOM     22  N   UNL     1      -3.900  15.347  25.227  0.00  0.00    +0.000 NA
ATOM     23  H   UNL     1      -4.151  14.403  25.523  0.00  0.00    +0.000 HD
ATOM     24  H   UNL     1      -4.681  15.938  25.513  0.00  0.00    +0.000 HD
ENDBRANCH  13  22
BRANCH  15  25
ATOM     25  C   UNL     1      -5.491  12.790  19.321  0.00  0.00    +0.000 C 
BRANCH  25  26
ATOM     26  C   UNL     1      -6.311  11.591  19.717  0.00  0.00    +0.000 A 
ATOM     27  C   UNL     1      -6.237  10.388  18.984  0.00  0.00    +0.000 A 
ATOM     28  C   UNL     1      -7.035   9.298  19.330  0.00  0.00    +0.000 A 
ATOM     29  C   UNL     1      -7.883   9.376  20.425  0.00  0.00    +0.000 A 
ATOM     30  C   UNL     1      -7.908  10.529  21.209  0.00  0.00    +0.000 A 
ATOM     31  C   UNL     1      -7.114  11.622  20.868  0.00  0.00    +0.000 A 
ATOM     32 CL   UNL     1      -7.123  12.980  21.941  0.00  0.00    +0.000 Cl
ENDBRANCH  25  26
ENDBRANCH  15  25
BRANCH  19  33
ATOM     33  C   UNL     1       2.331   8.686  17.823  0.00  0.00    +0.000 C 
BRANCH  33  34
ATOM     34  C   UNL     1       2.498   7.268  18.339  0.00  0.00    +0.000 C 
ATOM     35  O   UNL     1       2.263   6.283  17.651  0.00  0.00    +0.000 OA
BRANCH  34  36
ATOM     36  O   UNL     1       2.995   7.159  19.587  0.00  0.00    +0.000 OA
ATOM     37  H   UNL     1       3.358   6.275  19.797  0.00  0.00    +0.000 HD
ENDBRANCH  34  36
ENDBRANCH  33  34
ENDBRANCH  19  33
TORSDOF 6
ENDMDL
MODEL 3
REMARK VINA RESULT:      -8.3      1.309      1.492
REMARK  Name = 
REMARK  7 active torsions:
REMARK  status: ('A' for Active; 'I' for Inactive)
REMARK    1  A    between atoms: C_1  and  N_2
REMARK    2  A    between atoms: C_13  and  N_14
REMARK    3  A    between atoms: N_16  and  C_17
REMARK    4  A    between atoms: C_17  and  C_18
REMARK    5  A    between atoms: C_28  and  C_29
REMARK    6  A    between atoms: C_29  and  C_30
REMARK    7  A    between atoms: C_30  and  O_32
REMARK                            x       y       z     vdW  Elec       q    Type
REMARK                         _______ _______ _______ _____ _____    ______ ____
ROOT
ATOM      1  C   UNL     1       1.859  11.684  18.183  0.00  0.00    +0.000 C 
ATOM      2  N   UNL     1       1.605  10.443  18.890  0.00  0.00    +0.000 N 
ATOM      3  C   UNL     1       1.793   9.248  18.187  0.00  0.00    +0.000 A 
ATOM      4  O   UNL     1       1.967   9.210  16.970  0.00  0.00    +0.000 OA
ATOM      5  C   UNL     1       1.795   8.079  19.012  0.00  0.00    +0.000 A 
ATOM      6  C   UNL     1       1.360   8.006  20.304  0.00  0.00    +0.000 A 
ATOM      7  N   UNL     1       1.506   6.722  20.789  0.00  0.00    +0.000 NA
ATOM      8  C   UNL     1       1.995   5.999  19.780  0.00  0.00    +0.000 A 
ATOM      9  N   UNL     1       2.179   4.647  19.716  0.00  0.00    +0.000 N 
ATOM     10  C   UNL     1       2.134   3.894  18.462  0.00  0.00    +0.000 C 
ATOM     11  C   UNL     1       1.323   2.621  18.621  0.00  0.00    +0.000 C 
ATOM     12  C   UNL     1       1.892   1.767  19.742  0.00  0.00    +0.000 C 
ATOM     13  C   UNL     1       1.980   2.563  21.056  0.00  0.00    +0.000 C 
ATOM     14  C   UNL     1       2.725   3.915  20.866  0.00  0.00    +0.000 C 
ATOM     15  N   UNL     1       2.329   6.845  18.735  0.00  0.00    +0.000 N 
ATOM     16  C   UNL     1       0.877   9.229  20.930  0.00  0.00    +0.000 A 
ATOM     17  C   UNL     1       0.226   9.253  22.167  0.00  0.00    +0.000 A 
ATOM     18  C   UNL     1      -0.250  10.468  22.699  0.00  0.00    +0.000 A 
ATOM     19  C   UNL     1      -0.045  11.680  22.026  0.00  0.00    +0.000 A 
ATOM     20  C   UNL     1       0.634  11.658  20.801  0.00  0.00    +0.000 A 
ATOM     21  C   UNL     1       1.061  10.450  20.221  0.00  0.00    +0.000 A 
ENDROOT
BRANCH  13  22
ATOM     22  N   UNL     1       2.606   1.705  22.073  0.00  0.00    +0.000 NA
ATOM     23  H   UNL     1       2.009   1.655  22.899  0.00  0.00    +0.000 HD
ATOM     24  H   UNL     1       3.470   2.149  22.389  0.00  0.00    +0.000 HD
ENDBRANCH  13  22
BRANCH  15  25
ATOM     25  C   UNL     1       3.199   6.560  17.598  0.00  0.00    +0.000 C 
BRANCH  25  26
ATOM     26  C   UNL     1       4.640   6.287  17.937  0.00  0.00    +0.000 A 
ATOM     27  C   UNL     1       5.003   5.792  19.207  0.00  0.00    +0.000 A 
ATOM     28  C   UNL     1       6.344   5.586  19.530  0.00  0.00    +0.000 A 
ATOM     29  C   UNL     1       7.332   5.831  18.587  0.00  0.00    +0.000 A 
ATOM     30  C   UNL     1       6.984   6.242  17.301  0.00  0.00    +0.000 A 
ATOM     31  C   UNL     1       5.646   6.451  16.972  0.00  0.00    +0.000 A 
ATOM     32 CL   UNL     1       5.281   6.865  15.332  0.00  0.00    +0.000 Cl
ENDBRANCH  25  26
ENDBRANCH  15  25
BRANCH  19  33
ATOM     33  C   UNL     1      -0.621  12.992  22.529  0.00  0.00    +0.000 C 
BRANCH  33  34
ATOM     34  C   UNL     1      -0.021  14.254  21.934  0.00  0.00    +0.000 C 
ATOM     35  O   UNL     1      -0.608  14.936  21.105  0.00  0.00    +0.000 OA
BRANCH  34  36
ATOM     36  O   UNL     1       1.176  14.619  22.434  0.00  0.00    +0.000 OA
ATOM     37  H   UNL     1       1.879  13.949  22.317  0.00  0.00    +0.000 HD
ENDBRANCH  34  36
ENDBRANCH  33  34
ENDBRANCH  19  33
TORSDOF 6
ENDMDL
MODEL 4
REMARK VINA RESULT:      -8.2      4.874     10.734
REMARK  Name = 
REMARK  7 active torsions:
REMARK  status: ('A' for Active; 'I' for Inactive)
REMARK    1  A    between atoms: C_1  and  N_2
REMARK    2  A    between atoms: C_13  and  N_14
REMARK    3  A    between atoms: N_16  and  C_17
REMARK    4  A    between atoms: C_17  and  C_18
REMARK    5  A    between atoms: C_28  and  C_29
REMARK    6  A    between atoms: C_29  and  C_30
REMARK    7  A    between atoms: C_30  and  O_32
REMARK                            x       y       z     vdW  Elec       q    Type
REMARK                         _______ _______ _______ _____ _____    ______ ____
ROOT
ATOM      1  C   UNL     1      -2.611   9.642  16.411  0.00  0.00    +0.000 C 
ATOM      2  N   UNL     1      -2.309  10.469  17.565  0.00  0.00    +0.000 N 
ATOM      3  C   UNL     1      -3.192  11.514  17.860  0.00  0.00    +0.000 A 
ATOM      4  O   UNL     1      -4.080  11.875  17.088  0.00  0.00    +0.000 OA
ATOM      5  C   UNL     1      -2.991  12.103  19.147  0.00  0.00    +0.000 A 
ATOM      6  C   UNL     1      -1.891  11.944  19.941  0.00  0.00    +0.000 A 
ATOM      7  N   UNL     1      -2.036  12.661  21.112  0.00  0.00    +0.000 NA
ATOM      8  C   UNL     1      -3.209  13.291  21.018  0.00  0.00    +0.000 A 
ATOM      9  N   UNL     1      -3.736  14.231  21.857  0.00  0.00    +0.000 N 
ATOM     10  C   UNL     1      -4.670  15.265  21.410  0.00  0.00    +0.000 C 
ATOM     11  C   UNL     1      -4.299  16.618  21.988  0.00  0.00    +0.000 C 
ATOM     12  C   UNL     1      -4.255  16.552  23.506  0.00  0.00    +0.000 C 
ATOM     13  C   UNL     1      -3.306  15.439  23.985  0.00  0.00    +0.000 C 
ATOM     14  C   UNL     1      -3.625  14.074  23.313  0.00  0.00    +0.000 C 
ATOM     15  N   UNL     1      -3.879  12.835  19.895  0.00  0.00    +0.000 N 
ATOM     16  C   UNL     1      -0.828  11.070  19.465  0.00  0.00    +0.000 A 
ATOM     17  C   UNL     1       0.423  10.976  20.081  0.00  0.00    +0.000 A 
ATOM     18  C   UNL     1       1.421  10.136  19.547  0.00  0.00    +0.000 A 
ATOM     19  C   UNL     1       1.169   9.346  18.417  0.00  0.00    +0.000 A 
ATOM     20  C   UNL     1      -0.095   9.419  17.819  0.00  0.00    +0.000 A 
ATOM     21  C   UNL     1      -1.084  10.296  18.297  0.00  0.00    +0.000 A 
ENDROOT
BRANCH  13  22
ATOM     22  N   UNL     1      -3.370  15.381  25.454  0.00  0.00    +0.000 NA
ATOM     23  H   UNL     1      -4.151  14.791  25.743  0.00  0.00    +0.000 HD
ATOM     24  H   UNL     1      -3.587  16.313  25.809  0.00  0.00    +0.000 HD
ENDBRANCH  13  22
BRANCH  15  25
ATOM     25  C   UNL     1      -5.300  12.969  19.588  0.00  0.00    +0.000 C 
BRANCH  25  26
ATOM     26  C   UNL     1      -6.229  12.164  20.458  0.00  0.00    +0.000 A 
ATOM     27  C   UNL     1      -6.585  12.613  21.747  0.00  0.00    +0.000 A 
ATOM     28  C   UNL     1      -7.408  11.839  22.564  0.00  0.00    +0.000 A 
ATOM     29  C   UNL     1      -7.915  10.635  22.099  0.00  0.00    +0.000 A 
ATOM     30  C   UNL     1      -7.639  10.216  20.798  0.00  0.00    +0.000 A 
ATOM     31  C   UNL     1      -6.816  10.983  19.977  0.00  0.00    +0.000 A 
ATOM     32 CL   UNL     1      -6.598  10.452  18.344  0.00  0.00    +0.000 Cl
ENDBRANCH  25  26
ENDBRANCH  15  25
BRANCH  19  33
ATOM     33  C   UNL     1       2.248   8.499  17.766  0.00  0.00    +0.000 C 
BRANCH  33  34
ATOM     34  C   UNL     1       2.757   7.326  18.584  0.00  0.00    +0.000 C 
ATOM     35  O   UNL     1       2.206   6.947  19.610  0.00  0.00    +0.000 OA
BRANCH  34  36
ATOM     36  O   UNL     1       3.818   6.675  18.067  0.00  0.00    +0.000 OA
ATOM     37  H   UNL     1       3.720   6.437  17.124  0.00  0.00    +0.000 HD
ENDBRANCH  34  36
ENDBRANCH  33  34
ENDBRANCH  19  33
TORSDOF 6
ENDMDL
MODEL 5
REMARK VINA RESULT:      -7.8      4.413     10.527
REMARK  Name = 
REMARK  7 active torsions:
REMARK  status: ('A' for Active; 'I' for Inactive)
REMARK    1  A    between atoms: C_1  and  N_2
REMARK    2  A    between atoms: C_13  and  N_14
REMARK    3  A    between atoms: N_16  and  C_17
REMARK    4  A    between atoms: C_17  and  C_18
REMARK    5  A    between atoms: C_28  and  C_29
REMARK    6  A    between atoms: C_29  and  C_30
REMARK    7  A    between atoms: C_30  and  O_32
REMARK                            x       y       z     vdW  Elec       q    Type
REMARK                         _______ _______ _______ _____ _____    ______ ____
ROOT
ATOM      1  C   UNL     1       0.293   9.027  22.624  0.00  0.00    +0.000 C 
ATOM      2  N   UNL     1       0.391  10.057  21.606  0.00  0.00    +0.000 N 
ATOM      3  C   UNL     1      -0.274  11.265  21.843  0.00  0.00    +0.000 A 
ATOM      4  O   UNL     1      -1.080  11.415  22.760  0.00  0.00    +0.000 OA
ATOM      5  C   UNL     1       0.089  12.317  20.945  0.00  0.00    +0.000 A 
ATOM      6  C   UNL     1       0.762  12.172  19.765  0.00  0.00    +0.000 A 
ATOM      7  N   UNL     1       0.937  13.398  19.156  0.00  0.00    +0.000 NA
ATOM      8  C   UNL     1       0.336  14.292  19.945  0.00  0.00    +0.000 A 
ATOM      9  N   UNL     1       0.111  15.617  19.706  0.00  0.00    +0.000 N 
ATOM     10  C   UNL     1      -1.015  16.352  20.284  0.00  0.00    +0.000 C 
ATOM     11  C   UNL     1      -1.684  17.228  19.241  0.00  0.00    +0.000 C 
ATOM     12  C   UNL     1      -0.674  18.185  18.627  0.00  0.00    +0.000 C 
ATOM     13  C   UNL     1       0.533  17.424  18.053  0.00  0.00    +0.000 C 
ATOM     14  C   UNL     1       1.154  16.450  19.094  0.00  0.00    +0.000 C 
ATOM     15  N   UNL     1      -0.048  13.671  21.123  0.00  0.00    +0.000 N 
ATOM     16  C   UNL     1       1.189  10.832  19.387  0.00  0.00    +0.000 A 
ATOM     17  C   UNL     1       1.707  10.518  18.126  0.00  0.00    +0.000 A 
ATOM     18  C   UNL     1       2.067   9.193  17.812  0.00  0.00    +0.000 A 
ATOM     19  C   UNL     1       1.957   8.171  18.764  0.00  0.00    +0.000 A 
ATOM     20  C   UNL     1       1.467   8.492  20.036  0.00  0.00    +0.000 A 
ATOM     21  C   UNL     1       1.042   9.795  20.352  0.00  0.00    +0.000 A 
ENDROOT
BRANCH  13  22
ATOM     22  N   UNL     1       1.500  18.410  17.546  0.00  0.00    +0.000 NA
ATOM     23  H   UNL     1       2.042  18.002  16.784  0.00  0.00    +0.000 HD
ATOM     24  H   UNL     1       2.176  18.613  18.283  0.00  0.00    +0.000 HD
ENDBRANCH  13  22
BRANCH  15  25
ATOM     25  C   UNL     1      -0.410  14.304  22.388  0.00  0.00    +0.000 C 
BRANCH  25  26
ATOM     26  C   UNL     1      -1.887  14.410  22.659  0.00  0.00    +0.000 A 
ATOM     27  C   UNL     1      -2.832  13.979  21.705  0.00  0.00    +0.000 A 
ATOM     28  C   UNL     1      -4.198  14.124  21.945  0.00  0.00    +0.000 A 
ATOM     29  C   UNL     1      -4.640  14.659  23.145  0.00  0.00    +0.000 A 
ATOM     30  C   UNL     1      -3.721  15.014  24.133  0.00  0.00    +0.000 A 
ATOM     31  C   UNL     1      -2.355  14.874  23.899  0.00  0.00    +0.000 A 
ATOM     32 CL   UNL     1      -1.279  15.241  25.203  0.00  0.00    +0.000 Cl
ENDBRANCH  25  26
ENDBRANCH  15  25
BRANCH  19  33
ATOM     33  C   UNL     1       2.253   6.720  18.431  0.00  0.00    +0.000 C 
BRANCH  33  34
ATOM     34  C   UNL     1       2.535   5.809  19.613  0.00  0.00    +0.000 C 
ATOM     35  O   UNL     1       1.664   5.139  20.153  0.00  0.00    +0.000 OA
BRANCH  34  36
ATOM     36  O   UNL     1       3.827   5.726  19.986  0.00  0.00    +0.000 OA
ATOM     37  H   UNL     1       3.959   5.631  20.951  0.00  0.00    +0.000 HD
ENDBRANCH  34  36
ENDBRANCH  33  34
ENDBRANCH  19  33
TORSDOF 6
ENDMDL
MODEL 6
REMARK VINA RESULT:      -7.8      2.366      4.581
REMARK  Name = 
REMARK  7 active torsions:
REMARK  status: ('A' for Active; 'I' for Inactive)
REMARK    1  A    between atoms: C_1  and  N_2
REMARK    2  A    between atoms: C_13  and  N_14
REMARK    3  A    between atoms: N_16  and  C_17
REMARK    4  A    between atoms: C_17  and  C_18
REMARK    5  A    between atoms: C_28  and  C_29
REMARK    6  A    between atoms: C_29  and  C_30
REMARK    7  A    between atoms: C_30  and  O_32
REMARK                            x       y       z     vdW  Elec       q    Type
REMARK                         _______ _______ _______ _____ _____    ______ ____
ROOT
ATOM      1  C   UNL     1      -0.394   8.437  21.878  0.00  0.00    +0.000 C 
ATOM      2  N   UNL     1       0.599   8.400  20.821  0.00  0.00    +0.000 N 
ATOM      3  C   UNL     1       1.655   7.491  20.956  0.00  0.00    +0.000 A 
ATOM      4  O   UNL     1       1.879   6.880  22.000  0.00  0.00    +0.000 OA
ATOM      5  C   UNL     1       2.429   7.313  19.767  0.00  0.00    +0.000 A 
ATOM      6  C   UNL     1       2.413   8.123  18.668  0.00  0.00    +0.000 A 
ATOM      7  N   UNL     1       3.288   7.652  17.710  0.00  0.00    +0.000 NA
ATOM      8  C   UNL     1       3.870   6.573  18.239  0.00  0.00    +0.000 A 
ATOM      9  N   UNL     1       4.909   5.841  17.741  0.00  0.00    +0.000 N 
ATOM     10  C   UNL     1       5.844   5.103  18.590  0.00  0.00    +0.000 C 
ATOM     11  C   UNL     1       7.276   5.313  18.132  0.00  0.00    +0.000 C 
ATOM     12  C   UNL     1       7.431   4.903  16.676  0.00  0.00    +0.000 C 
ATOM     13  C   UNL     1       6.423   5.643  15.780  0.00  0.00    +0.000 C 
ATOM     14  C   UNL     1       4.968   5.510  16.311  0.00  0.00    +0.000 C 
ATOM     15  N   UNL     1       3.240   6.257  19.432  0.00  0.00    +0.000 N 
ATOM     16  C   UNL     1       1.504   9.261  18.675  0.00  0.00    +0.000 A 
ATOM     17  C   UNL     1       1.530  10.271  17.708  0.00  0.00    +0.000 A 
ATOM     18  C   UNL     1       0.646  11.365  17.794  0.00  0.00    +0.000 A 
ATOM     19  C   UNL     1      -0.306  11.444  18.820  0.00  0.00    +0.000 A 
ATOM     20  C   UNL     1      -0.351  10.416  19.771  0.00  0.00    +0.000 A 
ATOM     21  C   UNL     1       0.563   9.348  19.741  0.00  0.00    +0.000 A 
ENDROOT
BRANCH  13  22
ATOM     22  N   UNL     1       6.577   5.145  14.405  0.00  0.00    +0.000 NA
ATOM     23  H   UNL     1       5.706   4.713  14.094  0.00  0.00    +0.000 HD
ATOM     24  H   UNL     1       7.268   4.394  14.405  0.00  0.00    +0.000 HD
ENDBRANCH  13  22
BRANCH  15  25
ATOM     25  C   UNL     1       3.294   4.995  20.163  0.00  0.00    +0.000 C 
BRANCH  25  26
ATOM     26  C   UNL     1       2.435   3.890  19.609  0.00  0.00    +0.000 A 
ATOM     27  C   UNL     1       1.155   4.161  19.083  0.00  0.00    +0.000 A 
ATOM     28  C   UNL     1       0.347   3.126  18.616  0.00  0.00    +0.000 A 
ATOM     29  C   UNL     1       0.813   1.820  18.629  0.00  0.00    +0.000 A 
ATOM     30  C   UNL     1       2.107   1.544  19.070  0.00  0.00    +0.000 A 
ATOM     31  C   UNL     1       2.919   2.573  19.540  0.00  0.00    +0.000 A 
ATOM     32 CL   UNL     1       4.545   2.173  19.978  0.00  0.00    +0.000 Cl
ENDBRANCH  25  26
ENDBRANCH  15  25
BRANCH  19  33
ATOM     33  C   UNL     1      -1.212  12.649  18.991  0.00  0.00    +0.000 C 
BRANCH  33  34
ATOM     34  C   UNL     1      -2.677  12.349  19.255  0.00  0.00    +0.000 C 
ATOM     35  O   UNL     1      -3.204  12.543  20.343  0.00  0.00    +0.000 OA
BRANCH  34  36
ATOM     36  O   UNL     1      -3.384  11.923  18.190  0.00  0.00    +0.000 OA
ATOM     37  H   UNL     1      -4.117  12.517  17.933  0.00  0.00    +0.000 HD
ENDBRANCH  34  36
ENDBRANCH  33  34
ENDBRANCH  19  33
TORSDOF 6
ENDMDL
MODEL 7
REMARK VINA RESULT:      -7.7      2.543      4.666
REMARK  Name = 
REMARK  7 active torsions:
REMARK  status: ('A' for Active; 'I' for Inactive)
REMARK    1  A    between atoms: C_1  and  N_2
REMARK    2  A    between atoms: C_13  and  N_14
REMARK    3  A    between atoms: N_16  and  C_17
REMARK    4  A    between atoms: C_17  and  C_18
REMARK    5  A    between atoms: C_28  and  C_29
REMARK    6  A    between atoms: C_29  and  C_30
REMARK    7  A    between atoms: C_30  and  O_32
REMARK                            x       y       z     vdW  Elec       q    Type
REMARK                         _______ _______ _______ _____ _____    ______ ____
ROOT
ATOM      1  C   UNL     1      -0.445   8.538  21.896  0.00  0.00    +0.000 C 
ATOM      2  N   UNL     1       0.553   8.485  20.844  0.00  0.00    +0.000 N 
ATOM      3  C   UNL     1       1.599   7.568  20.992  0.00  0.00    +0.000 A 
ATOM      4  O   UNL     1       1.813   6.963  22.041  0.00  0.00    +0.000 OA
ATOM      5  C   UNL     1       2.378   7.375  19.808  0.00  0.00    +0.000 A 
ATOM      6  C   UNL     1       2.375   8.178  18.704  0.00  0.00    +0.000 A 
ATOM      7  N   UNL     1       3.251   7.693  17.753  0.00  0.00    +0.000 NA
ATOM      8  C   UNL     1       3.821   6.613  18.292  0.00  0.00    +0.000 A 
ATOM      9  N   UNL     1       4.856   5.868  17.805  0.00  0.00    +0.000 N 
ATOM     10  C   UNL     1       5.781   5.129  18.664  0.00  0.00    +0.000 C 
ATOM     11  C   UNL     1       7.217   5.324  18.212  0.00  0.00    +0.000 C 
ATOM     12  C   UNL     1       7.377   4.902  16.760  0.00  0.00    +0.000 C 
ATOM     13  C   UNL     1       6.380   5.644  15.854  0.00  0.00    +0.000 C 
ATOM     14  C   UNL     1       4.920   5.527  16.378  0.00  0.00    +0.000 C 
ATOM     15  N   UNL     1       3.183   6.311  19.485  0.00  0.00    +0.000 N 
ATOM     16  C   UNL     1       1.476   9.324  18.698  0.00  0.00    +0.000 A 
ATOM     17  C   UNL     1       1.516  10.326  17.724  0.00  0.00    +0.000 A 
ATOM     18  C   UNL     1       0.640  11.428  17.797  0.00  0.00    +0.000 A 
ATOM     19  C   UNL     1      -0.316  11.522  18.817  0.00  0.00    +0.000 A 
ATOM     20  C   UNL     1      -0.375  10.502  19.775  0.00  0.00    +0.000 A 
ATOM     21  C   UNL     1       0.530   9.426  19.758  0.00  0.00    +0.000 A 
ENDROOT
BRANCH  13  22
ATOM     22  N   UNL     1       6.536   5.135  14.483  0.00  0.00    +0.000 NA
ATOM     23  H   UNL     1       6.019   5.728  13.833  0.00  0.00    +0.000 HD
ATOM     24  H   UNL     1       6.096   4.216  14.423  0.00  0.00    +0.000 HD
ENDBRANCH  13  22
BRANCH  15  25
ATOM     25  C   UNL     1       3.222   5.053  20.224  0.00  0.00    +0.000 C 
BRANCH  25  26
ATOM     26  C   UNL     1       2.404   3.933  19.640  0.00  0.00    +0.000 A 
ATOM     27  C   UNL     1       1.145   4.183  19.056  0.00  0.00    +0.000 A 
ATOM     28  C   UNL     1       0.373   3.134  18.560  0.00  0.00    +0.000 A 
ATOM     29  C   UNL     1       0.856   1.835  18.602  0.00  0.00    +0.000 A 
ATOM     30  C   UNL     1       2.133   1.580  19.101  0.00  0.00    +0.000 A 
ATOM     31  C   UNL     1       2.909   2.623  19.600  0.00  0.00    +0.000 A 
ATOM     32 CL   UNL     1       4.519   2.248  20.111  0.00  0.00    +0.000 Cl
ENDBRANCH  25  26
ENDBRANCH  15  25
BRANCH  19  33
ATOM     33  C   UNL     1      -1.213  12.736  18.975  0.00  0.00    +0.000 C 
BRANCH  33  34
ATOM     34  C   UNL     1      -0.525  14.021  19.405  0.00  0.00    +0.000 C 
ATOM     35  O   UNL     1       0.122  14.108  20.440  0.00  0.00    +0.000 OA
BRANCH  34  36
ATOM     36  O   UNL     1      -0.610  15.044  18.532  0.00  0.00    +0.000 OA
ATOM     37  H   UNL     1       0.147  15.109  17.917  0.00  0.00    +0.000 HD
ENDBRANCH  34  36
ENDBRANCH  33  34
ENDBRANCH  19  33
TORSDOF 6
ENDMDL
MODEL 8
REMARK VINA RESULT:      -7.6      8.546     10.358
REMARK  Name = 
REMARK  7 active torsions:
REMARK  status: ('A' for Active; 'I' for Inactive)
REMARK    1  A    between atoms: C_1  and  N_2
REMARK    2  A    between atoms: C_13  and  N_14
REMARK    3  A    between atoms: N_16  and  C_17
REMARK    4  A    between atoms: C_17  and  C_18
REMARK    5  A    between atoms: C_28  and  C_29
REMARK    6  A    between atoms: C_29  and  C_30
REMARK    7  A    between atoms: C_30  and  O_32
REMARK                            x       y       z     vdW  Elec       q    Type
REMARK                         _______ _______ _______ _____ _____    ______ ____
ROOT
ATOM      1  C   UNL     1       3.786  16.645  22.596  0.00  0.00    +0.000 C 
ATOM      2  N   UNL     1       4.632  16.425  21.438  0.00  0.00    +0.000 N 
ATOM      3  C   UNL     1       6.016  16.518  21.621  0.00  0.00    +0.000 A 
ATOM      4  O   UNL     1       6.525  16.963  22.650  0.00  0.00    +0.000 OA
ATOM      5  C   UNL     1       6.786  16.023  20.522  0.00  0.00    +0.000 A 
ATOM      6  C   UNL     1       6.317  15.760  19.267  0.00  0.00    +0.000 A 
ATOM      7  N   UNL     1       7.338  15.299  18.459  0.00  0.00    +0.000 NA
ATOM      8  C   UNL     1       8.441  15.316  19.210  0.00  0.00    +0.000 A 
ATOM      9  N   UNL     1       9.731  15.087  18.827  0.00  0.00    +0.000 N 
ATOM     10  C   UNL     1      10.882  15.686  19.504  0.00  0.00    +0.000 C 
ATOM     11  C   UNL     1      11.888  16.216  18.499  0.00  0.00    +0.000 C 
ATOM     12  C   UNL     1      12.332  15.107  17.558  0.00  0.00    +0.000 C 
ATOM     13  C   UNL     1      11.125  14.445  16.873  0.00  0.00    +0.000 C 
ATOM     14  C   UNL     1      10.049  13.993  17.901  0.00  0.00    +0.000 C 
ATOM     15  N   UNL     1       8.093  15.604  20.521  0.00  0.00    +0.000 N 
ATOM     16  C   UNL     1       4.897  15.963  19.013  0.00  0.00    +0.000 A 
ATOM     17  C   UNL     1       4.332  15.921  17.735  0.00  0.00    +0.000 A 
ATOM     18  C   UNL     1       2.955  16.163  17.556  0.00  0.00    +0.000 A 
ATOM     19  C   UNL     1       2.117  16.407  18.652  0.00  0.00    +0.000 A 
ATOM     20  C   UNL     1       2.680  16.419  19.935  0.00  0.00    +0.000 A 
ATOM     21  C   UNL     1       4.061  16.243  20.132  0.00  0.00    +0.000 A 
ENDROOT
BRANCH  13  22
ATOM     22  N   UNL     1      11.619  13.337  16.041  0.00  0.00    +0.000 NA
ATOM     23  H   UNL     1      11.123  13.326  15.149  0.00  0.00    +0.000 HD
ATOM     24  H   UNL     1      11.380  12.455  16.495  0.00  0.00    +0.000 HD
ENDBRANCH  13  22
BRANCH  15  25
ATOM     25  C   UNL     1       8.890  15.387  21.724  0.00  0.00    +0.000 C 
BRANCH  25  26
ATOM     26  C   UNL     1       8.656  14.077  22.428  0.00  0.00    +0.000 A 
ATOM     27  C   UNL     1       8.616  12.865  21.709  0.00  0.00    +0.000 A 
ATOM     28  C   UNL     1       8.352  11.662  22.362  0.00  0.00    +0.000 A 
ATOM     29  C   UNL     1       8.164  11.643  23.736  0.00  0.00    +0.000 A 
ATOM     30  C   UNL     1       8.281  12.821  24.473  0.00  0.00    +0.000 A 
ATOM     31  C   UNL     1       8.543  14.027  23.827  0.00  0.00    +0.000 A 
ATOM     32 CL   UNL     1       8.772  15.429  24.814  0.00  0.00    +0.000 Cl
ENDBRANCH  25  26
ENDBRANCH  15  25
BRANCH  19  33
ATOM     33  C   UNL     1       0.650  16.758  18.486  0.00  0.00    +0.000 C 
BRANCH  33  34
ATOM     34  C   UNL     1      -0.341  15.662  18.838  0.00  0.00    +0.000 C 
ATOM     35  O   UNL     1      -0.134  14.481  18.594  0.00  0.00    +0.000 OA
BRANCH  34  36
ATOM     36  O   UNL     1      -1.438  16.066  19.509  0.00  0.00    +0.000 OA
ATOM     37  H   UNL     1      -2.204  16.270  18.936  0.00  0.00    +0.000 HD
ENDBRANCH  34  36
ENDBRANCH  33  34
ENDBRANCH  19  33
TORSDOF 6
ENDMDL
MODEL 9
REMARK VINA RESULT:      -7.6      8.052     10.133
REMARK  Name = 
REMARK  7 active torsions:
REMARK  status: ('A' for Active; 'I' for Inactive)
REMARK    1  A    between atoms: C_1  and  N_2
REMARK    2  A    between atoms: C_13  and  N_14
REMARK    3  A    between atoms: N_16  and  C_17
REMARK    4  A    between atoms: C_17  and  C_18
REMARK    5  A    between atoms: C_28  and  C_29
REMARK    6  A    between atoms: C_29  and  C_30
REMARK    7  A    between atoms: C_30  and  O_32
REMARK                            x       y       z     vdW  Elec       q    Type
REMARK                         _______ _______ _______ _____ _____    ______ ____
ROOT
ATOM      1  C   UNL     1       3.294  16.046  22.737  0.00  0.00    +0.000 C 
ATOM      2  N   UNL     1       4.161  15.758  21.610  0.00  0.00    +0.000 N 
ATOM      3  C   UNL     1       5.493  16.177  21.695  0.00  0.00    +0.000 A 
ATOM      4  O   UNL     1       5.899  16.935  22.575  0.00  0.00    +0.000 OA
ATOM      5  C   UNL     1       6.345  15.624  20.689  0.00  0.00    +0.000 A 
ATOM      6  C   UNL     1       5.938  14.997  19.546  0.00  0.00    +0.000 A 
ATOM      7  N   UNL     1       7.030  14.593  18.803  0.00  0.00    +0.000 NA
ATOM      8  C   UNL     1       8.107  15.008  19.474  0.00  0.00    +0.000 A 
ATOM      9  N   UNL     1       9.415  14.976  19.081  0.00  0.00    +0.000 N 
ATOM     10  C   UNL     1      10.412  15.938  19.551  0.00  0.00    +0.000 C 
ATOM     11  C   UNL     1      11.274  16.432  18.403  0.00  0.00    +0.000 C 
ATOM     12  C   UNL     1      11.943  15.261  17.701  0.00  0.00    +0.000 C 
ATOM     13  C   UNL     1      10.904  14.225  17.239  0.00  0.00    +0.000 C 
ATOM     14  C   UNL     1       9.957  13.796  18.396  0.00  0.00    +0.000 C 
ATOM     15  N   UNL     1       7.712  15.499  20.708  0.00  0.00    +0.000 N 
ATOM     16  C   UNL     1       4.507  14.837  19.330  0.00  0.00    +0.000 A 
ATOM     17  C   UNL     1       3.957  14.395  18.123  0.00  0.00    +0.000 A 
ATOM     18  C   UNL     1       2.560  14.297  17.969  0.00  0.00    +0.000 A 
ATOM     19  C   UNL     1       1.694  14.595  19.030  0.00  0.00    +0.000 A 
ATOM     20  C   UNL     1       2.249  15.009  20.249  0.00  0.00    +0.000 A 
ATOM     21  C   UNL     1       3.636  15.175  20.405  0.00  0.00    +0.000 A 
ENDROOT
BRANCH  13  22
ATOM     22  N   UNL     1      11.622  13.089  16.639  0.00  0.00    +0.000 NA
ATOM     23  H   UNL     1      11.791  13.271  15.650  0.00  0.00    +0.000 HD
ATOM     24  H   UNL     1      11.015  12.269  16.665  0.00  0.00    +0.000 HD
ENDBRANCH  13  22
BRANCH  15  25
ATOM     25  C   UNL     1       8.544  15.727  21.886  0.00  0.00    +0.000 C 
BRANCH  25  26
ATOM     26  C   UNL     1       8.514  14.633  22.920  0.00  0.00    +0.000 A 
ATOM     27  C   UNL     1       8.561  13.276  22.541  0.00  0.00    +0.000 A 
ATOM     28  C   UNL     1       8.485  12.268  23.502  0.00  0.00    +0.000 A 
ATOM     29  C   UNL     1       8.403  12.596  24.847  0.00  0.00    +0.000 A 
ATOM     30  C   UNL     1       8.438  13.932  25.245  0.00  0.00    +0.000 A 
ATOM     31  C   UNL     1       8.511  14.943  24.289  0.00  0.00    +0.000 A 
ATOM     32 CL   UNL     1       8.651  16.571  24.859  0.00  0.00    +0.000 Cl
ENDBRANCH  25  26
ENDBRANCH  15  25
BRANCH  19  33
ATOM     33  C   UNL     1       0.185  14.584  18.871  0.00  0.00    +0.000 C 
BRANCH  33  34
ATOM     34  C   UNL     1      -0.453  13.222  18.662  0.00  0.00    +0.000 C 
ATOM     35  O   UNL     1      -0.518  12.381  19.549  0.00  0.00    +0.000 OA
BRANCH  34  36
ATOM     36  O   UNL     1      -1.013  13.022  17.452  0.00  0.00    +0.000 OA
ATOM     37  H   UNL     1      -1.615  13.739  17.168  0.00  0.00    +0.000 HD
ENDBRANCH  34  36
ENDBRANCH  33  34
ENDBRANCH  19  33
TORSDOF 6
ENDMDL
