MODEL 1
REMARK VINA RESULT:      -9.7      0.000      0.000
REMARK  Name = 
REMARK  7 active torsions:
REMARK  status: ('A' for Active; 'I' for Inactive)
REMARK    1  A    between atoms: C_1  and  C_2
REMARK    2  A    between atoms: C_4  and  C_5
REMARK    3  A    between atoms: C_5  and  O_6
REMARK    4  A    between atoms: O_6  and  C_7
REMARK    5  A    between atoms: C_10  and  C_11
REMARK    6  A    between atoms: N_13  and  C_14
REMARK    7  A    between atoms: C_18  and  C_19
REMARK                            x       y       z     vdW  Elec       q    Type
REMARK                         _______ _______ _______ _____ _____    ______ ____
ROOT
ATOM      1  C   UNL     1       1.079   9.504  19.829  0.00  0.00    +0.000 A 
ATOM      2  C   UNL     1       1.424   9.497  18.482  0.00  0.00    +0.000 A 
ATOM      3  C   UNL     1       2.034   8.377  17.920  0.00  0.00    +0.000 A 
ATOM      4  C   UNL     1       2.331   7.256  18.706  0.00  0.00    +0.000 A 
ATOM      5  C   UNL     1       1.995   7.272  20.068  0.00  0.00    +0.000 A 
ATOM      6  C   UNL     1       1.386   8.401  20.627  0.00  0.00    +0.000 A 
ENDROOT
BRANCH   4   7
ATOM      7  C   UNL     1       2.974   6.094  18.015  0.00  0.00    +0.000 C 
ATOM      8  O   UNL     1       2.446   4.990  18.043  0.00  0.00    +0.000 OA
ATOM      9  N   UNL     1       4.176   6.326  17.391  0.00  0.00    +0.000 N 
ATOM     10  H   UNL     1       4.442   7.288  17.231  0.00  0.00    +0.000 HD
BRANCH   9  11
ATOM     11  C   UNL     1       4.876   5.359  16.561  0.00  0.00    +0.000 C 
ATOM     12  C   UNL     1       5.288   3.996  17.131  0.00  0.00    +0.000 C 
ATOM     13  N   UNL     1       6.262   3.481  16.153  0.00  0.00    +0.000 NA
ATOM     14  C   UNL     1       6.945   4.653  15.577  0.00  0.00    +0.000 C 
ATOM     15  C   UNL     1       6.210   5.902  16.054  0.00  0.00    +0.000 C 
ATOM     16  H   UNL     1       5.754   2.993  15.412  0.00  0.00    +0.000 HD
BRANCH  15  17
ATOM     17  C   UNL     1       7.046   6.627  17.087  0.00  0.00    +0.000 A 
ATOM     18  N   UNL     1       7.538   6.045  18.147  0.00  0.00    +0.000 NA
ATOM     19  N   UNL     1       8.199   7.051  18.807  0.00  0.00    +0.000 N 
ATOM     20  C   UNL     1       8.088   8.230  18.098  0.00  0.00    +0.000 A 
ATOM     21  S   UNL     1       8.758   9.687  18.467  0.00  0.00    +0.000 S 
ATOM     22  N   UNL     1       7.325   7.944  17.012  0.00  0.00    +0.000 N 
ATOM     23  H   UNL     1       8.689   6.902  19.681  0.00  0.00    +0.000 HD
ATOM     24  H   UNL     1       7.130   8.589  16.263  0.00  0.00    +0.000 HD
ENDBRANCH  15  17
ENDBRANCH   9  11
ENDBRANCH   4   7
BRANCH   1  25
ATOM     25  O   UNL     1       0.439  10.531  20.465  0.00  0.00    +0.000 OA
BRANCH  25  26
ATOM     26  C   UNL     1       0.107  11.639  19.618  0.00  0.00    +0.000 C 
BRANCH  26  30
ATOM     27  C   UNL     1      -4.082  13.528  21.672  0.00  0.00    +0.000 C 
ATOM     28  C   UNL     1      -3.380  12.797  20.566  0.00  0.00    +0.000 A 
ATOM     29  C   UNL     1      -2.009  12.605  20.608  0.00  0.00    +0.000 A 
ATOM     30  C   UNL     1      -1.384  11.898  19.575  0.00  0.00    +0.000 A 
ATOM     31  C   UNL     1      -2.174  11.407  18.505  0.00  0.00    +0.000 A 
ATOM     32  C   UNL     1      -1.654  10.680  17.405  0.00  0.00    +0.000 A 
ATOM     33  C   UNL     1      -2.482  10.218  16.384  0.00  0.00    +0.000 A 
ATOM     34  C   UNL     1      -3.843  10.473  16.444  0.00  0.00    +0.000 A 
ATOM     35  C   UNL     1      -4.365  11.188  17.524  0.00  0.00    +0.000 A 
ATOM     36  C   UNL     1      -3.563  11.660  18.554  0.00  0.00    +0.000 A 
ATOM     37  N   UNL     1      -4.149  12.334  19.557  0.00  0.00    +0.000 NA
ENDBRANCH  26  30
ENDBRANCH  25  26
ENDBRANCH   1  25
TORSDOF 6
ENDMDL
MODEL 2
REMARK VINA RESULT:      -9.6      3.869     10.836
REMARK  Name = 
REMARK  7 active torsions:
REMARK  status: ('A' for Active; 'I' for Inactive)
REMARK    1  A    between atoms: C_1  and  C_2
REMARK    2  A    between atoms: C_4  and  C_5
REMARK    3  A    between atoms: C_5  and  O_6
REMARK    4  A    between atoms: O_6  and  C_7
REMARK    5  A    between atoms: C_10  and  C_11
REMARK    6  A    between atoms: N_13  and  C_14
REMARK    7  A    between atoms: C_18  and  C_19
REMARK                            x       y       z     vdW  Elec       q    Type
REMARK                         _______ _______ _______ _____ _____    ______ ____
ROOT
ATOM      1  C   UNL     1       1.117   9.273  20.137  0.00  0.00    +0.000 A 
ATOM      2  C   UNL     1       0.439  10.378  19.634  0.00  0.00    +0.000 A 
ATOM      3  C   UNL     1      -0.236  11.239  20.499  0.00  0.00    +0.000 A 
ATOM      4  C   UNL     1      -0.263  10.991  21.877  0.00  0.00    +0.000 A 
ATOM      5  C   UNL     1       0.410   9.866  22.379  0.00  0.00    +0.000 A 
ATOM      6  C   UNL     1       1.083   9.005  21.505  0.00  0.00    +0.000 A 
ENDROOT
BRANCH   4   7
ATOM      7  C   UNL     1      -1.001  11.975  22.730  0.00  0.00    +0.000 C 
ATOM      8  O   UNL     1      -0.411  12.927  23.226  0.00  0.00    +0.000 OA
ATOM      9  N   UNL     1      -2.338  11.738  22.944  0.00  0.00    +0.000 N 
ATOM     10  H   UNL     1      -2.795  11.066  22.344  0.00  0.00    +0.000 HD
BRANCH   9  11
ATOM     11  C   UNL     1      -3.239  12.650  23.628  0.00  0.00    +0.000 C 
ATOM     12  C   UNL     1      -4.402  12.111  24.471  0.00  0.00    +0.000 C 
ATOM     13  N   UNL     1      -5.269  13.284  24.675  0.00  0.00    +0.000 NA
ATOM     14  C   UNL     1      -5.114  14.138  23.482  0.00  0.00    +0.000 C 
ATOM     15  C   UNL     1      -3.963  13.575  22.653  0.00  0.00    +0.000 C 
ATOM     16  H   UNL     1      -4.939  13.796  25.496  0.00  0.00    +0.000 HD
BRANCH  15  17
ATOM     17  C   UNL     1      -4.506  12.904  21.409  0.00  0.00    +0.000 A 
ATOM     18  N   UNL     1      -3.864  12.877  20.272  0.00  0.00    +0.000 NA
ATOM     19  N   UNL     1      -4.707  12.199  19.427  0.00  0.00    +0.000 N 
ATOM     20  C   UNL     1      -5.850  11.823  20.104  0.00  0.00    +0.000 A 
ATOM     21  S   UNL     1      -7.116  10.948  19.523  0.00  0.00    +0.000 S 
ATOM     22  N   UNL     1      -5.713  12.306  21.366  0.00  0.00    +0.000 N 
ATOM     23  H   UNL     1      -4.480  12.018  18.457  0.00  0.00    +0.000 HD
ATOM     24  H   UNL     1      -6.356  12.126  22.121  0.00  0.00    +0.000 HD
ENDBRANCH  15  17
ENDBRANCH   9  11
ENDBRANCH   4   7
BRANCH   1  25
ATOM     25  O   UNL     1       1.844   8.396  19.383  0.00  0.00    +0.000 OA
BRANCH  25  26
ATOM     26  C   UNL     1       2.076   7.126  20.008  0.00  0.00    +0.000 C 
BRANCH  26  30
ATOM     27  C   UNL     1       5.141   5.957  16.191  0.00  0.00    +0.000 C 
ATOM     28  C   UNL     1       4.122   5.565  17.219  0.00  0.00    +0.000 A 
ATOM     29  C   UNL     1       3.629   6.501  18.114  0.00  0.00    +0.000 A 
ATOM     30  C   UNL     1       2.660   6.114  19.046  0.00  0.00    +0.000 A 
ATOM     31  C   UNL     1       2.218   4.767  19.055  0.00  0.00    +0.000 A 
ATOM     32  C   UNL     1       1.244   4.259  19.951  0.00  0.00    +0.000 A 
ATOM     33  C   UNL     1       0.845   2.924  19.909  0.00  0.00    +0.000 A 
ATOM     34  C   UNL     1       1.411   2.075  18.972  0.00  0.00    +0.000 A 
ATOM     35  C   UNL     1       2.370   2.566  18.084  0.00  0.00    +0.000 A 
ATOM     36  C   UNL     1       2.786   3.890  18.104  0.00  0.00    +0.000 A 
ATOM     37  N   UNL     1       3.709   4.280  17.211  0.00  0.00    +0.000 NA
ENDBRANCH  26  30
ENDBRANCH  25  26
ENDBRANCH   1  25
TORSDOF 6
ENDMDL
MODEL 3
REMARK VINA RESULT:      -9.3      3.081      9.822
REMARK  Name = 
REMARK  7 active torsions:
REMARK  status: ('A' for Active; 'I' for Inactive)
REMARK    1  A    between atoms: C_1  and  C_2
REMARK    2  A    between atoms: C_4  and  C_5
REMARK    3  A    between atoms: C_5  and  O_6
REMARK    4  A    between atoms: O_6  and  C_7
REMARK    5  A    between atoms: C_10  and  C_11
REMARK    6  A    between atoms: N_13  and  C_14
REMARK    7  A    between atoms: C_18  and  C_19
REMARK                            x       y       z     vdW  Elec       q    Type
REMARK                         _______ _______ _______ _____ _____    ______ ____
ROOT
ATOM      1  C   UNL     1       2.705   5.524  18.486  0.00  0.00    +0.000 A 
ATOM      2  C   UNL     1       2.675   6.837  18.030  0.00  0.00    +0.000 A 
ATOM      3  C   UNL     1       2.214   7.857  18.861  0.00  0.00    +0.000 A 
ATOM      4  C   UNL     1       1.753   7.573  20.153  0.00  0.00    +0.000 A 
ATOM      5  C   UNL     1       1.771   6.244  20.604  0.00  0.00    +0.000 A 
ATOM      6  C   UNL     1       2.232   5.224  19.763  0.00  0.00    +0.000 A 
ENDROOT
BRANCH   4   7
ATOM      7  C   UNL     1       1.289   8.732  20.978  0.00  0.00    +0.000 C 
ATOM      8  O   UNL     1       1.458   8.733  22.191  0.00  0.00    +0.000 OA
ATOM      9  N   UNL     1       0.650   9.754  20.317  0.00  0.00    +0.000 N 
ATOM     10  H   UNL     1       0.732   9.782  19.311  0.00  0.00    +0.000 HD
BRANCH   9  11
ATOM     11  C   UNL     1       0.254  11.012  20.928  0.00  0.00    +0.000 C 
ATOM     12  C   UNL     1      -0.918  11.064  21.917  0.00  0.00    +0.000 C 
ATOM     13  N   UNL     1      -1.239  12.498  22.013  0.00  0.00    +0.000 NA
ATOM     14  C   UNL     1      -0.912  13.096  20.706  0.00  0.00    +0.000 C 
ATOM     15  C   UNL     1      -0.170  12.044  19.885  0.00  0.00    +0.000 C 
ATOM     16  H   UNL     1      -0.644  12.918  22.730  0.00  0.00    +0.000 HD
BRANCH  15  17
ATOM     17  C   UNL     1      -1.072  11.519  18.788  0.00  0.00    +0.000 A 
ATOM     18  N   UNL     1      -0.717  10.571  17.962  0.00  0.00    +0.000 NA
ATOM     19  N   UNL     1      -1.804  10.422  17.136  0.00  0.00    +0.000 N 
ATOM     20  C   UNL     1      -2.802  11.299  17.510  0.00  0.00    +0.000 A 
ATOM     21  S   UNL     1      -4.302  11.448  16.850  0.00  0.00    +0.000 S 
ATOM     22  N   UNL     1      -2.304  12.011  18.554  0.00  0.00    +0.000 N 
ATOM     23  H   UNL     1      -1.827   9.749  16.380  0.00  0.00    +0.000 HD
ATOM     24  H   UNL     1      -2.830  12.680  19.093  0.00  0.00    +0.000 HD
ENDBRANCH  15  17
ENDBRANCH   9  11
ENDBRANCH   4   7
BRANCH   1  25
ATOM     25  O   UNL     1       3.178   4.460  17.770  0.00  0.00    +0.000 OA
BRANCH  25  26
ATOM     26  C   UNL     1       4.464   3.986  18.191  0.00  0.00    +0.000 C 
BRANCH  26  30
ATOM     27  C   UNL     1       8.152   7.401  18.446  0.00  0.00    +0.000 C 
ATOM     28  C   UNL     1       7.352   6.393  17.676  0.00  0.00    +0.000 A 
ATOM     29  C   UNL     1       6.345   5.672  18.296  0.00  0.00    +0.000 A 
ATOM     30  C   UNL     1       5.596   4.756  17.547  0.00  0.00    +0.000 A 
ATOM     31  C   UNL     1       5.901   4.585  16.173  0.00  0.00    +0.000 A 
ATOM     32  C   UNL     1       5.214   3.688  15.316  0.00  0.00    +0.000 A 
ATOM     33  C   UNL     1       5.556   3.566  13.970  0.00  0.00    +0.000 A 
ATOM     34  C   UNL     1       6.587   4.337  13.457  0.00  0.00    +0.000 A 
ATOM     35  C   UNL     1       7.268   5.224  14.293  0.00  0.00    +0.000 A 
ATOM     36  C   UNL     1       6.949   5.364  15.637  0.00  0.00    +0.000 A 
ATOM     37  N   UNL     1       7.652   6.245  16.368  0.00  0.00    +0.000 NA
ENDBRANCH  26  30
ENDBRANCH  25  26
ENDBRANCH   1  25
TORSDOF 6
ENDMDL
MODEL 4
REMARK VINA RESULT:      -9.3      3.884     10.567
REMARK  Name = 
REMARK  7 active torsions:
REMARK  status: ('A' for Active; 'I' for Inactive)
REMARK    1  A    between atoms: C_1  and  C_2
REMARK    2  A    between atoms: C_4  and  C_5
REMARK    3  A    between atoms: C_5  and  O_6
REMARK    4  A    between atoms: O_6  and  C_7
REMARK    5  A    between atoms: C_10  and  C_11
REMARK    6  A    between atoms: N_13  and  C_14
REMARK    7  A    between atoms: C_18  and  C_19
REMARK                            x       y       z     vdW  Elec       q    Type
REMARK                         _______ _______ _______ _____ _____    ______ ____
ROOT
ATOM      1  C   UNL     1       1.540   8.548  19.284  0.00  0.00    +0.000 A 
ATOM      2  C   UNL     1       0.808   9.688  18.974  0.00  0.00    +0.000 A 
ATOM      3  C   UNL     1       0.138  10.386  19.978  0.00  0.00    +0.000 A 
ATOM      4  C   UNL     1       0.171   9.936  21.304  0.00  0.00    +0.000 A 
ATOM      5  C   UNL     1       0.898   8.776  21.611  0.00  0.00    +0.000 A 
ATOM      6  C   UNL     1       1.566   8.079  20.597  0.00  0.00    +0.000 A 
ENDROOT
BRANCH   4   7
ATOM      7  C   UNL     1      -0.567  10.755  22.317  0.00  0.00    +0.000 C 
ATOM      8  O   UNL     1      -0.351  10.600  23.512  0.00  0.00    +0.000 OA
ATOM      9  N   UNL     1      -1.499  11.645  21.841  0.00  0.00    +0.000 N 
ATOM     10  H   UNL     1      -1.474  11.867  20.856  0.00  0.00    +0.000 HD
BRANCH   9  11
ATOM     11  C   UNL     1      -2.210  12.614  22.660  0.00  0.00    +0.000 C 
ATOM     12  C   UNL     1      -3.269  12.153  23.669  0.00  0.00    +0.000 C 
ATOM     13  N   UNL     1      -3.998  13.387  24.009  0.00  0.00    +0.000 NA
ATOM     14  C   UNL     1      -3.959  14.246  22.812  0.00  0.00    +0.000 C 
ATOM     15  C   UNL     1      -2.997  13.610  21.812  0.00  0.00    +0.000 C 
ATOM     16  H   UNL     1      -3.507  13.857  24.773  0.00  0.00    +0.000 HD
BRANCH  15  17
ATOM     17  C   UNL     1      -3.776  13.005  20.663  0.00  0.00    +0.000 A 
ATOM     18  N   UNL     1      -3.212  12.554  19.575  0.00  0.00    +0.000 NA
ATOM     19  N   UNL     1      -4.264  12.121  18.807  0.00  0.00    +0.000 N 
ATOM     20  C   UNL     1      -5.452  12.321  19.481  0.00  0.00    +0.000 A 
ATOM     21  S   UNL     1      -6.966  11.912  18.983  0.00  0.00    +0.000 S 
ATOM     22  N   UNL     1      -5.120  12.912  20.657  0.00  0.00    +0.000 N 
ATOM     23  H   UNL     1      -4.139  11.714  17.888  0.00  0.00    +0.000 HD
ATOM     24  H   UNL     1      -5.770  13.114  21.400  0.00  0.00    +0.000 HD
ENDBRANCH  15  17
ENDBRANCH   9  11
ENDBRANCH   4   7
BRANCH   1  25
ATOM     25  O   UNL     1       2.267   7.819  18.385  0.00  0.00    +0.000 OA
BRANCH  25  26
ATOM     26  C   UNL     1       3.288   7.001  18.971  0.00  0.00    +0.000 C 
BRANCH  26  30
ATOM     27  C   UNL     1       5.550   4.286  15.387  0.00  0.00    +0.000 C 
ATOM     28  C   UNL     1       4.558   4.412  16.504  0.00  0.00    +0.000 A 
ATOM     29  C   UNL     1       4.429   5.602  17.201  0.00  0.00    +0.000 A 
ATOM     30  C   UNL     1       3.477   5.700  18.222  0.00  0.00    +0.000 A 
ATOM     31  C   UNL     1       2.677   4.568  18.522  0.00  0.00    +0.000 A 
ATOM     32  C   UNL     1       1.683   4.547  19.533  0.00  0.00    +0.000 A 
ATOM     33  C   UNL     1       0.924   3.404  19.780  0.00  0.00    +0.000 A 
ATOM     34  C   UNL     1       1.143   2.265  19.022  0.00  0.00    +0.000 A 
ATOM     35  C   UNL     1       2.119   2.277  18.023  0.00  0.00    +0.000 A 
ATOM     36  C   UNL     1       2.889   3.400  17.757  0.00  0.00    +0.000 A 
ATOM     37  N   UNL     1       3.802   3.326  16.774  0.00  0.00    +0.000 NA
ENDBRANCH  26  30
ENDBRANCH  25  26
ENDBRANCH   1  25
TORSDOF 6
ENDMDL
MODEL 5
REMARK VINA RESULT:      -9.3      3.750     10.574
REMARK  Name = 
REMARK  7 active torsions:
REMARK  status: ('A' for Active; 'I' for Inactive)
REMARK    1  A    between atoms: C_1  and  C_2
REMARK    2  A    between atoms: C_4  and  C_5
REMARK    3  A    between atoms: C_5  and  O_6
REMARK    4  A    between atoms: O_6  and  C_7
REMARK    5  A    between atoms: C_10  and  C_11
REMARK    6  A    between atoms: N_13  and  C_14
REMARK    7  A    between atoms: C_18  and  C_19
REMARK                            x       y       z     vdW  Elec       q    Type
REMARK                         _______ _______ _______ _____ _____    ______ ____
ROOT
ATOM      1  C   UNL     1       1.788   8.613  19.170  0.00  0.00    +0.000 A 
ATOM      2  C   UNL     1       1.072   9.769  18.880  0.00  0.00    +0.000 A 
ATOM      3  C   UNL     1       0.366  10.428  19.885  0.00  0.00    +0.000 A 
ATOM      4  C   UNL     1       0.345   9.924  21.191  0.00  0.00    +0.000 A 
ATOM      5  C   UNL     1       1.055   8.748  21.477  0.00  0.00    +0.000 A 
ATOM      6  C   UNL     1       1.760   8.090  20.463  0.00  0.00    +0.000 A 
ENDROOT
BRANCH   4   7
ATOM      7  C   UNL     1      -0.429  10.704  22.208  0.00  0.00    +0.000 C 
ATOM      8  O   UNL     1      -0.247  10.511  23.403  0.00  0.00    +0.000 OA
ATOM      9  N   UNL     1      -1.354  11.603  21.733  0.00  0.00    +0.000 N 
ATOM     10  H   UNL     1      -1.301  11.857  20.757  0.00  0.00    +0.000 HD
BRANCH   9  11
ATOM     11  C   UNL     1      -2.096  12.539  22.562  0.00  0.00    +0.000 C 
ATOM     12  C   UNL     1      -3.147  12.034  23.558  0.00  0.00    +0.000 C 
ATOM     13  N   UNL     1      -3.913  13.242  23.911  0.00  0.00    +0.000 NA
ATOM     14  C   UNL     1      -3.892  14.119  22.726  0.00  0.00    +0.000 C 
ATOM     15  C   UNL     1      -2.907  13.525  21.723  0.00  0.00    +0.000 C 
ATOM     16  H   UNL     1      -3.440  13.715  24.683  0.00  0.00    +0.000 HD
BRANCH  15  17
ATOM     17  C   UNL     1      -3.662  12.914  20.561  0.00  0.00    +0.000 A 
ATOM     18  N   UNL     1      -3.080  12.494  19.470  0.00  0.00    +0.000 NA
ATOM     19  N   UNL     1      -4.115  12.043  18.690  0.00  0.00    +0.000 N 
ATOM     20  C   UNL     1      -5.312  12.200  19.359  0.00  0.00    +0.000 A 
ATOM     21  S   UNL     1      -6.811  11.755  18.847  0.00  0.00    +0.000 S 
ATOM     22  N   UNL     1      -5.003  12.783  20.546  0.00  0.00    +0.000 N 
ATOM     23  H   UNL     1      -3.973  11.653  17.766  0.00  0.00    +0.000 HD
ATOM     24  H   UNL     1      -5.663  12.956  21.288  0.00  0.00    +0.000 HD
ENDBRANCH  15  17
ENDBRANCH   9  11
ENDBRANCH   4   7
BRANCH   1  25
ATOM     25  O   UNL     1       2.546   7.919  18.271  0.00  0.00    +0.000 OA
BRANCH  25  26
ATOM     26  C   UNL     1       2.114   6.571  18.045  0.00  0.00    +0.000 C 
BRANCH  26  30
ATOM     27  C   UNL     1       6.744   4.608  17.839  0.00  0.00    +0.000 C 
ATOM     28  C   UNL     1       5.352   4.622  18.395  0.00  0.00    +0.000 A 
ATOM     29  C   UNL     1       4.440   5.583  17.988  0.00  0.00    +0.000 A 
ATOM     30  C   UNL     1       3.140   5.557  18.504  0.00  0.00    +0.000 A 
ATOM     31  C   UNL     1       2.795   4.550  19.441  0.00  0.00    +0.000 A 
ATOM     32  C   UNL     1       1.512   4.424  20.032  0.00  0.00    +0.000 A 
ATOM     33  C   UNL     1       1.231   3.409  20.945  0.00  0.00    +0.000 A 
ATOM     34  C   UNL     1       2.224   2.504  21.283  0.00  0.00    +0.000 A 
ATOM     35  C   UNL     1       3.490   2.619  20.706  0.00  0.00    +0.000 A 
ATOM     36  C   UNL     1       3.797   3.620  19.794  0.00  0.00    +0.000 A 
ATOM     37  N   UNL     1       5.039   3.654  19.284  0.00  0.00    +0.000 NA
ENDBRANCH  26  30
ENDBRANCH  25  26
ENDBRANCH   1  25
TORSDOF 6
ENDMDL
MODEL 6
REMARK VINA RESULT:      -9.3      3.655     10.893
REMARK  Name = 
REMARK  7 active torsions:
REMARK  status: ('A' for Active; 'I' for Inactive)
REMARK    1  A    between atoms: C_1  and  C_2
REMARK    2  A    between atoms: C_4  and  C_5
REMARK    3  A    between atoms: C_5  and  O_6
REMARK    4  A    between atoms: O_6  and  C_7
REMARK    5  A    between atoms: C_10  and  C_11
REMARK    6  A    between atoms: N_13  and  C_14
REMARK    7  A    between atoms: C_18  and  C_19
REMARK                            x       y       z     vdW  Elec       q    Type
REMARK                         _______ _______ _______ _____ _____    ______ ____
ROOT
ATOM      1  C   UNL     1       0.910   9.406  20.355  0.00  0.00    +0.000 A 
ATOM      2  C   UNL     1       0.275   9.044  21.537  0.00  0.00    +0.000 A 
ATOM      3  C   UNL     1      -0.420   9.998  22.280  0.00  0.00    +0.000 A 
ATOM      4  C   UNL     1      -0.466  11.335  21.862  0.00  0.00    +0.000 A 
ATOM      5  C   UNL     1       0.189  11.698  20.676  0.00  0.00    +0.000 A 
ATOM      6  C   UNL     1       0.887  10.736  19.936  0.00  0.00    +0.000 A 
ENDROOT
BRANCH   4   7
ATOM      7  C   UNL     1      -1.245  12.286  22.715  0.00  0.00    +0.000 C 
ATOM      8  O   UNL     1      -0.665  13.079  23.444  0.00  0.00    +0.000 OA
ATOM      9  N   UNL     1      -2.616  12.198  22.656  0.00  0.00    +0.000 N 
ATOM     10  H   UNL     1      -3.019  11.676  21.891  0.00  0.00    +0.000 HD
BRANCH   9  11
ATOM     11  C   UNL     1      -3.531  13.122  23.306  0.00  0.00    +0.000 C 
ATOM     12  C   UNL     1      -4.580  12.610  24.301  0.00  0.00    +0.000 C 
ATOM     13  N   UNL     1      -5.518  13.738  24.442  0.00  0.00    +0.000 NA
ATOM     14  C   UNL     1      -5.522  14.450  23.151  0.00  0.00    +0.000 C 
ATOM     15  C   UNL     1      -4.397  13.873  22.296  0.00  0.00    +0.000 C 
ATOM     16  H   UNL     1      -5.168  14.365  25.168  0.00  0.00    +0.000 HD
BRANCH  15  17
ATOM     17  C   UNL     1      -4.979  13.022  21.188  0.00  0.00    +0.000 A 
ATOM     18  N   UNL     1      -5.853  12.074  21.396  0.00  0.00    +0.000 NA
ATOM     19  N   UNL     1      -6.092  11.556  20.147  0.00  0.00    +0.000 N 
ATOM     20  C   UNL     1      -5.343  12.235  19.207  0.00  0.00    +0.000 A 
ATOM     21  S   UNL     1      -5.338  12.006  17.577  0.00  0.00    +0.000 S 
ATOM     22  N   UNL     1      -4.618  13.153  19.896  0.00  0.00    +0.000 N 
ATOM     23  H   UNL     1      -6.736  10.792  19.986  0.00  0.00    +0.000 HD
ATOM     24  H   UNL     1      -4.030  13.853  19.473  0.00  0.00    +0.000 HD
ENDBRANCH  15  17
ENDBRANCH   9  11
ENDBRANCH   4   7
BRANCH   1  25
ATOM     25  O   UNL     1       1.576   8.542  19.532  0.00  0.00    +0.000 OA
BRANCH  25  26
ATOM     26  C   UNL     1       1.991   7.323  20.163  0.00  0.00    +0.000 C 
BRANCH  26  30
ATOM     27  C   UNL     1       5.017   6.262  16.284  0.00  0.00    +0.000 C 
ATOM     28  C   UNL     1       4.015   5.839  17.316  0.00  0.00    +0.000 A 
ATOM     29  C   UNL     1       3.525   6.751  18.237  0.00  0.00    +0.000 A 
ATOM     30  C   UNL     1       2.572   6.336  19.173  0.00  0.00    +0.000 A 
ATOM     31  C   UNL     1       2.142   4.985  19.159  0.00  0.00    +0.000 A 
ATOM     32  C   UNL     1       1.184   4.450  20.057  0.00  0.00    +0.000 A 
ATOM     33  C   UNL     1       0.797   3.112  19.992  0.00  0.00    +0.000 A 
ATOM     34  C   UNL     1       1.358   2.288  19.030  0.00  0.00    +0.000 A 
ATOM     35  C   UNL     1       2.302   2.806  18.140  0.00  0.00    +0.000 A 
ATOM     36  C   UNL     1       2.705   4.134  18.183  0.00  0.00    +0.000 A 
ATOM     37  N   UNL     1       3.614   4.550  17.286  0.00  0.00    +0.000 NA
ENDBRANCH  26  30
ENDBRANCH  25  26
ENDBRANCH   1  25
TORSDOF 6
ENDMDL
MODEL 7
REMARK VINA RESULT:      -9.2      3.129      9.943
REMARK  Name = 
REMARK  7 active torsions:
REMARK  status: ('A' for Active; 'I' for Inactive)
REMARK    1  A    between atoms: C_1  and  C_2
REMARK    2  A    between atoms: C_4  and  C_5
REMARK    3  A    between atoms: C_5  and  O_6
REMARK    4  A    between atoms: O_6  and  C_7
REMARK    5  A    between atoms: C_10  and  C_11
REMARK    6  A    between atoms: N_13  and  C_14
REMARK    7  A    between atoms: C_18  and  C_19
REMARK                            x       y       z     vdW  Elec       q    Type
REMARK                         _______ _______ _______ _____ _____    ______ ____
ROOT
ATOM      1  C   UNL     1       2.398   5.496  18.513  0.00  0.00    +0.000 A 
ATOM      2  C   UNL     1       1.978   5.256  19.816  0.00  0.00    +0.000 A 
ATOM      3  C   UNL     1       1.651   6.321  20.654  0.00  0.00    +0.000 A 
ATOM      4  C   UNL     1       1.765   7.644  20.207  0.00  0.00    +0.000 A 
ATOM      5  C   UNL     1       2.204   7.882  18.896  0.00  0.00    +0.000 A 
ATOM      6  C   UNL     1       2.534   6.809  18.060  0.00  0.00    +0.000 A 
ENDROOT
BRANCH   4   7
ATOM      7  C   UNL     1       1.380   8.722  21.171  0.00  0.00    +0.000 C 
ATOM      8  O   UNL     1       1.753   8.671  22.336  0.00  0.00    +0.000 OA
ATOM      9  N   UNL     1       0.578   9.730  20.692  0.00  0.00    +0.000 N 
ATOM     10  H   UNL     1       0.486   9.819  19.690  0.00  0.00    +0.000 HD
BRANCH   9  11
ATOM     11  C   UNL     1       0.217  10.924  21.440  0.00  0.00    +0.000 C 
ATOM     12  C   UNL     1      -0.971  10.905  22.411  0.00  0.00    +0.000 C 
ATOM     13  N   UNL     1      -1.241  12.330  22.670  0.00  0.00    +0.000 NA
ATOM     14  C   UNL     1      -0.868  13.062  21.446  0.00  0.00    +0.000 C 
ATOM     15  C   UNL     1      -0.150  12.085  20.519  0.00  0.00    +0.000 C 
ATOM     16  H   UNL     1      -0.645  12.641  23.440  0.00  0.00    +0.000 HD
BRANCH  15  17
ATOM     17  C   UNL     1      -1.049  11.727  19.355  0.00  0.00    +0.000 A 
ATOM     18  N   UNL     1      -0.613  11.162  18.261  0.00  0.00    +0.000 NA
ATOM     19  N   UNL     1      -1.735  11.035  17.479  0.00  0.00    +0.000 N 
ATOM     20  C   UNL     1      -2.835  11.528  18.152  0.00  0.00    +0.000 A 
ATOM     21  S   UNL     1      -4.399  11.539  17.640  0.00  0.00    +0.000 S 
ATOM     22  N   UNL     1      -2.371  11.990  19.341  0.00  0.00    +0.000 N 
ATOM     23  H   UNL     1      -1.712  10.626  16.553  0.00  0.00    +0.000 HD
ATOM     24  H   UNL     1      -2.952  12.342  20.085  0.00  0.00    +0.000 HD
ENDBRANCH  15  17
ENDBRANCH   9  11
ENDBRANCH   4   7
BRANCH   1  25
ATOM     25  O   UNL     1       2.698   4.525  17.599  0.00  0.00    +0.000 OA
BRANCH  25  26
ATOM     26  C   UNL     1       3.756   3.642  17.997  0.00  0.00    +0.000 C 
BRANCH  26  30
ATOM     27  C   UNL     1       7.966   5.846  19.654  0.00  0.00    +0.000 C 
ATOM     28  C   UNL     1       7.129   5.294  18.539  0.00  0.00    +0.000 A 
ATOM     29  C   UNL     1       5.896   4.720  18.802  0.00  0.00    +0.000 A 
ATOM     30  C   UNL     1       5.124   4.236  17.741  0.00  0.00    +0.000 A 
ATOM     31  C   UNL     1       5.634   4.338  16.421  0.00  0.00    +0.000 A 
ATOM     32  C   UNL     1       4.945   3.882  15.269  0.00  0.00    +0.000 A 
ATOM     33  C   UNL     1       5.496   4.013  13.995  0.00  0.00    +0.000 A 
ATOM     34  C   UNL     1       6.743   4.600  13.851  0.00  0.00    +0.000 A 
ATOM     35  C   UNL     1       7.429   5.053  14.980  0.00  0.00    +0.000 A 
ATOM     36  C   UNL     1       6.903   4.935  16.259  0.00  0.00    +0.000 A 
ATOM     37  N   UNL     1       7.628   5.402  17.289  0.00  0.00    +0.000 NA
ENDBRANCH  26  30
ENDBRANCH  25  26
ENDBRANCH   1  25
TORSDOF 6
ENDMDL
MODEL 8
REMARK VINA RESULT:      -9.1      3.977     10.704
REMARK  Name = 
REMARK  7 active torsions:
REMARK  status: ('A' for Active; 'I' for Inactive)
REMARK    1  A    between atoms: C_1  and  C_2
REMARK    2  A    between atoms: C_4  and  C_5
REMARK    3  A    between atoms: C_5  and  O_6
REMARK    4  A    between atoms: O_6  and  C_7
REMARK    5  A    between atoms: C_10  and  C_11
REMARK    6  A    between atoms: N_13  and  C_14
REMARK    7  A    between atoms: C_18  and  C_19
REMARK                            x       y       z     vdW  Elec       q    Type
REMARK                         _______ _______ _______ _____ _____    ______ ____
ROOT
ATOM      1  C   UNL     1       1.117   9.086  19.645  0.00  0.00    +0.000 A 
ATOM      2  C   UNL     1       0.668  10.325  19.202  0.00  0.00    +0.000 A 
ATOM      3  C   UNL     1       0.090  11.223  20.098  0.00  0.00    +0.000 A 
ATOM      4  C   UNL     1      -0.070  10.883  21.447  0.00  0.00    +0.000 A 
ATOM      5  C   UNL     1       0.370   9.626  21.888  0.00  0.00    +0.000 A 
ATOM      6  C   UNL     1       0.947   8.728  20.983  0.00  0.00    +0.000 A 
ENDROOT
BRANCH   4   7
ATOM      7  C   UNL     1      -0.689  11.914  22.339  0.00  0.00    +0.000 C 
ATOM      8  O   UNL     1      -0.013  12.836  22.777  0.00  0.00    +0.000 OA
ATOM      9  N   UNL     1      -2.017  11.752  22.654  0.00  0.00    +0.000 N 
ATOM     10  H   UNL     1      -2.553  11.101  22.098  0.00  0.00    +0.000 HD
BRANCH   9  11
ATOM     11  C   UNL     1      -2.815  12.718  23.390  0.00  0.00    +0.000 C 
ATOM     12  C   UNL     1      -3.999  12.258  24.249  0.00  0.00    +0.000 C 
ATOM     13  N   UNL     1      -4.752  13.497  24.512  0.00  0.00    +0.000 NA
ATOM     14  C   UNL     1      -4.551  14.371  23.342  0.00  0.00    +0.000 C 
ATOM     15  C   UNL     1      -3.477  13.736  22.464  0.00  0.00    +0.000 C 
ATOM     16  H   UNL     1      -4.357  13.950  25.338  0.00  0.00    +0.000 HD
BRANCH  15  17
ATOM     17  C   UNL     1      -4.109  13.157  21.216  0.00  0.00    +0.000 A 
ATOM     18  N   UNL     1      -3.438  12.906  20.124  0.00  0.00    +0.000 NA
ATOM     19  N   UNL     1      -4.383  12.418  19.255  0.00  0.00    +0.000 N 
ATOM     20  C   UNL     1      -5.616  12.381  19.873  0.00  0.00    +0.000 A 
ATOM     21  S   UNL     1      -7.033  11.824  19.248  0.00  0.00    +0.000 S 
ATOM     22  N   UNL     1      -5.425  12.882  21.121  0.00  0.00    +0.000 N 
ATOM     23  H   UNL     1      -4.160  12.133  18.309  0.00  0.00    +0.000 HD
ATOM     24  H   UNL     1      -6.130  12.912  21.840  0.00  0.00    +0.000 HD
ENDBRANCH  15  17
ENDBRANCH   9  11
ENDBRANCH   4   7
BRANCH   1  25
ATOM     25  O   UNL     1       1.736   8.155  18.861  0.00  0.00    +0.000 OA
BRANCH  25  26
ATOM     26  C   UNL     1       2.500   7.181  19.585  0.00  0.00    +0.000 C 
BRANCH  26  30
ATOM     27  C   UNL     1       0.983   2.447  18.797  0.00  0.00    +0.000 C 
ATOM     28  C   UNL     1       1.879   3.606  18.474  0.00  0.00    +0.000 A 
ATOM     29  C   UNL     1       1.739   4.811  19.143  0.00  0.00    +0.000 A 
ATOM     30  C   UNL     1       2.604   5.868  18.840  0.00  0.00    +0.000 A 
ATOM     31  C   UNL     1       3.596   5.676  17.844  0.00  0.00    +0.000 A 
ATOM     32  C   UNL     1       4.526   6.672  17.451  0.00  0.00    +0.000 A 
ATOM     33  C   UNL     1       5.482   6.424  16.468  0.00  0.00    +0.000 A 
ATOM     34  C   UNL     1       5.526   5.179  15.861  0.00  0.00    +0.000 A 
ATOM     35  C   UNL     1       4.614   4.192  16.241  0.00  0.00    +0.000 A 
ATOM     36  C   UNL     1       3.652   4.412  17.217  0.00  0.00    +0.000 A 
ATOM     37  N   UNL     1       2.819   3.405  17.526  0.00  0.00    +0.000 NA
ENDBRANCH  26  30
ENDBRANCH  25  26
ENDBRANCH   1  25
TORSDOF 6
ENDMDL
MODEL 9
REMARK VINA RESULT:      -9.1      3.931     10.803
REMARK  Name = 
REMARK  7 active torsions:
REMARK  status: ('A' for Active; 'I' for Inactive)
REMARK    1  A    between atoms: C_1  and  C_2
REMARK    2  A    between atoms: C_4  and  C_5
REMARK    3  A    between atoms: C_5  and  O_6
REMARK    4  A    between atoms: O_6  and  C_7
REMARK    5  A    between atoms: C_10  and  C_11
REMARK    6  A    between atoms: N_13  and  C_14
REMARK    7  A    between atoms: C_18  and  C_19
REMARK                            x       y       z     vdW  Elec       q    Type
REMARK                         _______ _______ _______ _____ _____    ______ ____
ROOT
ATOM      1  C   UNL     1       1.186   8.988  18.948  0.00  0.00    +0.000 A 
ATOM      2  C   UNL     1       1.420   8.663  20.279  0.00  0.00    +0.000 A 
ATOM      3  C   UNL     1       0.767   9.359  21.296  0.00  0.00    +0.000 A 
ATOM      4  C   UNL     1      -0.110  10.409  20.994  0.00  0.00    +0.000 A 
ATOM      5  C   UNL     1      -0.331  10.744  19.650  0.00  0.00    +0.000 A 
ATOM      6  C   UNL     1       0.330  10.043  18.634  0.00  0.00    +0.000 A 
ENDROOT
BRANCH   4   7
ATOM      7  C   UNL     1      -0.775  11.091  22.149  0.00  0.00    +0.000 C 
ATOM      8  O   UNL     1      -0.379  10.899  23.291  0.00  0.00    +0.000 OA
ATOM      9  N   UNL     1      -1.849  11.899  21.862  0.00  0.00    +0.000 N 
ATOM     10  H   UNL     1      -1.985  12.172  20.899  0.00  0.00    +0.000 HD
BRANCH   9  11
ATOM     11  C   UNL     1      -2.531  12.742  22.831  0.00  0.00    +0.000 C 
ATOM     12  C   UNL     1      -3.281  12.119  24.015  0.00  0.00    +0.000 C 
ATOM     13  N   UNL     1      -4.117  13.219  24.525  0.00  0.00    +0.000 NA
ATOM     14  C   UNL     1      -4.455  14.067  23.367  0.00  0.00    +0.000 C 
ATOM     15  C   UNL     1      -3.620  13.592  22.181  0.00  0.00    +0.000 C 
ATOM     16  H   UNL     1      -3.567  13.766  25.190  0.00  0.00    +0.000 HD
BRANCH  15  17
ATOM     17  C   UNL     1      -4.503  12.863  21.191  0.00  0.00    +0.000 A 
ATOM     18  N   UNL     1      -4.225  12.769  19.918  0.00  0.00    +0.000 NA
ATOM     19  N   UNL     1      -5.277  12.057  19.397  0.00  0.00    +0.000 N 
ATOM     20  C   UNL     1      -6.166  11.730  20.400  0.00  0.00    +0.000 A 
ATOM     21  S   UNL     1      -7.544  10.839  20.265  0.00  0.00    +0.000 S 
ATOM     22  N   UNL     1      -5.666  12.277  21.538  0.00  0.00    +0.000 N 
ATOM     23  H   UNL     1      -5.345  11.823  18.414  0.00  0.00    +0.000 HD
ATOM     24  H   UNL     1      -6.056  12.144  22.457  0.00  0.00    +0.000 HD
ENDBRANCH  15  17
ENDBRANCH   9  11
ENDBRANCH   4   7
BRANCH   1  25
ATOM     25  O   UNL     1       1.739   8.341  17.879  0.00  0.00    +0.000 OA
BRANCH  25  26
ATOM     26  C   UNL     1       3.050   7.813  18.117  0.00  0.00    +0.000 C 
BRANCH  26  30
ATOM     27  C   UNL     1       1.123   3.177  18.470  0.00  0.00    +0.000 C 
ATOM     28  C   UNL     1       2.203   4.115  18.020  0.00  0.00    +0.000 A 
ATOM     29  C   UNL     1       2.093   5.477  18.250  0.00  0.00    +0.000 A 
ATOM     30  C   UNL     1       3.127   6.327  17.842  0.00  0.00    +0.000 A 
ATOM     31  C   UNL     1       4.256   5.768  17.191  0.00  0.00    +0.000 A 
ATOM     32  C   UNL     1       5.362   6.527  16.733  0.00  0.00    +0.000 A 
ATOM     33  C   UNL     1       6.448   5.920  16.103  0.00  0.00    +0.000 A 
ATOM     34  C   UNL     1       6.448   4.547  15.922  0.00  0.00    +0.000 A 
ATOM     35  C   UNL     1       5.364   3.790  16.371  0.00  0.00    +0.000 A 
ATOM     36  C   UNL     1       4.270   4.369  17.000  0.00  0.00    +0.000 A 
ATOM     37  N   UNL     1       3.273   3.566  17.406  0.00  0.00    +0.000 NA
ENDBRANCH  26  30
ENDBRANCH  25  26
ENDBRANCH   1  25
TORSDOF 6
ENDMDL
