MODEL 1
REMARK VINA RESULT:      -8.0      0.000      0.000
REMARK  Name = 
REMARK  6 active torsions:
REMARK  status: ('A' for Active; 'I' for Inactive)
REMARK    1  A    between atoms: C_2  and  C_3
REMARK    2  A    between atoms: C_3  and  C_4
REMARK    3  A    between atoms: C_4  and  C_5
REMARK    4  A    between atoms: C_5  and  C_7
REMARK    5  A    between atoms: C_10  and  C_11
REMARK    6  A    between atoms: N_17  and  O_18
REMARK                            x       y       z     vdW  Elec       q    Type
REMARK                         _______ _______ _______ _____ _____    ______ ____
ROOT
ATOM      1  C   UNL     1       5.483   5.577  16.294  0.00  0.00    +0.000 C 
ATOM      2  O   UNL     1       5.221   6.281  15.320  0.00  0.00    +0.000 OA
ENDROOT
BRANCH   1   3
ATOM      3  C   UNL     1       4.368   4.946  17.054  0.00  0.00    +0.000 A 
ATOM      4  C   UNL     1       4.276   3.549  17.053  0.00  0.00    +0.000 A 
ATOM      5  C   UNL     1       3.240   2.910  17.739  0.00  0.00    +0.000 A 
ATOM      6  C   UNL     1       2.290   3.658  18.450  0.00  0.00    +0.000 A 
ATOM      7  C   UNL     1       2.394   5.060  18.452  0.00  0.00    +0.000 A 
ATOM      8  C   UNL     1       3.426   5.702  17.758  0.00  0.00    +0.000 A 
BRANCH   6   9
ATOM      9  C   UNL     1       1.181   2.976  19.217  0.00  0.00    +0.000 C 
ATOM     10  F   UNL     1       0.306   2.299  18.422  0.00  0.00    +0.000 F 
ATOM     11  F   UNL     1       1.654   2.066  20.112  0.00  0.00    +0.000 F 
ATOM     12  F   UNL     1       0.428   3.854  19.936  0.00  0.00    +0.000 F 
ENDBRANCH   6   9
ENDBRANCH   1   3
BRANCH   1  13
ATOM     13  C   UNL     1       6.906   5.343  16.759  0.00  0.00    +0.000 C 
BRANCH  13  14
ATOM     14  C   UNL     1       7.254   6.296  17.900  0.00  0.00    +0.000 C 
BRANCH  14  16
ATOM     15  O   UNL     1       6.223   5.062  19.716  0.00  0.00    +0.000 OA
ATOM     16  C   UNL     1       7.214   5.615  19.245  0.00  0.00    +0.000 C 
ATOM     17  N   UNL     1       8.410   5.674  19.917  0.00  0.00    +0.000 N 
ATOM     18  H   UNL     1       9.273   6.052  19.540  0.00  0.00    +0.000 HD
BRANCH  17  19
ATOM     19  O   UNL     1       8.476   5.037  21.173  0.00  0.00    +0.000 OA
ATOM     20  H   UNL     1       9.289   5.426  21.564  0.00  0.00    +0.000 HD
ENDBRANCH  17  19
ENDBRANCH  14  16
ENDBRANCH  13  14
ENDBRANCH   1  13
TORSDOF 6
ENDMDL
MODEL 2
REMARK VINA RESULT:      -7.8      0.781      1.675
REMARK  Name = 
REMARK  6 active torsions:
REMARK  status: ('A' for Active; 'I' for Inactive)
REMARK    1  A    between atoms: C_2  and  C_3
REMARK    2  A    between atoms: C_3  and  C_4
REMARK    3  A    between atoms: C_4  and  C_5
REMARK    4  A    between atoms: C_5  and  C_7
REMARK    5  A    between atoms: C_10  and  C_11
REMARK    6  A    between atoms: N_17  and  O_18
REMARK                            x       y       z     vdW  Elec       q    Type
REMARK                         _______ _______ _______ _____ _____    ______ ____
ROOT
ATOM      1  C   UNL     1       5.146   5.941  16.450  0.00  0.00    +0.000 C 
ATOM      2  O   UNL     1       5.312   5.765  15.244  0.00  0.00    +0.000 OA
ENDROOT
BRANCH   1   3
ATOM      3  C   UNL     1       4.132   5.124  17.171  0.00  0.00    +0.000 A 
ATOM      4  C   UNL     1       3.176   5.791  17.946  0.00  0.00    +0.000 A 
ATOM      5  C   UNL     1       2.211   5.068  18.654  0.00  0.00    +0.000 A 
ATOM      6  C   UNL     1       2.178   3.668  18.581  0.00  0.00    +0.000 A 
ATOM      7  C   UNL     1       3.136   3.006  17.794  0.00  0.00    +0.000 A 
ATOM      8  C   UNL     1       4.108   3.728  17.093  0.00  0.00    +0.000 A 
BRANCH   6   9
ATOM      9  C   UNL     1       1.123   2.878  19.320  0.00  0.00    +0.000 C 
ATOM     10  F   UNL     1       0.389   3.628  20.189  0.00  0.00    +0.000 F 
ATOM     11  F   UNL     1       0.225   2.297  18.478  0.00  0.00    +0.000 F 
ATOM     12  F   UNL     1       1.653   1.865  20.060  0.00  0.00    +0.000 F 
ENDBRANCH   6   9
ENDBRANCH   1   3
BRANCH   1  13
ATOM     13  C   UNL     1       5.932   6.979  17.227  0.00  0.00    +0.000 C 
BRANCH  13  14
ATOM     14  C   UNL     1       7.406   6.587  17.293  0.00  0.00    +0.000 C 
BRANCH  14  16
ATOM     15  O   UNL     1       7.673   4.360  18.216  0.00  0.00    +0.000 OA
ATOM     16  C   UNL     1       7.680   5.579  18.380  0.00  0.00    +0.000 C 
ATOM     17  N   UNL     1       7.937   6.154  19.600  0.00  0.00    +0.000 N 
ATOM     18  H   UNL     1       8.026   7.150  19.768  0.00  0.00    +0.000 HD
BRANCH  17  19
ATOM     19  O   UNL     1       8.233   5.287  20.672  0.00  0.00    +0.000 OA
ATOM     20  H   UNL     1       9.030   4.814  20.347  0.00  0.00    +0.000 HD
ENDBRANCH  17  19
ENDBRANCH  14  16
ENDBRANCH  13  14
ENDBRANCH   1  13
TORSDOF 6
ENDMDL
MODEL 3
REMARK VINA RESULT:      -7.7      0.871      1.311
REMARK  Name = 
REMARK  6 active torsions:
REMARK  status: ('A' for Active; 'I' for Inactive)
REMARK    1  A    between atoms: C_2  and  C_3
REMARK    2  A    between atoms: C_3  and  C_4
REMARK    3  A    between atoms: C_4  and  C_5
REMARK    4  A    between atoms: C_5  and  C_7
REMARK    5  A    between atoms: C_10  and  C_11
REMARK    6  A    between atoms: N_17  and  O_18
REMARK                            x       y       z     vdW  Elec       q    Type
REMARK                         _______ _______ _______ _____ _____    ______ ____
ROOT
ATOM      1  C   UNL     1       5.140   6.577  16.511  0.00  0.00    +0.000 C 
ATOM      2  O   UNL     1       5.057   6.701  15.290  0.00  0.00    +0.000 OA
ENDROOT
BRANCH   1   3
ATOM      3  C   UNL     1       4.144   5.731  17.224  0.00  0.00    +0.000 A 
ATOM      4  C   UNL     1       4.217   4.343  17.057  0.00  0.00    +0.000 A 
ATOM      5  C   UNL     1       3.295   3.506  17.693  0.00  0.00    +0.000 A 
ATOM      6  C   UNL     1       2.299   4.045  18.521  0.00  0.00    +0.000 A 
ATOM      7  C   UNL     1       2.238   5.439  18.690  0.00  0.00    +0.000 A 
ATOM      8  C   UNL     1       3.154   6.279  18.046  0.00  0.00    +0.000 A 
BRANCH   6   9
ATOM      9  C   UNL     1       1.315   3.149  19.235  0.00  0.00    +0.000 C 
ATOM     10  F   UNL     1       0.535   3.806  20.139  0.00  0.00    +0.000 F 
ATOM     11  F   UNL     1       0.454   2.536  18.376  0.00  0.00    +0.000 F 
ATOM     12  F   UNL     1       1.927   2.150  19.929  0.00  0.00    +0.000 F 
ENDBRANCH   6   9
ENDBRANCH   1   3
BRANCH   1  13
ATOM     13  C   UNL     1       6.217   7.274  17.319  0.00  0.00    +0.000 C 
BRANCH  13  14
ATOM     14  C   UNL     1       7.534   6.508  17.220  0.00  0.00    +0.000 C 
BRANCH  14  16
ATOM     15  O   UNL     1       7.640   4.311  18.242  0.00  0.00    +0.000 OA
ATOM     16  C   UNL     1       7.713   5.532  18.356  0.00  0.00    +0.000 C 
ATOM     17  N   UNL     1       7.964   6.144  19.559  0.00  0.00    +0.000 N 
ATOM     18  H   UNL     1       8.107   7.140  19.689  0.00  0.00    +0.000 HD
BRANCH  17  19
ATOM     19  O   UNL     1       8.175   5.308  20.675  0.00  0.00    +0.000 OA
ATOM     20  H   UNL     1       9.145   5.378  20.811  0.00  0.00    +0.000 HD
ENDBRANCH  17  19
ENDBRANCH  14  16
ENDBRANCH  13  14
ENDBRANCH   1  13
TORSDOF 6
ENDMDL
MODEL 4
REMARK VINA RESULT:      -7.7      0.657      1.581
REMARK  Name = 
REMARK  6 active torsions:
REMARK  status: ('A' for Active; 'I' for Inactive)
REMARK    1  A    between atoms: C_2  and  C_3
REMARK    2  A    between atoms: C_3  and  C_4
REMARK    3  A    between atoms: C_4  and  C_5
REMARK    4  A    between atoms: C_5  and  C_7
REMARK    5  A    between atoms: C_10  and  C_11
REMARK    6  A    between atoms: N_17  and  O_18
REMARK                            x       y       z     vdW  Elec       q    Type
REMARK                         _______ _______ _______ _____ _____    ______ ____
ROOT
ATOM      1  C   UNL     1       5.519   4.620  16.298  0.00  0.00    +0.000 C 
ATOM      2  O   UNL     1       5.302   4.844  15.108  0.00  0.00    +0.000 OA
ENDROOT
BRANCH   1   3
ATOM      3  C   UNL     1       4.392   4.194  17.174  0.00  0.00    +0.000 A 
ATOM      4  C   UNL     1       3.457   5.160  17.564  0.00  0.00    +0.000 A 
ATOM      5  C   UNL     1       2.390   4.814  18.398  0.00  0.00    +0.000 A 
ATOM      6  C   UNL     1       2.233   3.492  18.838  0.00  0.00    +0.000 A 
ATOM      7  C   UNL     1       3.172   2.526  18.436  0.00  0.00    +0.000 A 
ATOM      8  C   UNL     1       4.246   2.873  17.608  0.00  0.00    +0.000 A 
BRANCH   6   9
ATOM      9  C   UNL     1       1.069   3.100  19.718  0.00  0.00    +0.000 C 
ATOM     10  F   UNL     1       1.430   2.359  20.803  0.00  0.00    +0.000 F 
ATOM     11  F   UNL     1       0.404   4.182  20.210  0.00  0.00    +0.000 F 
ATOM     12  F   UNL     1       0.140   2.359  19.054  0.00  0.00    +0.000 F 
ENDBRANCH   6   9
ENDBRANCH   1   3
BRANCH   1  13
ATOM     13  C   UNL     1       6.896   4.781  16.908  0.00  0.00    +0.000 C 
BRANCH  13  14
ATOM     14  C   UNL     1       6.903   5.938  17.904  0.00  0.00    +0.000 C 
BRANCH  14  16
ATOM     15  O   UNL     1       6.073   5.023  19.992  0.00  0.00    +0.000 OA
ATOM     16  C   UNL     1       7.012   5.463  19.331  0.00  0.00    +0.000 C 
ATOM     17  N   UNL     1       8.281   5.573  19.843  0.00  0.00    +0.000 N 
ATOM     18  H   UNL     1       9.100   5.859  19.315  0.00  0.00    +0.000 HD
BRANCH  17  19
ATOM     19  O   UNL     1       8.485   5.124  21.164  0.00  0.00    +0.000 OA
ATOM     20  H   UNL     1       7.910   4.330  21.208  0.00  0.00    +0.000 HD
ENDBRANCH  17  19
ENDBRANCH  14  16
ENDBRANCH  13  14
ENDBRANCH   1  13
TORSDOF 6
ENDMDL
MODEL 5
REMARK VINA RESULT:      -7.4      2.512      3.670
REMARK  Name = 
REMARK  6 active torsions:
REMARK  status: ('A' for Active; 'I' for Inactive)
REMARK    1  A    between atoms: C_2  and  C_3
REMARK    2  A    between atoms: C_3  and  C_4
REMARK    3  A    between atoms: C_4  and  C_5
REMARK    4  A    between atoms: C_5  and  C_7
REMARK    5  A    between atoms: C_10  and  C_11
REMARK    6  A    between atoms: N_17  and  O_18
REMARK                            x       y       z     vdW  Elec       q    Type
REMARK                         _______ _______ _______ _____ _____    ______ ____
ROOT
ATOM      1  C   UNL     1       5.256   5.312  16.341  0.00  0.00    +0.000 C 
ATOM      2  O   UNL     1       5.223   6.529  16.164  0.00  0.00    +0.000 OA
ENDROOT
BRANCH   1   3
ATOM      3  C   UNL     1       4.184   4.666  17.147  0.00  0.00    +0.000 A 
ATOM      4  C   UNL     1       3.207   5.486  17.724  0.00  0.00    +0.000 A 
ATOM      5  C   UNL     1       2.189   4.929  18.503  0.00  0.00    +0.000 A 
ATOM      6  C   UNL     1       2.122   3.542  18.700  0.00  0.00    +0.000 A 
ATOM      7  C   UNL     1       3.103   2.725  18.111  0.00  0.00    +0.000 A 
ATOM      8  C   UNL     1       4.129   3.282  17.339  0.00  0.00    +0.000 A 
BRANCH   6   9
ATOM      9  C   UNL     1       1.010   2.926  19.518  0.00  0.00    +0.000 C 
ATOM     10  F   UNL     1       0.097   2.246  18.770  0.00  0.00    +0.000 F 
ATOM     11  F   UNL     1       1.475   2.038  20.439  0.00  0.00    +0.000 F 
ATOM     12  F   UNL     1       0.301   3.855  20.216  0.00  0.00    +0.000 F 
ENDBRANCH   6   9
ENDBRANCH   1   3
BRANCH   1  13
ATOM     13  C   UNL     1       6.366   4.448  15.777  0.00  0.00    +0.000 C 
BRANCH  13  14
ATOM     14  C   UNL     1       6.059   4.068  14.330  0.00  0.00    +0.000 C 
BRANCH  14  16
ATOM     15  O   UNL     1       7.176   4.278  12.187  0.00  0.00    +0.000 OA
ATOM     16  C   UNL     1       7.090   4.605  13.369  0.00  0.00    +0.000 C 
ATOM     17  N   UNL     1       7.949   5.507  13.945  0.00  0.00    +0.000 N 
ATOM     18  H   UNL     1       7.873   5.863  14.893  0.00  0.00    +0.000 HD
BRANCH  17  19
ATOM     19  O   UNL     1       8.930   6.085  13.114  0.00  0.00    +0.000 OA
ATOM     20  H   UNL     1       8.737   7.045  13.195  0.00  0.00    +0.000 HD
ENDBRANCH  17  19
ENDBRANCH  14  16
ENDBRANCH  13  14
ENDBRANCH   1  13
TORSDOF 6
ENDMDL
MODEL 6
REMARK VINA RESULT:      -7.3      2.454      3.649
REMARK  Name = 
REMARK  6 active torsions:
REMARK  status: ('A' for Active; 'I' for Inactive)
REMARK    1  A    between atoms: C_2  and  C_3
REMARK    2  A    between atoms: C_3  and  C_4
REMARK    3  A    between atoms: C_4  and  C_5
REMARK    4  A    between atoms: C_5  and  C_7
REMARK    5  A    between atoms: C_10  and  C_11
REMARK    6  A    between atoms: N_17  and  O_18
REMARK                            x       y       z     vdW  Elec       q    Type
REMARK                         _______ _______ _______ _____ _____    ______ ____
ROOT
ATOM      1  C   UNL     1       5.794   4.590  16.911  0.00  0.00    +0.000 C 
ATOM      2  O   UNL     1       6.912   4.458  17.406  0.00  0.00    +0.000 OA
ENDROOT
BRANCH   1   3
ATOM      3  C   UNL     1       4.596   4.211  17.711  0.00  0.00    +0.000 A 
ATOM      4  C   UNL     1       3.434   3.839  17.024  0.00  0.00    +0.000 A 
ATOM      5  C   UNL     1       2.279   3.489  17.729  0.00  0.00    +0.000 A 
ATOM      6  C   UNL     1       2.276   3.489  19.132  0.00  0.00    +0.000 A 
ATOM      7  C   UNL     1       3.449   3.856  19.814  0.00  0.00    +0.000 A 
ATOM      8  C   UNL     1       4.603   4.215  19.109  0.00  0.00    +0.000 A 
BRANCH   6   9
ATOM      9  C   UNL     1       1.041   3.086  19.904  0.00  0.00    +0.000 C 
ATOM     10  F   UNL     1       0.145   2.372  19.166  0.00  0.00    +0.000 F 
ATOM     11  F   UNL     1       1.335   2.312  20.985  0.00  0.00    +0.000 F 
ATOM     12  F   UNL     1       0.355   4.158  20.387  0.00  0.00    +0.000 F 
ENDBRANCH   6   9
ENDBRANCH   1   3
BRANCH   1  13
ATOM     13  C   UNL     1       5.594   5.112  15.502  0.00  0.00    +0.000 C 
BRANCH  13  14
ATOM     14  C   UNL     1       5.983   4.044  14.482  0.00  0.00    +0.000 C 
BRANCH  14  16
ATOM     15  O   UNL     1       7.114   4.153  12.339  0.00  0.00    +0.000 OA
ATOM     16  C   UNL     1       7.014   4.542  13.500  0.00  0.00    +0.000 C 
ATOM     17  N   UNL     1       7.856   5.487  14.032  0.00  0.00    +0.000 N 
ATOM     18  H   UNL     1       7.768   5.892  14.958  0.00  0.00    +0.000 HD
BRANCH  17  19
ATOM     19  O   UNL     1       8.836   6.032  13.177  0.00  0.00    +0.000 OA
ATOM     20  H   UNL     1       8.519   5.756  12.290  0.00  0.00    +0.000 HD
ENDBRANCH  17  19
ENDBRANCH  14  16
ENDBRANCH  13  14
ENDBRANCH   1  13
TORSDOF 6
ENDMDL
MODEL 7
REMARK VINA RESULT:      -7.3      0.942      1.365
REMARK  Name = 
REMARK  6 active torsions:
REMARK  status: ('A' for Active; 'I' for Inactive)
REMARK    1  A    between atoms: C_2  and  C_3
REMARK    2  A    between atoms: C_3  and  C_4
REMARK    3  A    between atoms: C_4  and  C_5
REMARK    4  A    between atoms: C_5  and  C_7
REMARK    5  A    between atoms: C_10  and  C_11
REMARK    6  A    between atoms: N_17  and  O_18
REMARK                            x       y       z     vdW  Elec       q    Type
REMARK                         _______ _______ _______ _____ _____    ______ ____
ROOT
ATOM      1  C   UNL     1       5.301   5.845  16.346  0.00  0.00    +0.000 C 
ATOM      2  O   UNL     1       4.989   6.648  15.468  0.00  0.00    +0.000 OA
ENDROOT
BRANCH   1   3
ATOM      3  C   UNL     1       4.227   5.160  17.118  0.00  0.00    +0.000 A 
ATOM      4  C   UNL     1       4.093   3.774  16.975  0.00  0.00    +0.000 A 
ATOM      5  C   UNL     1       3.091   3.087  17.666  0.00  0.00    +0.000 A 
ATOM      6  C   UNL     1       2.220   3.774  18.523  0.00  0.00    +0.000 A 
ATOM      7  C   UNL     1       2.366   5.165  18.668  0.00  0.00    +0.000 A 
ATOM      8  C   UNL     1       3.363   5.856  17.969  0.00  0.00    +0.000 A 
BRANCH   6   9
ATOM      9  C   UNL     1       1.150   3.037  19.296  0.00  0.00    +0.000 C 
ATOM     10  F   UNL     1       0.410   3.845  20.107  0.00  0.00    +0.000 F 
ATOM     11  F   UNL     1       0.259   2.411  18.479  0.00  0.00    +0.000 F 
ATOM     12  F   UNL     1       1.663   2.069  20.104  0.00  0.00    +0.000 F 
ENDBRANCH   6   9
ENDBRANCH   1   3
BRANCH   1  13
ATOM     13  C   UNL     1       6.747   5.541  16.683  0.00  0.00    +0.000 C 
BRANCH  13  14
ATOM     14  C   UNL     1       7.471   6.817  17.107  0.00  0.00    +0.000 C 
BRANCH  14  16
ATOM     15  O   UNL     1       8.636   7.618  19.078  0.00  0.00    +0.000 OA
ATOM     16  C   UNL     1       7.970   6.743  18.528  0.00  0.00    +0.000 C 
ATOM     17  N   UNL     1       7.614   5.582  19.167  0.00  0.00    +0.000 N 
ATOM     18  H   UNL     1       7.007   4.866  18.782  0.00  0.00    +0.000 HD
BRANCH  17  19
ATOM     19  O   UNL     1       8.014   5.437  20.512  0.00  0.00    +0.000 OA
ATOM     20  H   UNL     1       8.941   5.761  20.493  0.00  0.00    +0.000 HD
ENDBRANCH  17  19
ENDBRANCH  14  16
ENDBRANCH  13  14
ENDBRANCH   1  13
TORSDOF 6
ENDMDL
MODEL 8
REMARK VINA RESULT:      -7.3      2.205      3.424
REMARK  Name = 
REMARK  6 active torsions:
REMARK  status: ('A' for Active; 'I' for Inactive)
REMARK    1  A    between atoms: C_2  and  C_3
REMARK    2  A    between atoms: C_3  and  C_4
REMARK    3  A    between atoms: C_4  and  C_5
REMARK    4  A    between atoms: C_5  and  C_7
REMARK    5  A    between atoms: C_10  and  C_11
REMARK    6  A    between atoms: N_17  and  O_18
REMARK                            x       y       z     vdW  Elec       q    Type
REMARK                         _______ _______ _______ _____ _____    ______ ____
ROOT
ATOM      1  C   UNL     1       5.805   5.559  17.395  0.00  0.00    +0.000 C 
ATOM      2  O   UNL     1       5.988   6.772  17.481  0.00  0.00    +0.000 OA
ENDROOT
BRANCH   1   3
ATOM      3  C   UNL     1       4.577   4.966  17.994  0.00  0.00    +0.000 A 
ATOM      4  C   UNL     1       4.731   3.959  18.955  0.00  0.00    +0.000 A 
ATOM      5  C   UNL     1       3.610   3.360  19.535  0.00  0.00    +0.000 A 
ATOM      6  C   UNL     1       2.318   3.772  19.177  0.00  0.00    +0.000 A 
ATOM      7  C   UNL     1       2.172   4.790  18.218  0.00  0.00    +0.000 A 
ATOM      8  C   UNL     1       3.294   5.384  17.629  0.00  0.00    +0.000 A 
BRANCH   6   9
ATOM      9  C   UNL     1       1.099   3.151  19.819  0.00  0.00    +0.000 C 
ATOM     10  F   UNL     1       0.245   4.063  20.363  0.00  0.00    +0.000 F 
ATOM     11  F   UNL     1       0.359   2.429  18.933  0.00  0.00    +0.000 F 
ATOM     12  F   UNL     1       1.420   2.294  20.826  0.00  0.00    +0.000 F 
ENDBRANCH   6   9
ENDBRANCH   1   3
BRANCH   1  13
ATOM     13  C   UNL     1       6.799   4.641  16.713  0.00  0.00    +0.000 C 
BRANCH  13  14
ATOM     14  C   UNL     1       6.160   3.979  15.495  0.00  0.00    +0.000 C 
BRANCH  14  16
ATOM     15  O   UNL     1       6.538   3.946  13.099  0.00  0.00    +0.000 OA
ATOM     16  C   UNL     1       6.809   4.411  14.204  0.00  0.00    +0.000 C 
ATOM     17  N   UNL     1       7.758   5.388  14.376  0.00  0.00    +0.000 N 
ATOM     18  H   UNL     1       7.964   5.853  15.254  0.00  0.00    +0.000 HD
BRANCH  17  19
ATOM     19  O   UNL     1       8.399   5.875  13.218  0.00  0.00    +0.000 OA
ATOM     20  H   UNL     1       7.667   6.329  12.747  0.00  0.00    +0.000 HD
ENDBRANCH  17  19
ENDBRANCH  14  16
ENDBRANCH  13  14
ENDBRANCH   1  13
TORSDOF 6
ENDMDL
MODEL 9
REMARK VINA RESULT:      -7.3      2.492      3.312
REMARK  Name = 
REMARK  6 active torsions:
REMARK  status: ('A' for Active; 'I' for Inactive)
REMARK    1  A    between atoms: C_2  and  C_3
REMARK    2  A    between atoms: C_3  and  C_4
REMARK    3  A    between atoms: C_4  and  C_5
REMARK    4  A    between atoms: C_5  and  C_7
REMARK    5  A    between atoms: C_10  and  C_11
REMARK    6  A    between atoms: N_17  and  O_18
REMARK                            x       y       z     vdW  Elec       q    Type
REMARK                         _______ _______ _______ _____ _____    ______ ____
ROOT
ATOM      1  C   UNL     1       5.139   6.155  16.835  0.00  0.00    +0.000 C 
ATOM      2  O   UNL     1       4.788   6.969  15.981  0.00  0.00    +0.000 OA
ENDROOT
BRANCH   1   3
ATOM      3  C   UNL     1       4.106   5.321  17.510  0.00  0.00    +0.000 A 
ATOM      4  C   UNL     1       3.595   5.766  18.735  0.00  0.00    +0.000 A 
ATOM      5  C   UNL     1       2.636   5.012  19.416  0.00  0.00    +0.000 A 
ATOM      6  C   UNL     1       2.160   3.810  18.872  0.00  0.00    +0.000 A 
ATOM      7  C   UNL     1       2.672   3.373  17.637  0.00  0.00    +0.000 A 
ATOM      8  C   UNL     1       3.640   4.123  16.959  0.00  0.00    +0.000 A 
BRANCH   6   9
ATOM      9  C   UNL     1       1.103   3.000  19.586  0.00  0.00    +0.000 C 
ATOM     10  F   UNL     1       0.292   3.747  20.387  0.00  0.00    +0.000 F 
ATOM     11  F   UNL     1       0.277   2.349  18.721  0.00  0.00    +0.000 F 
ATOM     12  F   UNL     1       1.636   2.039  20.389  0.00  0.00    +0.000 F 
ENDBRANCH   6   9
ENDBRANCH   1   3
BRANCH   1  13
ATOM     13  C   UNL     1       6.590   5.985  17.236  0.00  0.00    +0.000 C 
BRANCH  13  14
ATOM     14  C   UNL     1       7.138   4.666  16.697  0.00  0.00    +0.000 C 
BRANCH  14  16
ATOM     15  O   UNL     1       7.683   5.417  14.455  0.00  0.00    +0.000 OA
ATOM     16  C   UNL     1       7.114   4.612  15.190  0.00  0.00    +0.000 C 
ATOM     17  N   UNL     1       6.376   3.564  14.698  0.00  0.00    +0.000 N 
ATOM     18  H   UNL     1       5.950   2.835  15.261  0.00  0.00    +0.000 HD
BRANCH  17  19
ATOM     19  O   UNL     1       6.320   3.417  13.297  0.00  0.00    +0.000 OA
ATOM     20  H   UNL     1       7.117   2.875  13.109  0.00  0.00    +0.000 HD
ENDBRANCH  17  19
ENDBRANCH  14  16
ENDBRANCH  13  14
ENDBRANCH   1  13
TORSDOF 6
ENDMDL
