MODEL 1
REMARK VINA RESULT:      -8.7      0.000      0.000
REMARK  Name = 
REMARK  6 active torsions:
REMARK  status: ('A' for Active; 'I' for Inactive)
REMARK    1  A    between atoms: C_1  and  C_2
REMARK    2  A    between atoms: C_5  and  C_6
REMARK    3  A    between atoms: C_6  and  C_7
REMARK    4  A    between atoms: C_6  and  N_8
REMARK    5  A    between atoms: C_9  and  C_11
REMARK    6  A    between atoms: C_11  and  C_13
REMARK                            x       y       z     vdW  Elec       q    Type
REMARK                         _______ _______ _______ _____ _____    ______ ____
ROOT
ATOM      1  N   UNL     1       3.431   5.487  18.469  0.00  0.00    +0.000 N 
ATOM      2  C   UNL     1       4.560   4.689  18.444  0.00  0.00    +0.000 C 
ATOM      3  O   UNL     1       5.283   4.467  19.405  0.00  0.00    +0.000 OA
ATOM      4  H   UNL     1       2.938   5.659  17.601  0.00  0.00    +0.000 HD
ENDROOT
BRANCH   1   5
ATOM      5  C   UNL     1       2.983   6.113  19.698  0.00  0.00    +0.000 C 
ATOM      6  C   UNL     1       2.107   5.163  20.520  0.00  0.00    +0.000 C 
BRANCH   5  11
ATOM      7  C   UNL     1       0.096  11.098  18.717  0.00  0.00    +0.000 C 
ATOM      8  C   UNL     1       0.862   9.833  18.971  0.00  0.00    +0.000 A 
ATOM      9  C   UNL     1       0.895   9.259  20.244  0.00  0.00    +0.000 A 
ATOM     10  C   UNL     1       1.598   8.073  20.469  0.00  0.00    +0.000 A 
ATOM     11  C   UNL     1       2.280   7.430  19.425  0.00  0.00    +0.000 A 
ATOM     12  C   UNL     1       2.264   8.023  18.154  0.00  0.00    +0.000 A 
ATOM     13  C   UNL     1       1.561   9.211  17.930  0.00  0.00    +0.000 A 
ENDBRANCH   5  11
ENDBRANCH   1   5
BRANCH   2  14
ATOM     14  C   UNL     1       4.846   4.034  17.083  0.00  0.00    +0.000 C 
ATOM     15  O   UNL     1       4.254   2.987  16.833  0.00  0.00    +0.000 OA
BRANCH  14  16
ATOM     16  C   UNL     1       5.852   4.614  16.191  0.00  0.00    +0.000 A 
ATOM     17  C   UNL     1       6.811   5.546  16.556  0.00  0.00    +0.000 A 
ATOM     18  N   UNL     1       7.593   5.820  15.471  0.00  0.00    +0.000 N 
ATOM     19  C   UNL     1       7.174   5.086  14.386  0.00  0.00    +0.000 A 
ATOM     20  C   UNL     1       7.689   5.040  13.087  0.00  0.00    +0.000 A 
ATOM     21  C   UNL     1       7.052   4.203  12.168  0.00  0.00    +0.000 A 
ATOM     22  C   UNL     1       5.942   3.451  12.544  0.00  0.00    +0.000 A 
ATOM     23 CL   UNL     1       5.175   2.438  11.379  0.00  0.00    +0.000 Cl
ATOM     24  C   UNL     1       5.441   3.500  13.849  0.00  0.00    +0.000 A 
ATOM     25  C   UNL     1       6.072   4.332  14.800  0.00  0.00    +0.000 A 
ATOM     26  H   UNL     1       8.369   6.469  15.459  0.00  0.00    +0.000 HD
ENDBRANCH  14  16
ENDBRANCH   2  14
TORSDOF 4
ENDMDL
MODEL 2
REMARK VINA RESULT:      -8.7      0.217      1.006
REMARK  Name = 
REMARK  6 active torsions:
REMARK  status: ('A' for Active; 'I' for Inactive)
REMARK    1  A    between atoms: C_1  and  C_2
REMARK    2  A    between atoms: C_5  and  C_6
REMARK    3  A    between atoms: C_6  and  C_7
REMARK    4  A    between atoms: C_6  and  N_8
REMARK    5  A    between atoms: C_9  and  C_11
REMARK    6  A    between atoms: C_11  and  C_13
REMARK                            x       y       z     vdW  Elec       q    Type
REMARK                         _______ _______ _______ _____ _____    ______ ____
ROOT
ATOM      1  N   UNL     1       3.293   5.239  18.548  0.00  0.00    +0.000 N 
ATOM      2  C   UNL     1       4.577   4.736  18.450  0.00  0.00    +0.000 C 
ATOM      3  O   UNL     1       5.420   4.791  19.335  0.00  0.00    +0.000 OA
ATOM      4  H   UNL     1       2.692   5.200  17.733  0.00  0.00    +0.000 HD
ENDROOT
BRANCH   1   5
ATOM      5  C   UNL     1       2.822   5.859  19.772  0.00  0.00    +0.000 C 
ATOM      6  C   UNL     1       1.854   4.940  20.524  0.00  0.00    +0.000 C 
BRANCH   5  11
ATOM      7  C   UNL     1       0.647  11.170  18.672  0.00  0.00    +0.000 C 
ATOM      8  C   UNL     1       1.179   9.795  18.951  0.00  0.00    +0.000 A 
ATOM      9  C   UNL     1       1.805   9.052  17.947  0.00  0.00    +0.000 A 
ATOM     10  C   UNL     1       2.310   7.778  18.219  0.00  0.00    +0.000 A 
ATOM     11  C   UNL     1       2.208   7.220  19.503  0.00  0.00    +0.000 A 
ATOM     12  C   UNL     1       1.558   7.961  20.501  0.00  0.00    +0.000 A 
ATOM     13  C   UNL     1       1.051   9.236  20.227  0.00  0.00    +0.000 A 
ENDBRANCH   5  11
ENDBRANCH   1   5
BRANCH   2  14
ATOM     14  C   UNL     1       4.887   4.037  17.117  0.00  0.00    +0.000 C 
ATOM     15  O   UNL     1       4.330   2.961  16.909  0.00  0.00    +0.000 OA
BRANCH  14  16
ATOM     16  C   UNL     1       5.876   4.613  16.204  0.00  0.00    +0.000 A 
ATOM     17  C   UNL     1       6.846   5.542  16.547  0.00  0.00    +0.000 A 
ATOM     18  N   UNL     1       7.604   5.813  15.445  0.00  0.00    +0.000 N 
ATOM     19  C   UNL     1       7.159   5.081  14.370  0.00  0.00    +0.000 A 
ATOM     20  C   UNL     1       7.644   5.034  13.059  0.00  0.00    +0.000 A 
ATOM     21  C   UNL     1       6.984   4.199  12.154  0.00  0.00    +0.000 A 
ATOM     22  C   UNL     1       5.880   3.451  12.555  0.00  0.00    +0.000 A 
ATOM     23 CL   UNL     1       5.083   2.441  11.407  0.00  0.00    +0.000 Cl
ATOM     24  C   UNL     1       5.408   3.502  13.871  0.00  0.00    +0.000 A 
ATOM     25  C   UNL     1       6.063   4.330  14.808  0.00  0.00    +0.000 A 
ATOM     26  H   UNL     1       8.382   6.459  15.416  0.00  0.00    +0.000 HD
ENDBRANCH  14  16
ENDBRANCH   2  14
TORSDOF 4
ENDMDL
MODEL 3
REMARK VINA RESULT:      -8.2      3.666      5.576
REMARK  Name = 
REMARK  6 active torsions:
REMARK  status: ('A' for Active; 'I' for Inactive)
REMARK    1  A    between atoms: C_1  and  C_2
REMARK    2  A    between atoms: C_5  and  C_6
REMARK    3  A    between atoms: C_6  and  C_7
REMARK    4  A    between atoms: C_6  and  N_8
REMARK    5  A    between atoms: C_9  and  C_11
REMARK    6  A    between atoms: C_11  and  C_13
REMARK                            x       y       z     vdW  Elec       q    Type
REMARK                         _______ _______ _______ _____ _____    ______ ____
ROOT
ATOM      1  N   UNL     1       0.913   9.840  19.173  0.00  0.00    +0.000 N 
ATOM      2  C   UNL     1       1.721   9.045  18.381  0.00  0.00    +0.000 C 
ATOM      3  O   UNL     1       2.060   9.311  17.237  0.00  0.00    +0.000 OA
ATOM      4  H   UNL     1       0.638   9.497  20.086  0.00  0.00    +0.000 HD
ENDROOT
BRANCH   1   5
ATOM      5  C   UNL     1       0.421  11.118  18.697  0.00  0.00    +0.000 C 
ATOM      6  C   UNL     1       0.787  12.251  19.661  0.00  0.00    +0.000 C 
BRANCH   5  11
ATOM      7  C   UNL     1      -5.359  10.913  17.864  0.00  0.00    +0.000 C 
ATOM      8  C   UNL     1      -3.872  10.981  18.054  0.00  0.00    +0.000 A 
ATOM      9  C   UNL     1      -3.301  11.929  18.906  0.00  0.00    +0.000 A 
ATOM     10  C   UNL     1      -1.917  11.976  19.088  0.00  0.00    +0.000 A 
ATOM     11  C   UNL     1      -1.072  11.072  18.427  0.00  0.00    +0.000 A 
ATOM     12  C   UNL     1      -1.648  10.137  17.554  0.00  0.00    +0.000 A 
ATOM     13  C   UNL     1      -3.034  10.092  17.371  0.00  0.00    +0.000 A 
ENDBRANCH   5  11
ENDBRANCH   1   5
BRANCH   2  14
ATOM     14  C   UNL     1       2.224   7.765  19.069  0.00  0.00    +0.000 C 
ATOM     15  O   UNL     1       2.008   7.658  20.273  0.00  0.00    +0.000 OA
BRANCH  14  16
ATOM     16  C   UNL     1       3.001   6.786  18.306  0.00  0.00    +0.000 A 
ATOM     17  C   UNL     1       4.170   7.050  17.609  0.00  0.00    +0.000 A 
ATOM     18  N   UNL     1       4.625   5.886  17.058  0.00  0.00    +0.000 N 
ATOM     19  C   UNL     1       3.781   4.848  17.376  0.00  0.00    +0.000 A 
ATOM     20  C   UNL     1       3.867   3.494  17.040  0.00  0.00    +0.000 A 
ATOM     21  C   UNL     1       2.850   2.649  17.492  0.00  0.00    +0.000 A 
ATOM     22  C   UNL     1       1.793   3.153  18.246  0.00  0.00    +0.000 A 
ATOM     23 CL   UNL     1       0.550   2.082  18.776  0.00  0.00    +0.000 Cl
ATOM     24  C   UNL     1       1.722   4.509  18.581  0.00  0.00    +0.000 A 
ATOM     25  C   UNL     1       2.741   5.383  18.144  0.00  0.00    +0.000 A 
ATOM     26  H   UNL     1       5.461   5.795  16.496  0.00  0.00    +0.000 HD
ENDBRANCH  14  16
ENDBRANCH   2  14
TORSDOF 4
ENDMDL
MODEL 4
REMARK VINA RESULT:      -8.0      3.419      7.917
REMARK  Name = 
REMARK  6 active torsions:
REMARK  status: ('A' for Active; 'I' for Inactive)
REMARK    1  A    between atoms: C_1  and  C_2
REMARK    2  A    between atoms: C_5  and  C_6
REMARK    3  A    between atoms: C_6  and  C_7
REMARK    4  A    between atoms: C_6  and  N_8
REMARK    5  A    between atoms: C_9  and  C_11
REMARK    6  A    between atoms: C_11  and  C_13
REMARK                            x       y       z     vdW  Elec       q    Type
REMARK                         _______ _______ _______ _____ _____    ______ ____
ROOT
ATOM      1  N   UNL     1       4.770   5.459  19.187  0.00  0.00    +0.000 N 
ATOM      2  C   UNL     1       3.731   4.708  19.707  0.00  0.00    +0.000 C 
ATOM      3  O   UNL     1       3.753   3.496  19.866  0.00  0.00    +0.000 OA
ATOM      4  H   UNL     1       4.624   6.450  19.036  0.00  0.00    +0.000 HD
ENDROOT
BRANCH   1   5
ATOM      5  C   UNL     1       6.027   4.841  18.814  0.00  0.00    +0.000 C 
ATOM      6  C   UNL     1       7.220   5.689  19.264  0.00  0.00    +0.000 C 
BRANCH   5  11
ATOM      7  C   UNL     1       6.262   3.906  13.051  0.00  0.00    +0.000 C 
ATOM      8  C   UNL     1       6.210   4.118  14.535  0.00  0.00    +0.000 A 
ATOM      9  C   UNL     1       7.286   4.691  15.216  0.00  0.00    +0.000 A 
ATOM     10  C   UNL     1       7.223   4.899  16.596  0.00  0.00    +0.000 A 
ATOM     11  C   UNL     1       6.079   4.544  17.327  0.00  0.00    +0.000 A 
ATOM     12  C   UNL     1       5.009   3.948  16.642  0.00  0.00    +0.000 A 
ATOM     13  C   UNL     1       5.074   3.739  15.261  0.00  0.00    +0.000 A 
ENDBRANCH   5  11
ENDBRANCH   1   5
BRANCH   2  14
ATOM     14  C   UNL     1       2.502   5.529  20.131  0.00  0.00    +0.000 C 
ATOM     15  O   UNL     1       1.724   5.001  20.922  0.00  0.00    +0.000 OA
BRANCH  14  16
ATOM     16  C   UNL     1       2.258   6.841  19.527  0.00  0.00    +0.000 A 
ATOM     17  C   UNL     1       2.591   7.207  18.232  0.00  0.00    +0.000 A 
ATOM     18  N   UNL     1       2.175   8.489  18.017  0.00  0.00    +0.000 N 
ATOM     19  C   UNL     1       1.567   8.986  19.146  0.00  0.00    +0.000 A 
ATOM     20  C   UNL     1       0.985  10.238  19.367  0.00  0.00    +0.000 A 
ATOM     21  C   UNL     1       0.443  10.485  20.631  0.00  0.00    +0.000 A 
ATOM     22  C   UNL     1       0.492   9.513  21.626  0.00  0.00    +0.000 A 
ATOM     23 CL   UNL     1      -0.177   9.857  23.177  0.00  0.00    +0.000 Cl
ATOM     24  C   UNL     1       1.072   8.261  21.390  0.00  0.00    +0.000 A 
ATOM     25  C   UNL     1       1.619   7.983  20.118  0.00  0.00    +0.000 A 
ATOM     26  H   UNL     1       2.294   9.005  17.154  0.00  0.00    +0.000 HD
ENDBRANCH  14  16
ENDBRANCH   2  14
TORSDOF 4
ENDMDL
MODEL 5
REMARK VINA RESULT:      -7.9      3.138      5.184
REMARK  Name = 
REMARK  6 active torsions:
REMARK  status: ('A' for Active; 'I' for Inactive)
REMARK    1  A    between atoms: C_1  and  C_2
REMARK    2  A    between atoms: C_5  and  C_6
REMARK    3  A    between atoms: C_6  and  C_7
REMARK    4  A    between atoms: C_6  and  N_8
REMARK    5  A    between atoms: C_9  and  C_11
REMARK    6  A    between atoms: C_11  and  C_13
REMARK                            x       y       z     vdW  Elec       q    Type
REMARK                         _______ _______ _______ _____ _____    ______ ____
ROOT
ATOM      1  N   UNL     1       0.968   9.347  19.075  0.00  0.00    +0.000 N 
ATOM      2  C   UNL     1       1.843   8.524  18.390  0.00  0.00    +0.000 C 
ATOM      3  O   UNL     1       2.353   8.788  17.310  0.00  0.00    +0.000 OA
ATOM      4  H   UNL     1       0.551   9.006  19.933  0.00  0.00    +0.000 HD
ENDROOT
BRANCH   1   5
ATOM      5  C   UNL     1       0.607  10.653  18.558  0.00  0.00    +0.000 C 
ATOM      6  C   UNL     1       1.148  11.774  19.450  0.00  0.00    +0.000 C 
BRANCH   5  11
ATOM      7  C   UNL     1      -5.129  11.153  17.563  0.00  0.00    +0.000 C 
ATOM      8  C   UNL     1      -3.662  11.008  17.841  0.00  0.00    +0.000 A 
ATOM      9  C   UNL     1      -2.892  10.069  17.152  0.00  0.00    +0.000 A 
ATOM     10  C   UNL     1      -1.523   9.950  17.407  0.00  0.00    +0.000 A 
ATOM     11  C   UNL     1      -0.892  10.773  18.353  0.00  0.00    +0.000 A 
ATOM     12  C   UNL     1      -1.674  11.698  19.059  0.00  0.00    +0.000 A 
ATOM     13  C   UNL     1      -3.045  11.815  18.804  0.00  0.00    +0.000 A 
ENDBRANCH   5  11
ENDBRANCH   1   5
BRANCH   2  14
ATOM     14  C   UNL     1       2.186   7.214  19.117  0.00  0.00    +0.000 C 
ATOM     15  O   UNL     1       2.046   7.200  20.338  0.00  0.00    +0.000 OA
BRANCH  14  16
ATOM     16  C   UNL     1       2.738   6.085  18.365  0.00  0.00    +0.000 A 
ATOM     17  C   UNL     1       2.051   4.931  18.023  0.00  0.00    +0.000 A 
ATOM     18  N   UNL     1       2.878   4.127  17.292  0.00  0.00    +0.000 N 
ATOM     19  C   UNL     1       4.107   4.726  17.138  0.00  0.00    +0.000 A 
ATOM     20  C   UNL     1       5.240   4.272  16.456  0.00  0.00    +0.000 A 
ATOM     21  C   UNL     1       6.373   5.089  16.471  0.00  0.00    +0.000 A 
ATOM     22  C   UNL     1       6.362   6.305  17.148  0.00  0.00    +0.000 A 
ATOM     23 CL   UNL     1       7.784   7.281  17.155  0.00  0.00    +0.000 Cl
ATOM     24  C   UNL     1       5.219   6.751  17.822  0.00  0.00    +0.000 A 
ATOM     25  C   UNL     1       4.058   5.948  17.815  0.00  0.00    +0.000 A 
ATOM     26  H   UNL     1       2.630   3.221  16.916  0.00  0.00    +0.000 HD
ENDBRANCH  14  16
ENDBRANCH   2  14
TORSDOF 4
ENDMDL
MODEL 6
REMARK VINA RESULT:      -7.8      2.583      7.074
REMARK  Name = 
REMARK  6 active torsions:
REMARK  status: ('A' for Active; 'I' for Inactive)
REMARK    1  A    between atoms: C_1  and  C_2
REMARK    2  A    between atoms: C_5  and  C_6
REMARK    3  A    between atoms: C_6  and  C_7
REMARK    4  A    between atoms: C_6  and  N_8
REMARK    5  A    between atoms: C_9  and  C_11
REMARK    6  A    between atoms: C_11  and  C_13
REMARK                            x       y       z     vdW  Elec       q    Type
REMARK                         _______ _______ _______ _____ _____    ______ ____
ROOT
ATOM      1  N   UNL     1       5.233   6.297  18.029  0.00  0.00    +0.000 N 
ATOM      2  C   UNL     1       4.493   7.102  17.182  0.00  0.00    +0.000 C 
ATOM      3  O   UNL     1       4.830   7.427  16.053  0.00  0.00    +0.000 OA
ATOM      4  H   UNL     1       4.892   6.141  18.971  0.00  0.00    +0.000 HD
ENDROOT
BRANCH   1   5
ATOM      5  C   UNL     1       6.497   5.727  17.606  0.00  0.00    +0.000 C 
ATOM      6  C   UNL     1       7.610   6.779  17.606  0.00  0.00    +0.000 C 
BRANCH   5  11
ATOM      7  C   UNL     1       5.995   3.276  12.326  0.00  0.00    +0.000 C 
ATOM      8  C   UNL     1       6.139   3.882  13.691  0.00  0.00    +0.000 A 
ATOM      9  C   UNL     1       7.135   4.824  13.955  0.00  0.00    +0.000 A 
ATOM     10  C   UNL     1       7.253   5.395  15.224  0.00  0.00    +0.000 A 
ATOM     11  C   UNL     1       6.373   5.041  16.258  0.00  0.00    +0.000 A 
ATOM     12  C   UNL     1       5.388   4.077  15.995  0.00  0.00    +0.000 A 
ATOM     13  C   UNL     1       5.272   3.505  14.723  0.00  0.00    +0.000 A 
ENDBRANCH   5  11
ENDBRANCH   1   5
BRANCH   2  14
ATOM     14  C   UNL     1       3.139   7.553  17.754  0.00  0.00    +0.000 C 
ATOM     15  O   UNL     1       2.622   8.546  17.246  0.00  0.00    +0.000 OA
BRANCH  14  16
ATOM     16  C   UNL     1       2.568   6.859  18.909  0.00  0.00    +0.000 A 
ATOM     17  C   UNL     1       2.146   7.461  20.084  0.00  0.00    +0.000 A 
ATOM     18  N   UNL     1       1.638   6.502  20.912  0.00  0.00    +0.000 N 
ATOM     19  C   UNL     1       1.711   5.268  20.310  0.00  0.00    +0.000 A 
ATOM     20  C   UNL     1       1.298   4.019  20.783  0.00  0.00    +0.000 A 
ATOM     21  C   UNL     1       1.507   2.912  19.956  0.00  0.00    +0.000 A 
ATOM     22  C   UNL     1       2.111   3.062  18.711  0.00  0.00    +0.000 A 
ATOM     23 CL   UNL     1       2.364   1.672  17.723  0.00  0.00    +0.000 Cl
ATOM     24  C   UNL     1       2.515   4.319  18.246  0.00  0.00    +0.000 A 
ATOM     25  C   UNL     1       2.307   5.454  19.059  0.00  0.00    +0.000 A 
ATOM     26  H   UNL     1       1.261   6.668  21.837  0.00  0.00    +0.000 HD
ENDBRANCH  14  16
ENDBRANCH   2  14
TORSDOF 4
ENDMDL
MODEL 7
REMARK VINA RESULT:      -7.8      3.376      8.225
REMARK  Name = 
REMARK  6 active torsions:
REMARK  status: ('A' for Active; 'I' for Inactive)
REMARK    1  A    between atoms: C_1  and  C_2
REMARK    2  A    between atoms: C_5  and  C_6
REMARK    3  A    between atoms: C_6  and  C_7
REMARK    4  A    between atoms: C_6  and  N_8
REMARK    5  A    between atoms: C_9  and  C_11
REMARK    6  A    between atoms: C_11  and  C_13
REMARK                            x       y       z     vdW  Elec       q    Type
REMARK                         _______ _______ _______ _____ _____    ______ ____
ROOT
ATOM      1  N   UNL     1       4.633   6.056  17.702  0.00  0.00    +0.000 N 
ATOM      2  C   UNL     1       4.187   5.792  18.984  0.00  0.00    +0.000 C 
ATOM      3  O   UNL     1       4.874   5.329  19.883  0.00  0.00    +0.000 OA
ATOM      4  H   UNL     1       3.964   6.379  17.012  0.00  0.00    +0.000 HD
ENDROOT
BRANCH   1   5
ATOM      5  C   UNL     1       6.015   5.832  17.328  0.00  0.00    +0.000 C 
ATOM      6  C   UNL     1       6.820   7.135  17.360  0.00  0.00    +0.000 C 
BRANCH   5  11
ATOM      7  C   UNL     1       6.445   3.358  12.052  0.00  0.00    +0.000 C 
ATOM      8  C   UNL     1       6.344   3.968  13.419  0.00  0.00    +0.000 A 
ATOM      9  C   UNL     1       7.373   4.763  13.927  0.00  0.00    +0.000 A 
ATOM     10  C   UNL     1       7.265   5.340  15.195  0.00  0.00    +0.000 A 
ATOM     11  C   UNL     1       6.120   5.140  15.982  0.00  0.00    +0.000 A 
ATOM     12  C   UNL     1       5.099   4.322  15.477  0.00  0.00    +0.000 A 
ATOM     13  C   UNL     1       5.210   3.744  14.208  0.00  0.00    +0.000 A 
ENDBRANCH   5  11
ENDBRANCH   1   5
BRANCH   2  14
ATOM     14  C   UNL     1       2.717   6.166  19.237  0.00  0.00    +0.000 C 
ATOM     15  O   UNL     1       1.965   5.263  19.595  0.00  0.00    +0.000 OA
BRANCH  14  16
ATOM     16  C   UNL     1       2.255   7.529  18.966  0.00  0.00    +0.000 A 
ATOM     17  C   UNL     1       2.363   8.190  17.752  0.00  0.00    +0.000 A 
ATOM     18  N   UNL     1       1.788   9.423  17.871  0.00  0.00    +0.000 N 
ATOM     19  C   UNL     1       1.296   9.597  19.143  0.00  0.00    +0.000 A 
ATOM     20  C   UNL     1       0.623  10.690  19.698  0.00  0.00    +0.000 A 
ATOM     21  C   UNL     1       0.241  10.602  21.039  0.00  0.00    +0.000 A 
ATOM     22  C   UNL     1       0.531   9.463  21.786  0.00  0.00    +0.000 A 
ATOM     23 CL   UNL     1       0.055   9.395  23.441  0.00  0.00    +0.000 Cl
ATOM     24  C   UNL     1       1.200   8.373  21.217  0.00  0.00    +0.000 A 
ATOM     25  C   UNL     1       1.589   8.433  19.861  0.00  0.00    +0.000 A 
ATOM     26  H   UNL     1       1.730  10.114  17.134  0.00  0.00    +0.000 HD
ENDBRANCH  14  16
ENDBRANCH   2  14
TORSDOF 4
ENDMDL
MODEL 8
REMARK VINA RESULT:      -7.7      3.157      5.189
REMARK  Name = 
REMARK  6 active torsions:
REMARK  status: ('A' for Active; 'I' for Inactive)
REMARK    1  A    between atoms: C_1  and  C_2
REMARK    2  A    between atoms: C_5  and  C_6
REMARK    3  A    between atoms: C_6  and  C_7
REMARK    4  A    between atoms: C_6  and  N_8
REMARK    5  A    between atoms: C_9  and  C_11
REMARK    6  A    between atoms: C_11  and  C_13
REMARK                            x       y       z     vdW  Elec       q    Type
REMARK                         _______ _______ _______ _____ _____    ______ ____
ROOT
ATOM      1  N   UNL     1       1.004   9.501  19.292  0.00  0.00    +0.000 N 
ATOM      2  C   UNL     1       1.772   8.639  18.530  0.00  0.00    +0.000 C 
ATOM      3  O   UNL     1       2.167   8.870  17.397  0.00  0.00    +0.000 OA
ATOM      4  H   UNL     1       0.673   9.186  20.197  0.00  0.00    +0.000 HD
ENDROOT
BRANCH   1   5
ATOM      5  C   UNL     1       0.630  10.810  18.795  0.00  0.00    +0.000 C 
ATOM      6  C   UNL     1       1.047  11.916  19.769  0.00  0.00    +0.000 C 
BRANCH   5  11
ATOM      7  C   UNL     1      -5.115  11.061  17.753  0.00  0.00    +0.000 C 
ATOM      8  C   UNL     1      -3.635  11.010  17.995  0.00  0.00    +0.000 A 
ATOM      9  C   UNL     1      -3.007  11.965  18.797  0.00  0.00    +0.000 A 
ATOM     10  C   UNL     1      -1.631  11.902  19.030  0.00  0.00    +0.000 A 
ATOM     11  C   UNL     1      -0.851  10.878  18.471  0.00  0.00    +0.000 A 
ATOM     12  C   UNL     1      -1.483   9.934  17.647  0.00  0.00    +0.000 A 
ATOM     13  C   UNL     1      -2.861  10.000  17.414  0.00  0.00    +0.000 A 
ENDBRANCH   5  11
ENDBRANCH   1   5
BRANCH   2  14
ATOM     14  C   UNL     1       2.151   7.329  19.239  0.00  0.00    +0.000 C 
ATOM     15  O   UNL     1       2.125   7.331  20.467  0.00  0.00    +0.000 OA
BRANCH  14  16
ATOM     16  C   UNL     1       2.604   6.180  18.453  0.00  0.00    +0.000 A 
ATOM     17  C   UNL     1       1.826   5.089  18.097  0.00  0.00    +0.000 A 
ATOM     18  N   UNL     1       2.578   4.242  17.335  0.00  0.00    +0.000 N 
ATOM     19  C   UNL     1       3.846   4.749  17.173  0.00  0.00    +0.000 A 
ATOM     20  C   UNL     1       4.931   4.227  16.463  0.00  0.00    +0.000 A 
ATOM     21  C   UNL     1       6.124   4.954  16.477  0.00  0.00    +0.000 A 
ATOM     22  C   UNL     1       6.216   6.152  17.182  0.00  0.00    +0.000 A 
ATOM     23 CL   UNL     1       7.707   7.016  17.186  0.00  0.00    +0.000 Cl
ATOM     24  C   UNL     1       5.120   6.667  17.884  0.00  0.00    +0.000 A 
ATOM     25  C   UNL     1       3.901   5.955  17.878  0.00  0.00    +0.000 A 
ATOM     26  H   UNL     1       2.255   3.366  16.943  0.00  0.00    +0.000 HD
ENDBRANCH  14  16
ENDBRANCH   2  14
TORSDOF 4
ENDMDL
MODEL 9
REMARK VINA RESULT:      -7.7      1.840      3.017
REMARK  Name = 
REMARK  6 active torsions:
REMARK  status: ('A' for Active; 'I' for Inactive)
REMARK    1  A    between atoms: C_1  and  C_2
REMARK    2  A    between atoms: C_5  and  C_6
REMARK    3  A    between atoms: C_6  and  C_7
REMARK    4  A    between atoms: C_6  and  N_8
REMARK    5  A    between atoms: C_9  and  C_11
REMARK    6  A    between atoms: C_11  and  C_13
REMARK                            x       y       z     vdW  Elec       q    Type
REMARK                         _______ _______ _______ _____ _____    ______ ____
ROOT
ATOM      1  N   UNL     1       2.634   7.007  18.998  0.00  0.00    +0.000 N 
ATOM      2  C   UNL     1       2.403   5.702  18.603  0.00  0.00    +0.000 C 
ATOM      3  O   UNL     1       1.474   5.339  17.896  0.00  0.00    +0.000 OA
ATOM      4  H   UNL     1       3.397   7.192  19.640  0.00  0.00    +0.000 HD
ENDROOT
BRANCH   1   5
ATOM      5  C   UNL     1       1.778   8.088  18.551  0.00  0.00    +0.000 C 
ATOM      6  C   UNL     1       2.542   9.070  17.656  0.00  0.00    +0.000 C 
BRANCH   5  11
ATOM      7  C   UNL     1      -0.862  10.622  23.107  0.00  0.00    +0.000 C 
ATOM      8  C   UNL     1      -0.163   9.991  21.939  0.00  0.00    +0.000 A 
ATOM      9  C   UNL     1       0.639   8.860  22.110  0.00  0.00    +0.000 A 
ATOM     10  C   UNL     1       1.274   8.270  21.015  0.00  0.00    +0.000 A 
ATOM     11  C   UNL     1       1.119   8.793  19.722  0.00  0.00    +0.000 A 
ATOM     12  C   UNL     1       0.332   9.943  19.559  0.00  0.00    +0.000 A 
ATOM     13  C   UNL     1      -0.303  10.534  20.657  0.00  0.00    +0.000 A 
ENDBRANCH   5  11
ENDBRANCH   1   5
BRANCH   2  14
ATOM     14  C   UNL     1       3.453   4.692  19.095  0.00  0.00    +0.000 C 
ATOM     15  O   UNL     1       3.074   3.841  19.897  0.00  0.00    +0.000 OA
BRANCH  14  16
ATOM     16  C   UNL     1       4.848   4.828  18.674  0.00  0.00    +0.000 A 
ATOM     17  C   UNL     1       5.917   5.120  19.507  0.00  0.00    +0.000 A 
ATOM     18  N   UNL     1       7.064   5.126  18.765  0.00  0.00    +0.000 N 
ATOM     19  C   UNL     1       6.779   4.841  17.450  0.00  0.00    +0.000 A 
ATOM     20  C   UNL     1       7.642   4.729  16.355  0.00  0.00    +0.000 A 
ATOM     21  C   UNL     1       7.075   4.438  15.112  0.00  0.00    +0.000 A 
ATOM     22  C   UNL     1       5.698   4.274  14.982  0.00  0.00    +0.000 A 
ATOM     23 CL   UNL     1       5.033   3.927  13.430  0.00  0.00    +0.000 Cl
ATOM     24  C   UNL     1       4.846   4.382  16.087  0.00  0.00    +0.000 A 
ATOM     25  C   UNL     1       5.395   4.666  17.356  0.00  0.00    +0.000 A 
ATOM     26  H   UNL     1       7.991   5.313  19.125  0.00  0.00    +0.000 HD
ENDBRANCH  14  16
ENDBRANCH   2  14
TORSDOF 4
ENDMDL
