MODEL 1
REMARK VINA RESULT:      -8.9      0.000      0.000
REMARK  Name = 
REMARK  8 active torsions:
REMARK  status: ('A' for Active; 'I' for Inactive)
REMARK    1  A    between atoms: C_1  and  N_2
REMARK    2  A    between atoms: N_2  and  C_3
REMARK    3  A    between atoms: N_2  and  C_4
REMARK    4  A    between atoms: C_7  and  N_8
REMARK    5  A    between atoms: C_11  and  C_12
REMARK    6  A    between atoms: C_16  and  N_17
REMARK    7  A    between atoms: N_17  and  C_18
REMARK    8  A    between atoms: C_18  and  C_19
REMARK                            x       y       z     vdW  Elec       q    Type
REMARK                         _______ _______ _______ _____ _____    ______ ____
ROOT
ATOM      1  N   UNL     1       0.440  10.295  17.740  0.00  0.00    +0.000 N 
ATOM      2  C   UNL     1       1.133   9.310  18.448  0.00  0.00    +0.000 A 
ATOM      3  C   UNL     1       2.159   8.627  17.792  0.00  0.00    +0.000 A 
ATOM      4  C   UNL     1       2.790   7.499  18.372  0.00  0.00    +0.000 A 
ATOM      5  C   UNL     1       2.430   7.201  19.692  0.00  0.00    +0.000 A 
ATOM      6 CL   UNL     1       3.050   5.882  20.617  0.00  0.00    +0.000 Cl
ATOM      7  C   UNL     1       1.447   7.980  20.300  0.00  0.00    +0.000 A 
ATOM      8  N   UNL     1       0.780   8.993  19.699  0.00  0.00    +0.000 NA
ATOM      9  H   UNL     1       1.018  11.103  17.550  0.00  0.00    +0.000 HD
ENDROOT
BRANCH   1  13
ATOM     10  C   UNL     1      -3.742  11.570  17.765  0.00  0.00    +0.000 C 
ATOM     11  C   UNL     1      -2.701  12.280  18.669  0.00  0.00    +0.000 C 
ATOM     12  C   UNL     1      -1.258  12.069  18.199  0.00  0.00    +0.000 C 
ATOM     13  C   UNL     1      -0.931  10.578  18.163  0.00  0.00    +0.000 C 
ATOM     14  C   UNL     1      -1.883   9.894  17.178  0.00  0.00    +0.000 C 
ATOM     15  C   UNL     1      -3.343  10.084  17.592  0.00  0.00    +0.000 C 
BRANCH  10  17
ATOM     16  C   UNL     1      -5.998  12.491  17.435  0.00  0.00    +0.000 C 
ATOM     17  N   UNL     1      -5.124  11.696  18.305  0.00  0.00    +0.000 NA
ATOM     18  C   UNL     1      -5.154  12.281  19.650  0.00  0.00    +0.000 C 
ENDBRANCH  10  17
ENDBRANCH   1  13
BRANCH   4  19
ATOM     19  C   UNL     1       3.704   6.669  17.543  0.00  0.00    +0.000 A 
ATOM     20  C   UNL     1       4.393   7.216  16.458  0.00  0.00    +0.000 A 
ATOM     21  C   UNL     1       5.239   6.415  15.703  0.00  0.00    +0.000 A 
ATOM     22  C   UNL     1       5.363   5.079  16.039  0.00  0.00    +0.000 A 
ATOM     23  C   UNL     1       4.623   4.568  17.100  0.00  0.00    +0.000 A 
ATOM     24  N   UNL     1       3.822   5.352  17.856  0.00  0.00    +0.000 NA
BRANCH  23  25
ATOM     25  N   UNL     1       4.703   3.188  17.308  0.00  0.00    +0.000 N 
ATOM     26  H   UNL     1       5.216   2.985  18.159  0.00  0.00    +0.000 HD
BRANCH  25  27
ATOM     27  C   UNL     1       3.482   2.419  17.177  0.00  0.00    +0.000 C 
BRANCH  27  28
ATOM     28  C   UNL     1       2.710   2.580  18.472  0.00  0.00    +0.000 A 
ATOM     29  C   UNL     1       1.335   2.876  18.439  0.00  0.00    +0.000 A 
ATOM     30  C   UNL     1       0.593   2.974  19.619  0.00  0.00    +0.000 A 
ATOM     31  C   UNL     1       1.213   2.767  20.848  0.00  0.00    +0.000 A 
ATOM     32  C   UNL     1       2.570   2.458  20.884  0.00  0.00    +0.000 A 
ATOM     33  F   UNL     1       3.163   2.243  22.065  0.00  0.00    +0.000 F 
ATOM     34  C   UNL     1       3.322   2.361  19.714  0.00  0.00    +0.000 A 
ENDBRANCH  27  28
ENDBRANCH  25  27
ENDBRANCH  23  25
ENDBRANCH   4  19
TORSDOF 6
ENDMDL
MODEL 2
REMARK VINA RESULT:      -8.5      0.835      1.193
REMARK  Name = 
REMARK  8 active torsions:
REMARK  status: ('A' for Active; 'I' for Inactive)
REMARK    1  A    between atoms: C_1  and  N_2
REMARK    2  A    between atoms: N_2  and  C_3
REMARK    3  A    between atoms: N_2  and  C_4
REMARK    4  A    between atoms: C_7  and  N_8
REMARK    5  A    between atoms: C_11  and  C_12
REMARK    6  A    between atoms: C_16  and  N_17
REMARK    7  A    between atoms: N_17  and  C_18
REMARK    8  A    between atoms: C_18  and  C_19
REMARK                            x       y       z     vdW  Elec       q    Type
REMARK                         _______ _______ _______ _____ _____    ______ ____
ROOT
ATOM      1  N   UNL     1       0.418  10.412  18.034  0.00  0.00    +0.000 N 
ATOM      2  C   UNL     1       1.077   9.379  18.703  0.00  0.00    +0.000 A 
ATOM      3  C   UNL     1       2.140   8.748  18.056  0.00  0.00    +0.000 A 
ATOM      4  C   UNL     1       2.745   7.581  18.585  0.00  0.00    +0.000 A 
ATOM      5  C   UNL     1       2.316   7.186  19.858  0.00  0.00    +0.000 A 
ATOM      6 CL   UNL     1       2.892   5.803  20.716  0.00  0.00    +0.000 Cl
ATOM      7  C   UNL     1       1.298   7.916  20.467  0.00  0.00    +0.000 A 
ATOM      8  N   UNL     1       0.659   8.970  19.907  0.00  0.00    +0.000 NA
ATOM      9  H   UNL     1       1.002  11.233  17.934  0.00  0.00    +0.000 HD
ENDROOT
BRANCH   1  13
ATOM     10  C   UNL     1      -3.765  11.682  17.928  0.00  0.00    +0.000 C 
ATOM     11  C   UNL     1      -2.778  12.320  18.939  0.00  0.00    +0.000 C 
ATOM     12  C   UNL     1      -1.310  12.146  18.534  0.00  0.00    +0.000 C 
ATOM     13  C   UNL     1      -0.975  10.662  18.401  0.00  0.00    +0.000 C 
ATOM     14  C   UNL     1      -1.870  10.056  17.315  0.00  0.00    +0.000 C 
ATOM     15  C   UNL     1      -3.350  10.214  17.662  0.00  0.00    +0.000 C 
BRANCH  10  17
ATOM     16  C   UNL     1      -6.081  12.290  17.371  0.00  0.00    +0.000 C 
ATOM     17  N   UNL     1      -5.174  11.765  18.399  0.00  0.00    +0.000 NA
ATOM     18  C   UNL     1      -5.319  12.587  19.606  0.00  0.00    +0.000 C 
ENDBRANCH  10  17
ENDBRANCH   1  13
BRANCH   4  19
ATOM     19  C   UNL     1       3.707   6.815  17.748  0.00  0.00    +0.000 A 
ATOM     20  C   UNL     1       4.219   7.349  16.564  0.00  0.00    +0.000 A 
ATOM     21  C   UNL     1       5.115   6.609  15.804  0.00  0.00    +0.000 A 
ATOM     22  C   UNL     1       5.465   5.342  16.237  0.00  0.00    +0.000 A 
ATOM     23  C   UNL     1       4.894   4.834  17.399  0.00  0.00    +0.000 A 
ATOM     24  N   UNL     1       4.045   5.564  18.157  0.00  0.00    +0.000 NA
BRANCH  23  25
ATOM     25  N   UNL     1       5.197   3.506  17.711  0.00  0.00    +0.000 N 
ATOM     26  H   UNL     1       5.619   3.444  18.632  0.00  0.00    +0.000 HD
BRANCH  25  27
ATOM     27  C   UNL     1       4.165   2.513  17.485  0.00  0.00    +0.000 C 
BRANCH  27  28
ATOM     28  C   UNL     1       3.291   2.485  18.724  0.00  0.00    +0.000 A 
ATOM     29  C   UNL     1       3.875   2.305  19.992  0.00  0.00    +0.000 A 
ATOM     30  C   UNL     1       3.096   2.332  21.151  0.00  0.00    +0.000 A 
ATOM     31  C   UNL     1       1.723   2.549  21.060  0.00  0.00    +0.000 A 
ATOM     32  C   UNL     1       1.145   2.743  19.809  0.00  0.00    +0.000 A 
ATOM     33  F   UNL     1      -0.172   2.968  19.722  0.00  0.00    +0.000 F 
ATOM     34  C   UNL     1       1.911   2.716  18.645  0.00  0.00    +0.000 A 
ENDBRANCH  27  28
ENDBRANCH  25  27
ENDBRANCH  23  25
ENDBRANCH   4  19
TORSDOF 6
ENDMDL
MODEL 3
REMARK VINA RESULT:      -8.3      2.797      4.792
REMARK  Name = 
REMARK  8 active torsions:
REMARK  status: ('A' for Active; 'I' for Inactive)
REMARK    1  A    between atoms: C_1  and  N_2
REMARK    2  A    between atoms: N_2  and  C_3
REMARK    3  A    between atoms: N_2  and  C_4
REMARK    4  A    between atoms: C_7  and  N_8
REMARK    5  A    between atoms: C_11  and  C_12
REMARK    6  A    between atoms: C_16  and  N_17
REMARK    7  A    between atoms: N_17  and  C_18
REMARK    8  A    between atoms: C_18  and  C_19
REMARK                            x       y       z     vdW  Elec       q    Type
REMARK                         _______ _______ _______ _____ _____    ______ ____
ROOT
ATOM      1  N   UNL     1       1.437   9.500  18.802  0.00  0.00    +0.000 N 
ATOM      2  C   UNL     1       1.718   8.301  19.461  0.00  0.00    +0.000 A 
ATOM      3  C   UNL     1       2.319   7.274  18.731  0.00  0.00    +0.000 A 
ATOM      4  C   UNL     1       2.475   5.973  19.269  0.00  0.00    +0.000 A 
ATOM      5  C   UNL     1       2.127   5.816  20.616  0.00  0.00    +0.000 A 
ATOM      6 CL   UNL     1       2.221   4.336  21.501  0.00  0.00    +0.000 Cl
ATOM      7  C   UNL     1       1.601   6.914  21.294  0.00  0.00    +0.000 A 
ATOM      8  N   UNL     1       1.364   8.126  20.740  0.00  0.00    +0.000 NA
ATOM      9  H   UNL     1       2.280  10.005  18.558  0.00  0.00    +0.000 HD
ENDROOT
BRANCH   1  13
ATOM     10  C   UNL     1      -1.543  12.655  19.337  0.00  0.00    +0.000 C 
ATOM     11  C   UNL     1      -0.415  12.458  20.382  0.00  0.00    +0.000 C 
ATOM     12  C   UNL     1       0.786  11.684  19.827  0.00  0.00    +0.000 C 
ATOM     13  C   UNL     1       0.341  10.310  19.331  0.00  0.00    +0.000 C 
ATOM     14  C   UNL     1      -0.688  10.506  18.214  0.00  0.00    +0.000 C 
ATOM     15  C   UNL     1      -1.906  11.287  18.709  0.00  0.00    +0.000 C 
BRANCH  10  17
ATOM     16  C   UNL     1      -2.521  13.740  21.314  0.00  0.00    +0.000 C 
ATOM     17  N   UNL     1      -2.742  13.309  19.929  0.00  0.00    +0.000 NA
ATOM     18  C   UNL     1      -3.929  12.448  19.896  0.00  0.00    +0.000 C 
ENDBRANCH  10  17
ENDBRANCH   1  13
BRANCH   4  19
ATOM     19  C   UNL     1       2.901   4.862  18.376  0.00  0.00    +0.000 A 
ATOM     20  C   UNL     1       2.042   3.801  18.083  0.00  0.00    +0.000 A 
ATOM     21  C   UNL     1       2.469   2.779  17.246  0.00  0.00    +0.000 A 
ATOM     22  C   UNL     1       3.755   2.831  16.737  0.00  0.00    +0.000 A 
ATOM     23  C   UNL     1       4.590   3.884  17.093  0.00  0.00    +0.000 A 
ATOM     24  N   UNL     1       4.166   4.897  17.883  0.00  0.00    +0.000 NA
BRANCH  23  25
ATOM     25  N   UNL     1       5.911   3.810  16.642  0.00  0.00    +0.000 N 
ATOM     26  H   UNL     1       6.048   2.980  16.075  0.00  0.00    +0.000 HD
BRANCH  25  27
ATOM     27  C   UNL     1       6.487   5.006  16.059  0.00  0.00    +0.000 C 
BRANCH  27  28
ATOM     28  C   UNL     1       6.655   4.743  14.575  0.00  0.00    +0.000 A 
ATOM     29  C   UNL     1       7.657   5.417  13.851  0.00  0.00    +0.000 A 
ATOM     30  C   UNL     1       7.866   5.149  12.496  0.00  0.00    +0.000 A 
ATOM     31  C   UNL     1       7.084   4.197  11.847  0.00  0.00    +0.000 A 
ATOM     32  C   UNL     1       6.103   3.518  12.564  0.00  0.00    +0.000 A 
ATOM     33  F   UNL     1       5.362   2.590  11.944  0.00  0.00    +0.000 F 
ATOM     34  C   UNL     1       5.882   3.777  13.915  0.00  0.00    +0.000 A 
ENDBRANCH  27  28
ENDBRANCH  25  27
ENDBRANCH  23  25
ENDBRANCH   4  19
TORSDOF 6
ENDMDL
MODEL 4
REMARK VINA RESULT:      -8.3      0.785      1.320
REMARK  Name = 
REMARK  8 active torsions:
REMARK  status: ('A' for Active; 'I' for Inactive)
REMARK    1  A    between atoms: C_1  and  N_2
REMARK    2  A    between atoms: N_2  and  C_3
REMARK    3  A    between atoms: N_2  and  C_4
REMARK    4  A    between atoms: C_7  and  N_8
REMARK    5  A    between atoms: C_11  and  C_12
REMARK    6  A    between atoms: C_16  and  N_17
REMARK    7  A    between atoms: N_17  and  C_18
REMARK    8  A    between atoms: C_18  and  C_19
REMARK                            x       y       z     vdW  Elec       q    Type
REMARK                         _______ _______ _______ _____ _____    ______ ____
ROOT
ATOM      1  N   UNL     1       0.313  10.469  18.053  0.00  0.00    +0.000 N 
ATOM      2  C   UNL     1       0.965   9.442  18.739  0.00  0.00    +0.000 A 
ATOM      3  C   UNL     1       1.979   8.748  18.076  0.00  0.00    +0.000 A 
ATOM      4  C   UNL     1       2.567   7.584  18.629  0.00  0.00    +0.000 A 
ATOM      5  C   UNL     1       2.179   7.256  19.934  0.00  0.00    +0.000 A 
ATOM      6 CL   UNL     1       2.745   5.891  20.826  0.00  0.00    +0.000 Cl
ATOM      7  C   UNL     1       1.212   8.046  20.552  0.00  0.00    +0.000 A 
ATOM      8  N   UNL     1       0.585   9.097  19.975  0.00  0.00    +0.000 NA
ATOM      9  H   UNL     1       0.918  11.264  17.895  0.00  0.00    +0.000 HD
ENDROOT
BRANCH   1  13
ATOM     10  C   UNL     1      -3.828  11.874  18.062  0.00  0.00    +0.000 C 
ATOM     11  C   UNL     1      -2.779  12.522  19.002  0.00  0.00    +0.000 C 
ATOM     12  C   UNL     1      -1.335  12.280  18.546  0.00  0.00    +0.000 C 
ATOM     13  C   UNL     1      -1.054  10.782  18.466  0.00  0.00    +0.000 C 
ATOM     14  C   UNL     1      -2.013  10.160  17.445  0.00  0.00    +0.000 C 
ATOM     15  C   UNL     1      -3.472  10.383  17.845  0.00  0.00    +0.000 C 
BRANCH  10  17
ATOM     16  C   UNL     1      -5.268  11.984  20.051  0.00  0.00    +0.000 C 
ATOM     17  N   UNL     1      -5.213  12.026  18.586  0.00  0.00    +0.000 NA
ATOM     18  C   UNL     1      -6.130  11.009  18.059  0.00  0.00    +0.000 C 
ENDBRANCH  10  17
ENDBRANCH   1  13
BRANCH   4  19
ATOM     19  C   UNL     1       3.467   6.752  17.787  0.00  0.00    +0.000 A 
ATOM     20  C   UNL     1       4.499   7.329  17.043  0.00  0.00    +0.000 A 
ATOM     21  C   UNL     1       5.322   6.524  16.266  0.00  0.00    +0.000 A 
ATOM     22  C   UNL     1       5.083   5.162  16.236  0.00  0.00    +0.000 A 
ATOM     23  C   UNL     1       4.016   4.638  16.958  0.00  0.00    +0.000 A 
ATOM     24  N   UNL     1       3.232   5.414  17.740  0.00  0.00    +0.000 NA
BRANCH  23  25
ATOM     25  N   UNL     1       3.758   3.275  16.787  0.00  0.00    +0.000 N 
ATOM     26  H   UNL     1       4.570   2.724  17.045  0.00  0.00    +0.000 HD
BRANCH  25  27
ATOM     27  C   UNL     1       2.517   2.755  17.324  0.00  0.00    +0.000 C 
BRANCH  27  28
ATOM     28  C   UNL     1       2.722   2.557  18.813  0.00  0.00    +0.000 A 
ATOM     29  C   UNL     1       4.015   2.329  19.320  0.00  0.00    +0.000 A 
ATOM     30  C   UNL     1       4.235   2.199  20.694  0.00  0.00    +0.000 A 
ATOM     31  C   UNL     1       3.167   2.303  21.581  0.00  0.00    +0.000 A 
ATOM     32  C   UNL     1       1.889   2.543  21.084  0.00  0.00    +0.000 A 
ATOM     33  F   UNL     1       0.864   2.661  21.938  0.00  0.00    +0.000 F 
ATOM     34  C   UNL     1       1.656   2.673  19.716  0.00  0.00    +0.000 A 
ENDBRANCH  27  28
ENDBRANCH  25  27
ENDBRANCH  23  25
ENDBRANCH   4  19
TORSDOF 6
ENDMDL
MODEL 5
REMARK VINA RESULT:      -8.2      2.247      3.952
REMARK  Name = 
REMARK  8 active torsions:
REMARK  status: ('A' for Active; 'I' for Inactive)
REMARK    1  A    between atoms: C_1  and  N_2
REMARK    2  A    between atoms: N_2  and  C_3
REMARK    3  A    between atoms: N_2  and  C_4
REMARK    4  A    between atoms: C_7  and  N_8
REMARK    5  A    between atoms: C_11  and  C_12
REMARK    6  A    between atoms: C_16  and  N_17
REMARK    7  A    between atoms: N_17  and  C_18
REMARK    8  A    between atoms: C_18  and  C_19
REMARK                            x       y       z     vdW  Elec       q    Type
REMARK                         _______ _______ _______ _____ _____    ______ ____
ROOT
ATOM      1  N   UNL     1       1.578   9.371  18.836  0.00  0.00    +0.000 N 
ATOM      2  C   UNL     1       1.797   8.152  19.480  0.00  0.00    +0.000 A 
ATOM      3  C   UNL     1       2.479   7.152  18.784  0.00  0.00    +0.000 A 
ATOM      4  C   UNL     1       2.587   5.834  19.292  0.00  0.00    +0.000 A 
ATOM      5  C   UNL     1       2.101   5.632  20.591  0.00  0.00    +0.000 A 
ATOM      6 CL   UNL     1       2.112   4.123  21.431  0.00  0.00    +0.000 Cl
ATOM      7  C   UNL     1       1.499   6.704  21.244  0.00  0.00    +0.000 A 
ATOM      8  N   UNL     1       1.312   7.933  20.708  0.00  0.00    +0.000 NA
ATOM      9  H   UNL     1       2.438   9.887  18.697  0.00  0.00    +0.000 HD
ENDROOT
BRANCH   1  13
ATOM     10  C   UNL     1      -1.670  12.295  18.976  0.00  0.00    +0.000 C 
ATOM     11  C   UNL     1      -0.496  12.379  19.985  0.00  0.00    +0.000 C 
ATOM     12  C   UNL     1       0.755  11.631  19.512  0.00  0.00    +0.000 C 
ATOM     13  C   UNL     1       0.427  10.159  19.273  0.00  0.00    +0.000 C 
ATOM     14  C   UNL     1      -0.650  10.071  18.187  0.00  0.00    +0.000 C 
ATOM     15  C   UNL     1      -1.920  10.814  18.601  0.00  0.00    +0.000 C 
BRANCH  10  17
ATOM     16  C   UNL     1      -2.864  13.119  20.961  0.00  0.00    +0.000 C 
ATOM     17  N   UNL     1      -2.906  12.932  19.506  0.00  0.00    +0.000 NA
ATOM     18  C   UNL     1      -4.119  12.176  19.173  0.00  0.00    +0.000 C 
ENDBRANCH  10  17
ENDBRANCH   1  13
BRANCH   4  19
ATOM     19  C   UNL     1       3.111   4.755  18.414  0.00  0.00    +0.000 A 
ATOM     20  C   UNL     1       2.876   3.409  18.703  0.00  0.00    +0.000 A 
ATOM     21  C   UNL     1       3.380   2.425  17.863  0.00  0.00    +0.000 A 
ATOM     22  C   UNL     1       4.124   2.809  16.762  0.00  0.00    +0.000 A 
ATOM     23  C   UNL     1       4.371   4.159  16.539  0.00  0.00    +0.000 A 
ATOM     24  N   UNL     1       3.856   5.121  17.338  0.00  0.00    +0.000 NA
BRANCH  23  25
ATOM     25  N   UNL     1       5.230   4.469  15.482  0.00  0.00    +0.000 N 
ATOM     26  H   UNL     1       5.045   5.404  15.135  0.00  0.00    +0.000 HD
BRANCH  25  27
ATOM     27  C   UNL     1       6.642   4.192  15.662  0.00  0.00    +0.000 C 
BRANCH  27  28
ATOM     28  C   UNL     1       7.159   5.162  16.706  0.00  0.00    +0.000 A 
ATOM     29  C   UNL     1       7.068   6.548  16.482  0.00  0.00    +0.000 A 
ATOM     30  C   UNL     1       7.487   7.461  17.454  0.00  0.00    +0.000 A 
ATOM     31  C   UNL     1       7.994   7.001  18.666  0.00  0.00    +0.000 A 
ATOM     32  C   UNL     1       8.070   5.630  18.897  0.00  0.00    +0.000 A 
ATOM     33  F   UNL     1       8.541   5.187  20.069  0.00  0.00    +0.000 F 
ATOM     34  C   UNL     1       7.658   4.709  17.935  0.00  0.00    +0.000 A 
ENDBRANCH  27  28
ENDBRANCH  25  27
ENDBRANCH  23  25
ENDBRANCH   4  19
TORSDOF 6
ENDMDL
MODEL 6
REMARK VINA RESULT:      -8.2      2.631      4.310
REMARK  Name = 
REMARK  8 active torsions:
REMARK  status: ('A' for Active; 'I' for Inactive)
REMARK    1  A    between atoms: C_1  and  N_2
REMARK    2  A    between atoms: N_2  and  C_3
REMARK    3  A    between atoms: N_2  and  C_4
REMARK    4  A    between atoms: C_7  and  N_8
REMARK    5  A    between atoms: C_11  and  C_12
REMARK    6  A    between atoms: C_16  and  N_17
REMARK    7  A    between atoms: N_17  and  C_18
REMARK    8  A    between atoms: C_18  and  C_19
REMARK                            x       y       z     vdW  Elec       q    Type
REMARK                         _______ _______ _______ _____ _____    ______ ____
ROOT
ATOM      1  N   UNL     1       1.471   9.950  17.831  0.00  0.00    +0.000 N 
ATOM      2  C   UNL     1       1.720   8.850  18.655  0.00  0.00    +0.000 A 
ATOM      3  C   UNL     1       2.226   7.689  18.068  0.00  0.00    +0.000 A 
ATOM      4  C   UNL     1       2.339   6.477  18.795  0.00  0.00    +0.000 A 
ATOM      5  C   UNL     1       2.054   6.550  20.164  0.00  0.00    +0.000 A 
ATOM      6 CL   UNL     1       2.114   5.219  21.263  0.00  0.00    +0.000 Cl
ATOM      7  C   UNL     1       1.625   7.769  20.685  0.00  0.00    +0.000 A 
ATOM      8  N   UNL     1       1.425   8.894  19.960  0.00  0.00    +0.000 NA
ATOM      9  H   UNL     1       2.326  10.358  17.475  0.00  0.00    +0.000 HD
ENDROOT
BRANCH   1  13
ATOM     10  C   UNL     1      -1.483  12.071  20.258  0.00  0.00    +0.000 C 
ATOM     11  C   UNL     1      -1.921  11.307  18.982  0.00  0.00    +0.000 C 
ATOM     12  C   UNL     1      -0.905  10.247  18.541  0.00  0.00    +0.000 C 
ATOM     13  C   UNL     1       0.450  10.897  18.275  0.00  0.00    +0.000 C 
ATOM     14  C   UNL     1       0.939  11.551  19.572  0.00  0.00    +0.000 C 
ATOM     15  C   UNL     1      -0.045  12.611  20.066  0.00  0.00    +0.000 C 
BRANCH  10  17
ATOM     16  C   UNL     1      -2.420  13.494  22.031  0.00  0.00    +0.000 C 
ATOM     17  N   UNL     1      -2.428  13.169  20.600  0.00  0.00    +0.000 NA
ATOM     18  C   UNL     1      -3.808  12.871  20.201  0.00  0.00    +0.000 C 
ENDBRANCH  10  17
ENDBRANCH   1  13
BRANCH   4  19
ATOM     19  C   UNL     1       2.656   5.219  18.068  0.00  0.00    +0.000 A 
ATOM     20  C   UNL     1       1.681   4.242  17.856  0.00  0.00    +0.000 A 
ATOM     21  C   UNL     1       2.009   3.077  17.174  0.00  0.00    +0.000 A 
ATOM     22  C   UNL     1       3.310   2.908  16.736  0.00  0.00    +0.000 A 
ATOM     23  C   UNL     1       4.258   3.888  17.010  0.00  0.00    +0.000 A 
ATOM     24  N   UNL     1       3.935   5.037  17.647  0.00  0.00    +0.000 NA
BRANCH  23  25
ATOM     25  N   UNL     1       5.576   3.599  16.647  0.00  0.00    +0.000 N 
ATOM     26  H   UNL     1       5.633   2.682  16.215  0.00  0.00    +0.000 HD
BRANCH  25  27
ATOM     27  C   UNL     1       6.313   4.619  15.928  0.00  0.00    +0.000 C 
BRANCH  27  28
ATOM     28  C   UNL     1       6.944   5.529  16.963  0.00  0.00    +0.000 A 
ATOM     29  C   UNL     1       7.539   4.977  18.114  0.00  0.00    +0.000 A 
ATOM     30  C   UNL     1       8.175   5.792  19.053  0.00  0.00    +0.000 A 
ATOM     31  C   UNL     1       8.235   7.169  18.852  0.00  0.00    +0.000 A 
ATOM     32  C   UNL     1       7.662   7.716  17.707  0.00  0.00    +0.000 A 
ATOM     33  F   UNL     1       7.734   9.037  17.504  0.00  0.00    +0.000 F 
ATOM     34  C   UNL     1       7.021   6.914  16.764  0.00  0.00    +0.000 A 
ENDBRANCH  27  28
ENDBRANCH  25  27
ENDBRANCH  23  25
ENDBRANCH   4  19
TORSDOF 6
ENDMDL
MODEL 7
REMARK VINA RESULT:      -8.2      2.683      4.235
REMARK  Name = 
REMARK  8 active torsions:
REMARK  status: ('A' for Active; 'I' for Inactive)
REMARK    1  A    between atoms: C_1  and  N_2
REMARK    2  A    between atoms: N_2  and  C_3
REMARK    3  A    between atoms: N_2  and  C_4
REMARK    4  A    between atoms: C_7  and  N_8
REMARK    5  A    between atoms: C_11  and  C_12
REMARK    6  A    between atoms: C_16  and  N_17
REMARK    7  A    between atoms: N_17  and  C_18
REMARK    8  A    between atoms: C_18  and  C_19
REMARK                            x       y       z     vdW  Elec       q    Type
REMARK                         _______ _______ _______ _____ _____    ______ ____
ROOT
ATOM      1  N   UNL     1       1.464   9.714  18.929  0.00  0.00    +0.000 N 
ATOM      2  C   UNL     1       1.700   8.472  19.523  0.00  0.00    +0.000 A 
ATOM      3  C   UNL     1       2.275   7.468  18.742  0.00  0.00    +0.000 A 
ATOM      4  C   UNL     1       2.385   6.135  19.209  0.00  0.00    +0.000 A 
ATOM      5  C   UNL     1       2.021   5.916  20.543  0.00  0.00    +0.000 A 
ATOM      6 CL   UNL     1       2.060   4.388  21.346  0.00  0.00    +0.000 Cl
ATOM      7  C   UNL     1       1.524   6.991  21.276  0.00  0.00    +0.000 A 
ATOM      8  N   UNL     1       1.330   8.239  20.788  0.00  0.00    +0.000 NA
ATOM      9  H   UNL     1       2.324  10.204  18.719  0.00  0.00    +0.000 HD
ENDROOT
BRANCH   1  13
ATOM     10  C   UNL     1      -1.512  12.859  19.540  0.00  0.00    +0.000 C 
ATOM     11  C   UNL     1      -0.329  12.697  20.530  0.00  0.00    +0.000 C 
ATOM     12  C   UNL     1       0.848  11.917  19.933  0.00  0.00    +0.000 C 
ATOM     13  C   UNL     1       0.390  10.529  19.495  0.00  0.00    +0.000 C 
ATOM     14  C   UNL     1      -0.697  10.689  18.427  0.00  0.00    +0.000 C 
ATOM     15  C   UNL     1      -1.894  11.473  18.966  0.00  0.00    +0.000 C 
BRANCH  10  17
ATOM     16  C   UNL     1      -2.317  14.742  20.901  0.00  0.00    +0.000 C 
ATOM     17  N   UNL     1      -2.683  13.519  20.178  0.00  0.00    +0.000 NA
ATOM     18  C   UNL     1      -3.397  12.631  21.103  0.00  0.00    +0.000 C 
ENDBRANCH  10  17
ENDBRANCH   1  13
BRANCH   4  19
ATOM     19  C   UNL     1       2.782   5.061  18.260  0.00  0.00    +0.000 A 
ATOM     20  C   UNL     1       2.213   3.787  18.329  0.00  0.00    +0.000 A 
ATOM     21  C   UNL     1       2.606   2.806  17.429  0.00  0.00    +0.000 A 
ATOM     22  C   UNL     1       3.574   3.116  16.490  0.00  0.00    +0.000 A 
ATOM     23  C   UNL     1       4.145   4.384  16.487  0.00  0.00    +0.000 A 
ATOM     24  N   UNL     1       3.743   5.350  17.343  0.00  0.00    +0.000 NA
BRANCH  23  25
ATOM     25  N   UNL     1       5.200   4.589  15.594  0.00  0.00    +0.000 N 
ATOM     26  H   UNL     1       5.186   5.540  15.239  0.00  0.00    +0.000 HD
BRANCH  25  27
ATOM     27  C   UNL     1       6.519   4.149  16.002  0.00  0.00    +0.000 C 
BRANCH  27  28
ATOM     28  C   UNL     1       7.044   5.168  16.994  0.00  0.00    +0.000 A 
ATOM     29  C   UNL     1       7.581   4.740  18.223  0.00  0.00    +0.000 A 
ATOM     30  C   UNL     1       8.121   5.657  19.129  0.00  0.00    +0.000 A 
ATOM     31  C   UNL     1       8.141   7.013  18.815  0.00  0.00    +0.000 A 
ATOM     32  C   UNL     1       7.625   7.438  17.593  0.00  0.00    +0.000 A 
ATOM     33  F   UNL     1       7.660   8.740  17.284  0.00  0.00    +0.000 F 
ATOM     34  C   UNL     1       7.081   6.534  16.683  0.00  0.00    +0.000 A 
ENDBRANCH  27  28
ENDBRANCH  25  27
ENDBRANCH  23  25
ENDBRANCH   4  19
TORSDOF 6
ENDMDL
MODEL 8
REMARK VINA RESULT:      -8.1      2.963      4.901
REMARK  Name = 
REMARK  8 active torsions:
REMARK  status: ('A' for Active; 'I' for Inactive)
REMARK    1  A    between atoms: C_1  and  N_2
REMARK    2  A    between atoms: N_2  and  C_3
REMARK    3  A    between atoms: N_2  and  C_4
REMARK    4  A    between atoms: C_7  and  N_8
REMARK    5  A    between atoms: C_11  and  C_12
REMARK    6  A    between atoms: C_16  and  N_17
REMARK    7  A    between atoms: N_17  and  C_18
REMARK    8  A    between atoms: C_18  and  C_19
REMARK                            x       y       z     vdW  Elec       q    Type
REMARK                         _______ _______ _______ _____ _____    ______ ____
ROOT
ATOM      1  N   UNL     1       1.619   9.959  17.823  0.00  0.00    +0.000 N 
ATOM      2  C   UNL     1       1.804   8.858  18.662  0.00  0.00    +0.000 A 
ATOM      3  C   UNL     1       2.357   7.699  18.114  0.00  0.00    +0.000 A 
ATOM      4  C   UNL     1       2.414   6.486  18.845  0.00  0.00    +0.000 A 
ATOM      5  C   UNL     1       2.021   6.555  20.187  0.00  0.00    +0.000 A 
ATOM      6 CL   UNL     1       1.995   5.222  21.284  0.00  0.00    +0.000 Cl
ATOM      7  C   UNL     1       1.549   7.771  20.675  0.00  0.00    +0.000 A 
ATOM      8  N   UNL     1       1.405   8.898  19.939  0.00  0.00    +0.000 NA
ATOM      9  H   UNL     1       2.499  10.370  17.537  0.00  0.00    +0.000 HD
ENDROOT
BRANCH   1  13
ATOM     10  C   UNL     1      -1.489  12.101  20.030  0.00  0.00    +0.000 C 
ATOM     11  C   UNL     1      -1.847  11.300  18.752  0.00  0.00    +0.000 C 
ATOM     12  C   UNL     1      -0.796  10.242  18.395  0.00  0.00    +0.000 C 
ATOM     13  C   UNL     1       0.564  10.903  18.186  0.00  0.00    +0.000 C 
ATOM     14  C   UNL     1       0.973  11.596  19.490  0.00  0.00    +0.000 C 
ATOM     15  C   UNL     1      -0.049  12.655  19.902  0.00  0.00    +0.000 C 
BRANCH  10  17
ATOM     16  C   UNL     1      -2.080  14.031  21.434  0.00  0.00    +0.000 C 
ATOM     17  N   UNL     1      -2.465  13.194  20.292  0.00  0.00    +0.000 NA
ATOM     18  C   UNL     1      -3.825  12.694  20.522  0.00  0.00    +0.000 C 
ENDBRANCH  10  17
ENDBRANCH   1  13
BRANCH   4  19
ATOM     19  C   UNL     1       2.790   5.230  18.143  0.00  0.00    +0.000 A 
ATOM     20  C   UNL     1       1.869   4.196  17.968  0.00  0.00    +0.000 A 
ATOM     21  C   UNL     1       2.251   3.035  17.309  0.00  0.00    +0.000 A 
ATOM     22  C   UNL     1       3.554   2.928  16.855  0.00  0.00    +0.000 A 
ATOM     23  C   UNL     1       4.450   3.965  17.092  0.00  0.00    +0.000 A 
ATOM     24  N   UNL     1       4.071   5.109  17.706  0.00  0.00    +0.000 NA
BRANCH  23  25
ATOM     25  N   UNL     1       5.776   3.740  16.716  0.00  0.00    +0.000 N 
ATOM     26  H   UNL     1       5.842   2.928  16.111  0.00  0.00    +0.000 HD
BRANCH  25  27
ATOM     27  C   UNL     1       6.539   4.876  16.237  0.00  0.00    +0.000 C 
BRANCH  27  28
ATOM     28  C   UNL     1       6.763   4.669  14.751  0.00  0.00    +0.000 A 
ATOM     29  C   UNL     1       6.089   3.636  14.076  0.00  0.00    +0.000 A 
ATOM     30  C   UNL     1       6.238   3.462  12.698  0.00  0.00    +0.000 A 
ATOM     31  C   UNL     1       7.056   4.325  11.973  0.00  0.00    +0.000 A 
ATOM     32  C   UNL     1       7.712   5.358  12.636  0.00  0.00    +0.000 A 
ATOM     33  F   UNL     1       8.486   6.199  11.937  0.00  0.00    +0.000 F 
ATOM     34  C   UNL     1       7.574   5.541  14.011  0.00  0.00    +0.000 A 
ENDBRANCH  27  28
ENDBRANCH  25  27
ENDBRANCH  23  25
ENDBRANCH   4  19
TORSDOF 6
ENDMDL
MODEL 9
REMARK VINA RESULT:      -8.0      3.547     10.085
REMARK  Name = 
REMARK  8 active torsions:
REMARK  status: ('A' for Active; 'I' for Inactive)
REMARK    1  A    between atoms: C_1  and  N_2
REMARK    2  A    between atoms: N_2  and  C_3
REMARK    3  A    between atoms: N_2  and  C_4
REMARK    4  A    between atoms: C_7  and  N_8
REMARK    5  A    between atoms: C_11  and  C_12
REMARK    6  A    between atoms: C_16  and  N_17
REMARK    7  A    between atoms: N_17  and  C_18
REMARK    8  A    between atoms: C_18  and  C_19
REMARK                            x       y       z     vdW  Elec       q    Type
REMARK                         _______ _______ _______ _____ _____    ______ ____
ROOT
ATOM      1  N   UNL     1       1.888   7.201  20.909  0.00  0.00    +0.000 N 
ATOM      2  C   UNL     1       1.478   8.406  20.335  0.00  0.00    +0.000 A 
ATOM      3  C   UNL     1       0.706   9.275  21.107  0.00  0.00    +0.000 A 
ATOM      4  C   UNL     1       0.102  10.429  20.549  0.00  0.00    +0.000 A 
ATOM      5  C   UNL     1       0.444  10.724  19.223  0.00  0.00    +0.000 A 
ATOM      6 CL   UNL     1      -0.157  12.066  18.318  0.00  0.00    +0.000 Cl
ATOM      7  C   UNL     1       1.281   9.841  18.546  0.00  0.00    +0.000 A 
ATOM      8  N   UNL     1       1.771   8.688  19.060  0.00  0.00    +0.000 NA
ATOM      9  H   UNL     1       2.568   7.343  21.645  0.00  0.00    +0.000 HD
ENDROOT
BRANCH   1  13
ATOM     10  C   UNL     1       3.486   3.518  19.176  0.00  0.00    +0.000 C 
ATOM     11  C   UNL     1       3.780   4.888  18.512  0.00  0.00    +0.000 C 
ATOM     12  C   UNL     1       3.587   6.070  19.469  0.00  0.00    +0.000 C 
ATOM     13  C   UNL     1       2.157   6.087  20.001  0.00  0.00    +0.000 C 
ATOM     14  C   UNL     1       1.905   4.781  20.762  0.00  0.00    +0.000 C 
ATOM     15  C   UNL     1       2.096   3.564  19.856  0.00  0.00    +0.000 C 
BRANCH  10  17
ATOM     16  C   UNL     1       2.336   2.233  17.424  0.00  0.00    +0.000 C 
ATOM     17  N   UNL     1       3.570   2.398  18.200  0.00  0.00    +0.000 NA
ATOM     18  C   UNL     1       3.889   1.116  18.838  0.00  0.00    +0.000 C 
ENDBRANCH  10  17
ENDBRANCH   1  13
BRANCH   4  19
ATOM     19  C   UNL     1      -0.897  11.187  21.348  0.00  0.00    +0.000 A 
ATOM     20  C   UNL     1      -1.055  10.955  22.716  0.00  0.00    +0.000 A 
ATOM     21  C   UNL     1      -1.997  11.679  23.434  0.00  0.00    +0.000 A 
ATOM     22  C   UNL     1      -2.774  12.607  22.763  0.00  0.00    +0.000 A 
ATOM     23  C   UNL     1      -2.612  12.773  21.391  0.00  0.00    +0.000 A 
ATOM     24  N   UNL     1      -1.674  12.091  20.695  0.00  0.00    +0.000 NA
BRANCH  23  25
ATOM     25  N   UNL     1      -3.510  13.636  20.758  0.00  0.00    +0.000 N 
ATOM     26  H   UNL     1      -3.364  13.628  19.754  0.00  0.00    +0.000 HD
BRANCH  25  27
ATOM     27  C   UNL     1      -4.906  13.545  21.136  0.00  0.00    +0.000 C 
BRANCH  27  28
ATOM     28  C   UNL     1      -5.531  12.460  20.281  0.00  0.00    +0.000 A 
ATOM     29  C   UNL     1      -6.625  11.722  20.771  0.00  0.00    +0.000 A 
ATOM     30  C   UNL     1      -7.251  10.756  19.980  0.00  0.00    +0.000 A 
ATOM     31  C   UNL     1      -6.800  10.520  18.684  0.00  0.00    +0.000 A 
ATOM     32  C   UNL     1      -5.728  11.259  18.190  0.00  0.00    +0.000 A 
ATOM     33  F   UNL     1      -5.305  11.045  16.938  0.00  0.00    +0.000 F 
ATOM     34  C   UNL     1      -5.093  12.224  18.971  0.00  0.00    +0.000 A 
ENDBRANCH  27  28
ENDBRANCH  25  27
ENDBRANCH  23  25
ENDBRANCH   4  19
TORSDOF 6
ENDMDL
