MODEL 1
REMARK VINA RESULT:      -9.2      0.000      0.000
REMARK  Name = 
REMARK  5 active torsions:
REMARK  status: ('A' for Active; 'I' for Inactive)
REMARK    1  A    between atoms: C_1  and  O_2
REMARK    2  A    between atoms: O_2  and  C_3
REMARK    3  A    between atoms: C_8  and  C_9
REMARK    4  A    between atoms: N_22  and  C_23
REMARK    5  A    between atoms: C_26  and  C_27
REMARK                            x       y       z     vdW  Elec       q    Type
REMARK                         _______ _______ _______ _____ _____    ______ ____
ROOT
ATOM      1  C   UNL     1       3.132   5.537  19.777  0.00  0.00    +0.000 C 
ATOM      2  N   UNL     1       2.323   6.256  20.740  0.00  0.00    +0.000 N 
ATOM      3  N   UNL     1       1.986   7.456  20.134  0.00  0.00    +0.000 N 
ATOM      4  C   UNL     1       2.584   7.705  18.914  0.00  0.00    +0.000 A 
ATOM      5  N   UNL     1       2.386   8.807  18.246  0.00  0.00    +0.000 NA
ATOM      6  C   UNL     1       1.426   9.740  18.829  0.00  0.00    +0.000 A 
ATOM      7  C   UNL     1       1.053  10.930  18.179  0.00  0.00    +0.000 A 
ATOM      8  C   UNL     1       0.038  11.771  18.703  0.00  0.00    +0.000 A 
ATOM      9  C   UNL     1      -0.637  11.440  19.877  0.00  0.00    +0.000 A 
ATOM     10  C   UNL     1      -0.247  10.308  20.567  0.00  0.00    +0.000 A 
ATOM     11  C   UNL     1       0.784   9.502  20.048  0.00  0.00    +0.000 A 
ATOM     12  C   UNL     1       1.196   8.341  20.818  0.00  0.00    +0.000 A 
ATOM     13  O   UNL     1       0.850   8.211  21.992  0.00  0.00    +0.000 OA
ATOM     14  N   UNL     1       3.398   6.525  18.688  0.00  0.00    +0.000 N 
ATOM     15  H   UNL     1       1.465   5.743  20.942  0.00  0.00    +0.000 HD
ENDROOT
BRANCH  14  16
ATOM     16  C   UNL     1       4.301   6.157  17.701  0.00  0.00    +0.000 A 
ATOM     17  C   UNL     1       5.053   4.962  17.865  0.00  0.00    +0.000 A 
ATOM     18  C   UNL     1       5.814   4.361  16.857  0.00  0.00    +0.000 A 
ATOM     19  C   UNL     1       5.899   4.968  15.615  0.00  0.00    +0.000 A 
ATOM     20  C   UNL     1       6.613   4.248  14.495  0.00  0.00    +0.000 C 
ATOM     21  C   UNL     1       5.253   6.199  15.440  0.00  0.00    +0.000 A 
ATOM     22  C   UNL     1       4.475   6.797  16.475  0.00  0.00    +0.000 A 
ENDBRANCH  14  16
BRANCH   1  28
ATOM     23  C   UNL     1       2.628   3.053  19.918  0.00  0.00    +0.000 A 
ATOM     24  C   UNL     1       1.774   1.971  19.676  0.00  0.00    +0.000 A 
ATOM     25  C   UNL     1       0.791   2.059  18.696  0.00  0.00    +0.000 A 
ATOM     26  C   UNL     1       0.645   3.235  17.968  0.00  0.00    +0.000 A 
ATOM     27  C   UNL     1       1.424   4.352  18.279  0.00  0.00    +0.000 A 
ATOM     28  C   UNL     1       2.404   4.291  19.291  0.00  0.00    +0.000 A 
BRANCH  23  30
ATOM     29  C   UNL     1       4.717   2.049  20.339  0.00  0.00    +0.000 C 
ATOM     30  O   UNL     1       3.695   2.957  20.773  0.00  0.00    +0.000 OA
ENDBRANCH  23  30
ENDBRANCH   1  28
TORSDOF 3
ENDMDL
MODEL 2
REMARK VINA RESULT:      -8.6      4.231      7.512
REMARK  Name = 
REMARK  5 active torsions:
REMARK  status: ('A' for Active; 'I' for Inactive)
REMARK    1  A    between atoms: C_1  and  O_2
REMARK    2  A    between atoms: O_2  and  C_3
REMARK    3  A    between atoms: C_8  and  C_9
REMARK    4  A    between atoms: N_22  and  C_23
REMARK    5  A    between atoms: C_26  and  C_27
REMARK                            x       y       z     vdW  Elec       q    Type
REMARK                         _______ _______ _______ _____ _____    ______ ____
ROOT
ATOM      1  C   UNL     1      -1.019  11.597  19.620  0.00  0.00    +0.000 C 
ATOM      2  N   UNL     1      -1.108  13.042  19.681  0.00  0.00    +0.000 N 
ATOM      3  N   UNL     1       0.128  13.517  19.270  0.00  0.00    +0.000 N 
ATOM      4  C   UNL     1       1.104  12.562  19.063  0.00  0.00    +0.000 A 
ATOM      5  N   UNL     1       2.321  12.866  18.709  0.00  0.00    +0.000 NA
ATOM      6  C   UNL     1       2.577  14.282  18.464  0.00  0.00    +0.000 A 
ATOM      7  C   UNL     1       3.820  14.746  17.998  0.00  0.00    +0.000 A 
ATOM      8  C   UNL     1       4.020  16.108  17.660  0.00  0.00    +0.000 A 
ATOM      9  C   UNL     1       2.985  17.036  17.764  0.00  0.00    +0.000 A 
ATOM     10  C   UNL     1       1.772  16.618  18.278  0.00  0.00    +0.000 A 
ATOM     11  C   UNL     1       1.602  15.269  18.639  0.00  0.00    +0.000 A 
ATOM     12  C   UNL     1       0.327  14.871  19.211  0.00  0.00    +0.000 A 
ATOM     13  O   UNL     1      -0.473  15.716  19.611  0.00  0.00    +0.000 OA
ATOM     14  N   UNL     1       0.425  11.313  19.360  0.00  0.00    +0.000 N 
ATOM     15  H   UNL     1      -1.818  13.386  19.034  0.00  0.00    +0.000 HD
ENDROOT
BRANCH  14  16
ATOM     16  C   UNL     1       0.835   9.990  19.421  0.00  0.00    +0.000 A 
ATOM     17  C   UNL     1       1.516   9.426  18.306  0.00  0.00    +0.000 A 
ATOM     18  C   UNL     1       2.178   8.195  18.324  0.00  0.00    +0.000 A 
ATOM     19  C   UNL     1       2.154   7.425  19.475  0.00  0.00    +0.000 A 
ATOM     20  C   UNL     1       2.981   6.162  19.529  0.00  0.00    +0.000 C 
ATOM     21  C   UNL     1       1.412   7.898  20.565  0.00  0.00    +0.000 A 
ATOM     22  C   UNL     1       0.745   9.158  20.536  0.00  0.00    +0.000 A 
ENDBRANCH  14  16
BRANCH   1  28
ATOM     23  C   UNL     1      -3.273  11.493  18.456  0.00  0.00    +0.000 A 
ATOM     24  C   UNL     1      -4.041  11.220  17.318  0.00  0.00    +0.000 A 
ATOM     25  C   UNL     1      -3.551  10.378  16.326  0.00  0.00    +0.000 A 
ATOM     26  C   UNL     1      -2.284   9.820  16.458  0.00  0.00    +0.000 A 
ATOM     27  C   UNL     1      -1.472  10.172  17.539  0.00  0.00    +0.000 A 
ATOM     28  C   UNL     1      -1.941  11.050  18.538  0.00  0.00    +0.000 A 
BRANCH  23  30
ATOM     29  C   UNL     1      -5.206  12.250  19.569  0.00  0.00    +0.000 C 
ATOM     30  O   UNL     1      -3.773  12.201  19.517  0.00  0.00    +0.000 OA
ENDBRANCH  23  30
ENDBRANCH   1  28
TORSDOF 3
ENDMDL
MODEL 3
REMARK VINA RESULT:      -8.1      4.179      8.121
REMARK  Name = 
REMARK  5 active torsions:
REMARK  status: ('A' for Active; 'I' for Inactive)
REMARK    1  A    between atoms: C_1  and  O_2
REMARK    2  A    between atoms: O_2  and  C_3
REMARK    3  A    between atoms: C_8  and  C_9
REMARK    4  A    between atoms: N_22  and  C_23
REMARK    5  A    between atoms: C_26  and  C_27
REMARK                            x       y       z     vdW  Elec       q    Type
REMARK                         _______ _______ _______ _____ _____    ______ ____
ROOT
ATOM      1  C   UNL     1       0.224  10.981  18.971  0.00  0.00    +0.000 C 
ATOM      2  N   UNL     1       1.483  11.682  18.818  0.00  0.00    +0.000 N 
ATOM      3  N   UNL     1       1.166  13.031  18.781  0.00  0.00    +0.000 N 
ATOM      4  C   UNL     1      -0.181  13.334  18.754  0.00  0.00    +0.000 A 
ATOM      5  N   UNL     1      -0.625  14.558  18.685  0.00  0.00    +0.000 NA
ATOM      6  C   UNL     1       0.391  15.606  18.716  0.00  0.00    +0.000 A 
ATOM      7  C   UNL     1       0.055  16.971  18.730  0.00  0.00    +0.000 A 
ATOM      8  C   UNL     1       1.047  17.974  18.872  0.00  0.00    +0.000 A 
ATOM      9  C   UNL     1       2.393  17.642  19.016  0.00  0.00    +0.000 A 
ATOM     10  C   UNL     1       2.756  16.310  18.943  0.00  0.00    +0.000 A 
ATOM     11  C   UNL     1       1.761  15.330  18.770  0.00  0.00    +0.000 A 
ATOM     12  C   UNL     1       2.180  13.944  18.659  0.00  0.00    +0.000 A 
ATOM     13  O   UNL     1       3.361  13.659  18.458  0.00  0.00    +0.000 OA
ATOM     14  N   UNL     1      -0.823  12.032  18.791  0.00  0.00    +0.000 N 
ATOM     15  H   UNL     1       2.089  11.514  19.621  0.00  0.00    +0.000 HD
ENDROOT
BRANCH  14  16
ATOM     16  C   UNL     1      -2.142  11.611  18.719  0.00  0.00    +0.000 A 
ATOM     17  C   UNL     1      -3.133  12.317  19.455  0.00  0.00    +0.000 A 
ATOM     18  C   UNL     1      -4.512  12.146  19.292  0.00  0.00    +0.000 A 
ATOM     19  C   UNL     1      -4.978  11.202  18.392  0.00  0.00    +0.000 A 
ATOM     20  C   UNL     1      -6.463  11.116  18.126  0.00  0.00    +0.000 C 
ATOM     21  C   UNL     1      -4.036  10.416  17.718  0.00  0.00    +0.000 A 
ATOM     22  C   UNL     1      -2.633  10.604  17.890  0.00  0.00    +0.000 A 
ENDBRANCH  14  16
BRANCH   1  28
ATOM     23  C   UNL     1       0.966   9.176  20.595  0.00  0.00    +0.000 A 
ATOM     24  C   UNL     1       1.123   8.711  21.905  0.00  0.00    +0.000 A 
ATOM     25  C   UNL     1       0.362   9.249  22.937  0.00  0.00    +0.000 A 
ATOM     26  C   UNL     1      -0.546  10.268  22.666  0.00  0.00    +0.000 A 
ATOM     27  C   UNL     1      -0.630  10.807  21.381  0.00  0.00    +0.000 A 
ATOM     28  C   UNL     1       0.157  10.295  20.329  0.00  0.00    +0.000 A 
BRANCH  23  30
ATOM     29  C   UNL     1       2.161   7.296  19.831  0.00  0.00    +0.000 C 
ATOM     30  O   UNL     1       1.591   8.577  19.532  0.00  0.00    +0.000 OA
ENDBRANCH  23  30
ENDBRANCH   1  28
TORSDOF 3
ENDMDL
MODEL 4
REMARK VINA RESULT:      -8.0      4.177      7.458
REMARK  Name = 
REMARK  5 active torsions:
REMARK  status: ('A' for Active; 'I' for Inactive)
REMARK    1  A    between atoms: C_1  and  O_2
REMARK    2  A    between atoms: O_2  and  C_3
REMARK    3  A    between atoms: C_8  and  C_9
REMARK    4  A    between atoms: N_22  and  C_23
REMARK    5  A    between atoms: C_26  and  C_27
REMARK                            x       y       z     vdW  Elec       q    Type
REMARK                         _______ _______ _______ _____ _____    ______ ____
ROOT
ATOM      1  C   UNL     1      -0.872  11.557  19.529  0.00  0.00    +0.000 C 
ATOM      2  N   UNL     1      -1.207  12.957  19.695  0.00  0.00    +0.000 N 
ATOM      3  N   UNL     1      -0.115  13.669  19.222  0.00  0.00    +0.000 N 
ATOM      4  C   UNL     1       0.991  12.918  18.874  0.00  0.00    +0.000 A 
ATOM      5  N   UNL     1       2.099  13.455  18.446  0.00  0.00    +0.000 NA
ATOM      6  C   UNL     1       2.080  14.905  18.279  0.00  0.00    +0.000 A 
ATOM      7  C   UNL     1       3.175  15.610  17.749  0.00  0.00    +0.000 A 
ATOM      8  C   UNL     1       3.102  17.002  17.490  0.00  0.00    +0.000 A 
ATOM      9  C   UNL     1       1.934  17.721  17.738  0.00  0.00    +0.000 A 
ATOM     10  C   UNL     1       0.864  17.064  18.317  0.00  0.00    +0.000 A 
ATOM     11  C   UNL     1       0.966  15.689  18.596  0.00  0.00    +0.000 A 
ATOM     12  C   UNL     1      -0.162  15.038  19.239  0.00  0.00    +0.000 A 
ATOM     13  O   UNL     1      -1.060  15.702  19.758  0.00  0.00    +0.000 OA
ATOM     14  N   UNL     1       0.571  11.553  19.137  0.00  0.00    +0.000 N 
ATOM     15  H   UNL     1      -2.021  13.202  19.131  0.00  0.00    +0.000 HD
ENDROOT
BRANCH  14  16
ATOM     16  C   UNL     1       1.210  10.324  19.075  0.00  0.00    +0.000 A 
ATOM     17  C   UNL     1       1.135   9.450  20.194  0.00  0.00    +0.000 A 
ATOM     18  C   UNL     1       1.530   8.108  20.178  0.00  0.00    +0.000 A 
ATOM     19  C   UNL     1       2.076   7.574  19.023  0.00  0.00    +0.000 A 
ATOM     20  C   UNL     1       2.377   6.094  18.973  0.00  0.00    +0.000 C 
ATOM     21  C   UNL     1       2.259   8.427  17.928  0.00  0.00    +0.000 A 
ATOM     22  C   UNL     1       1.848   9.791  17.956  0.00  0.00    +0.000 A 
ENDBRANCH  14  16
BRANCH   1  28
ATOM     23  C   UNL     1      -3.139  11.255  18.426  0.00  0.00    +0.000 A 
ATOM     24  C   UNL     1      -3.911  10.892  17.318  0.00  0.00    +0.000 A 
ATOM     25  C   UNL     1      -3.385  10.055  16.339  0.00  0.00    +0.000 A 
ATOM     26  C   UNL     1      -2.078   9.594  16.456  0.00  0.00    +0.000 A 
ATOM     27  C   UNL     1      -1.269  10.038  17.504  0.00  0.00    +0.000 A 
ATOM     28  C   UNL     1      -1.776  10.912  18.488  0.00  0.00    +0.000 A 
BRANCH  23  30
ATOM     29  C   UNL     1      -5.034  12.344  19.303  0.00  0.00    +0.000 C 
ATOM     30  O   UNL     1      -3.664  11.960  19.478  0.00  0.00    +0.000 OA
ENDBRANCH  23  30
ENDBRANCH   1  28
TORSDOF 3
ENDMDL
MODEL 5
REMARK VINA RESULT:      -7.9      2.599      8.281
REMARK  Name = 
REMARK  5 active torsions:
REMARK  status: ('A' for Active; 'I' for Inactive)
REMARK    1  A    between atoms: C_1  and  O_2
REMARK    2  A    between atoms: O_2  and  C_3
REMARK    3  A    between atoms: C_8  and  C_9
REMARK    4  A    between atoms: N_22  and  C_23
REMARK    5  A    between atoms: C_26  and  C_27
REMARK                            x       y       z     vdW  Elec       q    Type
REMARK                         _______ _______ _______ _____ _____    ______ ____
ROOT
ATOM      1  C   UNL     1       1.030  10.381  18.955  0.00  0.00    +0.000 C 
ATOM      2  N   UNL     1       1.858   9.511  18.144  0.00  0.00    +0.000 N 
ATOM      3  N   UNL     1       1.971   8.325  18.853  0.00  0.00    +0.000 N 
ATOM      4  C   UNL     1       1.429   8.325  20.123  0.00  0.00    +0.000 A 
ATOM      5  N   UNL     1       1.492   7.291  20.915  0.00  0.00    +0.000 NA
ATOM      6  C   UNL     1       2.107   6.094  20.350  0.00  0.00    +0.000 A 
ATOM      7  C   UNL     1       2.170   4.882  21.059  0.00  0.00    +0.000 A 
ATOM      8  C   UNL     1       2.669   3.698  20.457  0.00  0.00    +0.000 A 
ATOM      9  C   UNL     1       3.102   3.691  19.132  0.00  0.00    +0.000 A 
ATOM     10  C   UNL     1       3.108   4.884  18.433  0.00  0.00    +0.000 A 
ATOM     11  C   UNL     1       2.639   6.054  19.057  0.00  0.00    +0.000 A 
ATOM     12  C   UNL     1       2.695   7.297  18.307  0.00  0.00    +0.000 A 
ATOM     13  O   UNL     1       3.363   7.380  17.276  0.00  0.00    +0.000 OA
ATOM     14  N   UNL     1       0.885   9.664  20.259  0.00  0.00    +0.000 N 
ATOM     15  H   UNL     1       1.405   9.312  17.252  0.00  0.00    +0.000 HD
ENDROOT
BRANCH  14  16
ATOM     16  C   UNL     1       0.273  10.350  21.297  0.00  0.00    +0.000 A 
ATOM     17  C   UNL     1       0.339  11.771  21.319  0.00  0.00    +0.000 A 
ATOM     18  C   UNL     1      -0.419  12.585  22.167  0.00  0.00    +0.000 A 
ATOM     19  C   UNL     1      -1.270  12.000  23.090  0.00  0.00    +0.000 A 
ATOM     20  C   UNL     1      -2.180  12.884  23.909  0.00  0.00    +0.000 C 
ATOM     21  C   UNL     1      -1.291  10.602  23.170  0.00  0.00    +0.000 A 
ATOM     22  C   UNL     1      -0.517   9.783  22.296  0.00  0.00    +0.000 A 
ENDBRANCH  14  16
BRANCH   1  28
ATOM     23  C   UNL     1      -0.633  11.947  17.848  0.00  0.00    +0.000 A 
ATOM     24  C   UNL     1      -1.708  12.159  16.977  0.00  0.00    +0.000 A 
ATOM     25  C   UNL     1      -2.556  11.109  16.640  0.00  0.00    +0.000 A 
ATOM     26  C   UNL     1      -2.321   9.839  17.157  0.00  0.00    +0.000 A 
ATOM     27  C   UNL     1      -1.190   9.600  17.941  0.00  0.00    +0.000 A 
ATOM     28  C   UNL     1      -0.302  10.646  18.266  0.00  0.00    +0.000 A 
BRANCH  23  30
ATOM     29  C   UNL     1      -0.610  14.128  18.737  0.00  0.00    +0.000 C 
ATOM     30  O   UNL     1       0.137  12.979  18.314  0.00  0.00    +0.000 OA
ENDBRANCH  23  30
ENDBRANCH   1  28
TORSDOF 3
ENDMDL
MODEL 6
REMARK VINA RESULT:      -7.8      5.282      8.607
REMARK  Name = 
REMARK  5 active torsions:
REMARK  status: ('A' for Active; 'I' for Inactive)
REMARK    1  A    between atoms: C_1  and  O_2
REMARK    2  A    between atoms: O_2  and  C_3
REMARK    3  A    between atoms: C_8  and  C_9
REMARK    4  A    between atoms: N_22  and  C_23
REMARK    5  A    between atoms: C_26  and  C_27
REMARK                            x       y       z     vdW  Elec       q    Type
REMARK                         _______ _______ _______ _____ _____    ______ ____
ROOT
ATOM      1  C   UNL     1      -1.941  12.729  20.131  0.00  0.00    +0.000 C 
ATOM      2  N   UNL     1      -1.958  14.172  19.992  0.00  0.00    +0.000 N 
ATOM      3  N   UNL     1      -0.716  14.519  19.483  0.00  0.00    +0.000 N 
ATOM      4  C   UNL     1       0.205  13.495  19.384  0.00  0.00    +0.000 A 
ATOM      5  N   UNL     1       1.422  13.682  18.955  0.00  0.00    +0.000 NA
ATOM      6  C   UNL     1       1.737  15.035  18.507  0.00  0.00    +0.000 A 
ATOM      7  C   UNL     1       2.983  15.364  17.945  0.00  0.00    +0.000 A 
ATOM      8  C   UNL     1       3.236  16.654  17.413  0.00  0.00    +0.000 A 
ATOM      9  C   UNL     1       2.252  17.640  17.416  0.00  0.00    +0.000 A 
ATOM     10  C   UNL     1       1.039  17.362  18.018  0.00  0.00    +0.000 A 
ATOM     11  C   UNL     1       0.817  16.087  18.569  0.00  0.00    +0.000 A 
ATOM     12  C   UNL     1      -0.454  15.840  19.229  0.00  0.00    +0.000 A 
ATOM     13  O   UNL     1      -1.198  16.773  19.529  0.00  0.00    +0.000 OA
ATOM     14  N   UNL     1      -0.523  12.337  19.873  0.00  0.00    +0.000 N 
ATOM     15  H   UNL     1      -2.673  14.460  19.324  0.00  0.00    +0.000 HD
ENDROOT
BRANCH  14  16
ATOM     16  C   UNL     1      -0.175  11.015  20.107  0.00  0.00    +0.000 A 
ATOM     17  C   UNL     1       0.613  10.327  19.143  0.00  0.00    +0.000 A 
ATOM     18  C   UNL     1       1.221   9.086  19.357  0.00  0.00    +0.000 A 
ATOM     19  C   UNL     1       1.027   8.433  20.563  0.00  0.00    +0.000 A 
ATOM     20  C   UNL     1       1.791   7.159  20.837  0.00  0.00    +0.000 C 
ATOM     21  C   UNL     1       0.177   9.029  21.503  0.00  0.00    +0.000 A 
ATOM     22  C   UNL     1      -0.432  10.298  21.274  0.00  0.00    +0.000 A 
ENDBRANCH  14  16
BRANCH   1  28
ATOM     23  C   UNL     1      -4.307  12.132  19.429  0.00  0.00    +0.000 A 
ATOM     24  C   UNL     1      -5.230  11.801  18.432  0.00  0.00    +0.000 A 
ATOM     25  C   UNL     1      -4.796  11.276  17.219  0.00  0.00    +0.000 A 
ATOM     26  C   UNL     1      -3.436  11.097  16.992  0.00  0.00    +0.000 A 
ATOM     27  C   UNL     1      -2.505  11.524  17.942  0.00  0.00    +0.000 A 
ATOM     28  C   UNL     1      -2.926  12.087  19.163  0.00  0.00    +0.000 A 
BRANCH  23  30
ATOM     29  C   UNL     1      -6.092  12.302  20.956  0.00  0.00    +0.000 C 
ATOM     30  O   UNL     1      -4.700  12.517  20.684  0.00  0.00    +0.000 OA
ENDBRANCH  23  30
ENDBRANCH   1  28
TORSDOF 3
ENDMDL
MODEL 7
REMARK VINA RESULT:      -7.8      1.124      1.466
REMARK  Name = 
REMARK  5 active torsions:
REMARK  status: ('A' for Active; 'I' for Inactive)
REMARK    1  A    between atoms: C_1  and  O_2
REMARK    2  A    between atoms: O_2  and  C_3
REMARK    3  A    between atoms: C_8  and  C_9
REMARK    4  A    between atoms: N_22  and  C_23
REMARK    5  A    between atoms: C_26  and  C_27
REMARK                            x       y       z     vdW  Elec       q    Type
REMARK                         _______ _______ _______ _____ _____    ______ ____
ROOT
ATOM      1  C   UNL     1       3.583   5.098  19.720  0.00  0.00    +0.000 C 
ATOM      2  N   UNL     1       2.728   5.845  20.620  0.00  0.00    +0.000 N 
ATOM      3  N   UNL     1       2.390   7.008  19.945  0.00  0.00    +0.000 N 
ATOM      4  C   UNL     1       3.026   7.212  18.736  0.00  0.00    +0.000 A 
ATOM      5  N   UNL     1       2.832   8.277  18.010  0.00  0.00    +0.000 NA
ATOM      6  C   UNL     1       1.835   9.217  18.514  0.00  0.00    +0.000 A 
ATOM      7  C   UNL     1       1.464  10.367  17.797  0.00  0.00    +0.000 A 
ATOM      8  C   UNL     1       0.416  11.212  18.244  0.00  0.00    +0.000 A 
ATOM      9  C   UNL     1      -0.294  10.923  19.408  0.00  0.00    +0.000 A 
ATOM     10  C   UNL     1       0.092   9.832  20.165  0.00  0.00    +0.000 A 
ATOM     11  C   UNL     1       1.155   9.024  19.721  0.00  0.00    +0.000 A 
ATOM     12  C   UNL     1       1.560   7.909  20.559  0.00  0.00    +0.000 A 
ATOM     13  O   UNL     1       1.176   7.827  21.726  0.00  0.00    +0.000 OA
ATOM     14  N   UNL     1       3.870   6.038  18.595  0.00  0.00    +0.000 N 
ATOM     15  H   UNL     1       1.872   5.325  20.816  0.00  0.00    +0.000 HD
ENDROOT
BRANCH  14  16
ATOM     16  C   UNL     1       4.813   5.643  17.658  0.00  0.00    +0.000 A 
ATOM     17  C   UNL     1       4.485   5.714  16.276  0.00  0.00    +0.000 A 
ATOM     18  C   UNL     1       5.409   5.570  15.236  0.00  0.00    +0.000 A 
ATOM     19  C   UNL     1       6.733   5.295  15.535  0.00  0.00    +0.000 A 
ATOM     20  C   UNL     1       7.746   5.272  14.414  0.00  0.00    +0.000 C 
ATOM     21  C   UNL     1       7.079   5.119  16.880  0.00  0.00    +0.000 A 
ATOM     22  C   UNL     1       6.129   5.274  17.932  0.00  0.00    +0.000 A 
ENDBRANCH  14  16
BRANCH   1  28
ATOM     23  C   UNL     1       1.901   3.229  20.071  0.00  0.00    +0.000 A 
ATOM     24  C   UNL     1       1.073   2.227  19.554  0.00  0.00    +0.000 A 
ATOM     25  C   UNL     1       1.324   1.690  18.295  0.00  0.00    +0.000 A 
ATOM     26  C   UNL     1       2.392   2.167  17.542  0.00  0.00    +0.000 A 
ATOM     27  C   UNL     1       3.156   3.238  18.010  0.00  0.00    +0.000 A 
ATOM     28  C   UNL     1       2.895   3.816  19.269  0.00  0.00    +0.000 A 
BRANCH  23  30
ATOM     29  C   UNL     1       1.438   2.665  22.311  0.00  0.00    +0.000 C 
ATOM     30  O   UNL     1       1.773   3.683  21.358  0.00  0.00    +0.000 OA
ENDBRANCH  23  30
ENDBRANCH   1  28
TORSDOF 3
ENDMDL
MODEL 8
REMARK VINA RESULT:      -7.8      4.859      7.898
REMARK  Name = 
REMARK  5 active torsions:
REMARK  status: ('A' for Active; 'I' for Inactive)
REMARK    1  A    between atoms: C_1  and  O_2
REMARK    2  A    between atoms: O_2  and  C_3
REMARK    3  A    between atoms: C_8  and  C_9
REMARK    4  A    between atoms: N_22  and  C_23
REMARK    5  A    between atoms: C_26  and  C_27
REMARK                            x       y       z     vdW  Elec       q    Type
REMARK                         _______ _______ _______ _____ _____    ______ ____
ROOT
ATOM      1  C   UNL     1      -0.262  11.716  19.984  0.00  0.00    +0.000 C 
ATOM      2  N   UNL     1       0.046  12.640  21.057  0.00  0.00    +0.000 N 
ATOM      3  N   UNL     1      -1.171  13.158  21.474  0.00  0.00    +0.000 N 
ATOM      4  C   UNL     1      -2.270  12.799  20.719  0.00  0.00    +0.000 A 
ATOM      5  N   UNL     1      -3.471  13.238  20.973  0.00  0.00    +0.000 NA
ATOM      6  C   UNL     1      -3.603  14.077  22.161  0.00  0.00    +0.000 A 
ATOM      7  C   UNL     1      -4.850  14.554  22.603  0.00  0.00    +0.000 A 
ATOM      8  C   UNL     1      -4.977  15.275  23.818  0.00  0.00    +0.000 A 
ATOM      9  C   UNL     1      -3.869  15.524  24.627  0.00  0.00    +0.000 A 
ATOM     10  C   UNL     1      -2.623  15.120  24.184  0.00  0.00    +0.000 A 
ATOM     11  C   UNL     1      -2.513  14.434  22.961  0.00  0.00    +0.000 A 
ATOM     12  C   UNL     1      -1.185  14.057  22.507  0.00  0.00    +0.000 A 
ATOM     13  O   UNL     1      -0.181  14.543  23.028  0.00  0.00    +0.000 OA
ATOM     14  N   UNL     1      -1.712  11.935  19.695  0.00  0.00    +0.000 N 
ATOM     15  H   UNL     1       0.474  12.149  21.843  0.00  0.00    +0.000 HD
ENDROOT
BRANCH  14  16
ATOM     16  C   UNL     1      -2.243  11.296  18.585  0.00  0.00    +0.000 A 
ATOM     17  C   UNL     1      -3.487  11.744  18.060  0.00  0.00    +0.000 A 
ATOM     18  C   UNL     1      -4.014  11.349  16.827  0.00  0.00    +0.000 A 
ATOM     19  C   UNL     1      -3.325  10.426  16.057  0.00  0.00    +0.000 A 
ATOM     20  C   UNL     1      -3.833  10.105  14.671  0.00  0.00    +0.000 C 
ATOM     21  C   UNL     1      -2.144   9.885  16.580  0.00  0.00    +0.000 A 
ATOM     22  C   UNL     1      -1.615  10.301  17.838  0.00  0.00    +0.000 A 
ENDBRANCH  14  16
BRANCH   1  28
ATOM     23  C   UNL     1       1.079   9.573  19.750  0.00  0.00    +0.000 A 
ATOM     24  C   UNL     1       1.568   8.381  20.296  0.00  0.00    +0.000 A 
ATOM     25  C   UNL     1       0.946   7.807  21.400  0.00  0.00    +0.000 A 
ATOM     26  C   UNL     1      -0.155   8.432  21.974  0.00  0.00    +0.000 A 
ATOM     27  C   UNL     1      -0.582   9.675  21.500  0.00  0.00    +0.000 A 
ATOM     28  C   UNL     1       0.057  10.286  20.402  0.00  0.00    +0.000 A 
BRANCH  23  30
ATOM     29  C   UNL     1       2.156   9.121  17.705  0.00  0.00    +0.000 C 
ATOM     30  O   UNL     1       1.573  10.093  18.583  0.00  0.00    +0.000 OA
ENDBRANCH  23  30
ENDBRANCH   1  28
TORSDOF 3
ENDMDL
MODEL 9
REMARK VINA RESULT:      -7.6      2.157      4.628
REMARK  Name = 
REMARK  5 active torsions:
REMARK  status: ('A' for Active; 'I' for Inactive)
REMARK    1  A    between atoms: C_1  and  O_2
REMARK    2  A    between atoms: O_2  and  C_3
REMARK    3  A    between atoms: C_8  and  C_9
REMARK    4  A    between atoms: N_22  and  C_23
REMARK    5  A    between atoms: C_26  and  C_27
REMARK                            x       y       z     vdW  Elec       q    Type
REMARK                         _______ _______ _______ _____ _____    ______ ____
ROOT
ATOM      1  C   UNL     1       3.672   6.324  17.655  0.00  0.00    +0.000 C 
ATOM      2  N   UNL     1       3.241   7.702  17.538  0.00  0.00    +0.000 N 
ATOM      3  N   UNL     1       2.441   7.946  18.644  0.00  0.00    +0.000 N 
ATOM      4  C   UNL     1       2.160   6.852  19.439  0.00  0.00    +0.000 A 
ATOM      5  N   UNL     1       1.395   6.926  20.492  0.00  0.00    +0.000 NA
ATOM      6  C   UNL     1       0.908   8.260  20.831  0.00  0.00    +0.000 A 
ATOM      7  C   UNL     1       0.140   8.503  21.984  0.00  0.00    +0.000 A 
ATOM      8  C   UNL     1      -0.232   9.819  22.360  0.00  0.00    +0.000 A 
ATOM      9  C   UNL     1       0.163  10.923  21.605  0.00  0.00    +0.000 A 
ATOM     10  C   UNL     1       0.865  10.706  20.434  0.00  0.00    +0.000 A 
ATOM     11  C   UNL     1       1.198   9.391  20.061  0.00  0.00    +0.000 A 
ATOM     12  C   UNL     1       1.902   9.195  18.805  0.00  0.00    +0.000 A 
ATOM     13  O   UNL     1       1.973  10.103  17.977  0.00  0.00    +0.000 OA
ATOM     14  N   UNL     1       2.870   5.767  18.786  0.00  0.00    +0.000 N 
ATOM     15  H   UNL     1       4.041   8.334  17.573  0.00  0.00    +0.000 HD
ENDROOT
BRANCH  14  16
ATOM     16  C   UNL     1       2.955   4.402  19.016  0.00  0.00    +0.000 A 
ATOM     17  C   UNL     1       2.986   3.516  17.903  0.00  0.00    +0.000 A 
ATOM     18  C   UNL     1       3.300   2.156  17.984  0.00  0.00    +0.000 A 
ATOM     19  C   UNL     1       3.561   1.590  19.221  0.00  0.00    +0.000 A 
ATOM     20  C   UNL     1       4.027   0.154  19.285  0.00  0.00    +0.000 C 
ATOM     21  C   UNL     1       3.445   2.405  20.353  0.00  0.00    +0.000 A 
ATOM     22  C   UNL     1       3.129   3.792  20.257  0.00  0.00    +0.000 A 
ENDBRANCH  14  16
BRANCH   1  28
ATOM     23  C   UNL     1       6.069   6.675  16.895  0.00  0.00    +0.000 A 
ATOM     24  C   UNL     1       7.420   6.878  17.194  0.00  0.00    +0.000 A 
ATOM     25  C   UNL     1       7.926   6.517  18.438  0.00  0.00    +0.000 A 
ATOM     26  C   UNL     1       7.078   5.968  19.394  0.00  0.00    +0.000 A 
ATOM     27  C   UNL     1       5.709   5.861  19.138  0.00  0.00    +0.000 A 
ATOM     28  C   UNL     1       5.174   6.253  17.894  0.00  0.00    +0.000 A 
BRANCH  23  30
ATOM     29  C   UNL     1       5.567   5.722  14.800  0.00  0.00    +0.000 C 
ATOM     30  O   UNL     1       5.564   6.886  15.638  0.00  0.00    +0.000 OA
ENDBRANCH  23  30
ENDBRANCH   1  28
TORSDOF 3
ENDMDL
