MODEL 1
REMARK VINA RESULT:     -10.0      0.000      0.000
REMARK  Name = 
REMARK  6 active torsions:
REMARK  status: ('A' for Active; 'I' for Inactive)
REMARK    1  A    between atoms: C_1  and  C_2
REMARK    2  A    between atoms: C_4  and  N_5
REMARK    3  A    between atoms: N_8  and  C_9
REMARK    4  A    between atoms: C_12  and  O_13
REMARK    5  A    between atoms: O_13  and  C_14
REMARK    6  A    between atoms: N_26  and  C_27
REMARK                            x       y       z     vdW  Elec       q    Type
REMARK                         _______ _______ _______ _____ _____    ______ ____
ROOT
ATOM      1  N   UNL     1       0.971   9.699  22.190  0.00  0.00    +0.000 N 
ATOM      2  C   UNL     1       0.920   8.767  21.078  0.00  0.00    +0.000 C 
ATOM      3  O   UNL     1       0.071   8.941  20.223  0.00  0.00    +0.000 OA
ATOM      4  N   UNL     1       1.894   7.785  21.121  0.00  0.00    +0.000 N 
ATOM      5  H   UNL     1       1.776   9.740  22.798  0.00  0.00    +0.000 HD
ATOM      6  H   UNL     1       2.321   7.572  22.011  0.00  0.00    +0.000 HD
ENDROOT
BRANCH   1  10
ATOM      7  C   UNL     1      -3.119  12.291  23.534  0.00  0.00    +0.000 C 
ATOM      8  C   UNL     1      -1.808  11.866  22.976  0.00  0.00    +0.000 A 
ATOM      9  C   UNL     1      -1.174  10.606  23.054  0.00  0.00    +0.000 A 
ATOM     10  C   UNL     1      -0.010  10.714  22.316  0.00  0.00    +0.000 A 
ATOM     11  N   UNL     1      -0.014  12.026  21.815  0.00  0.00    +0.000 N 
ATOM     12  N   UNL     1      -1.058  12.743  22.307  0.00  0.00    +0.000 NA
BRANCH  11  13
ATOM     13  C   UNL     1       0.844  12.633  20.858  0.00  0.00    +0.000 A 
ATOM     14  C   UNL     1       0.941  12.135  19.556  0.00  0.00    +0.000 A 
ATOM     15  C   UNL     1       1.813  12.751  18.655  0.00  0.00    +0.000 A 
ATOM     16  C   UNL     1       2.575  13.861  19.054  0.00  0.00    +0.000 A 
ATOM     17 CL   UNL     1       3.669  14.553  17.904  0.00  0.00    +0.000 Cl
ATOM     18  C   UNL     1       2.440  14.399  20.327  0.00  0.00    +0.000 A 
ATOM     19  C   UNL     1       1.571  13.791  21.212  0.00  0.00    +0.000 A 
ENDBRANCH  11  13
ENDBRANCH   1  10
BRANCH   4  20
ATOM     20  C   UNL     1       2.175   6.866  20.046  0.00  0.00    +0.000 A 
ATOM     21  C   UNL     1       2.139   5.476  20.219  0.00  0.00    +0.000 A 
ATOM     22  C   UNL     1       2.459   4.573  19.176  0.00  0.00    +0.000 A 
ATOM     23  C   UNL     1       2.854   5.006  17.920  0.00  0.00    +0.000 A 
ATOM     24  C   UNL     1       2.890   6.396  17.723  0.00  0.00    +0.000 A 
ATOM     25  C   UNL     1       2.534   7.314  18.766  0.00  0.00    +0.000 A 
BRANCH  23  26
ATOM     26  O   UNL     1       3.561   4.149  17.083  0.00  0.00    +0.000 OA
BRANCH  26  27
ATOM     27  C   UNL     1       4.879   4.366  16.729  0.00  0.00    +0.000 A 
ATOM     28  C   UNL     1       5.129   4.638  15.375  0.00  0.00    +0.000 A 
ATOM     29  C   UNL     1       6.437   4.893  14.936  0.00  0.00    +0.000 A 
ATOM     30  N   UNL     1       7.414   5.349  15.739  0.00  0.00    +0.000 NA
ATOM     31  C   UNL     1       7.091   5.273  17.023  0.00  0.00    +0.000 A 
ATOM     32  N   UNL     1       7.889   5.726  18.059  0.00  0.00    +0.000 N 
ATOM     33  C   UNL     1       7.324   5.315  19.257  0.00  0.00    +0.000 A 
ATOM     34  O   UNL     1       7.786   5.470  20.372  0.00  0.00    +0.000 OA
ATOM     35  N   UNL     1       6.109   4.681  18.946  0.00  0.00    +0.000 N 
ATOM     36  C   UNL     1       5.933   4.684  17.563  0.00  0.00    +0.000 A 
ATOM     37  H   UNL     1       8.768   6.204  17.937  0.00  0.00    +0.000 HD
ATOM     38  H   UNL     1       5.497   4.322  19.653  0.00  0.00    +0.000 HD
ENDBRANCH  26  27
ENDBRANCH  23  26
ENDBRANCH   4  20
TORSDOF 5
ENDMDL
MODEL 2
REMARK VINA RESULT:      -9.7      3.841      9.429
REMARK  Name = 
REMARK  6 active torsions:
REMARK  status: ('A' for Active; 'I' for Inactive)
REMARK    1  A    between atoms: C_1  and  C_2
REMARK    2  A    between atoms: C_4  and  N_5
REMARK    3  A    between atoms: N_8  and  C_9
REMARK    4  A    between atoms: C_12  and  O_13
REMARK    5  A    between atoms: O_13  and  C_14
REMARK    6  A    between atoms: N_26  and  C_27
REMARK                            x       y       z     vdW  Elec       q    Type
REMARK                         _______ _______ _______ _____ _____    ______ ____
ROOT
ATOM      1  N   UNL     1       2.786   5.720  20.506  0.00  0.00    +0.000 N 
ATOM      2  C   UNL     1       2.236   6.874  19.820  0.00  0.00    +0.000 C 
ATOM      3  O   UNL     1       2.092   6.807  18.613  0.00  0.00    +0.000 OA
ATOM      4  N   UNL     1       1.909   7.925  20.657  0.00  0.00    +0.000 N 
ATOM      5  H   UNL     1       2.720   5.632  21.510  0.00  0.00    +0.000 HD
ATOM      6  H   UNL     1       2.352   7.972  21.563  0.00  0.00    +0.000 HD
ENDROOT
BRANCH   1  10
ATOM      7  C   UNL     1       3.192   1.116  18.532  0.00  0.00    +0.000 C 
ATOM      8  C   UNL     1       3.357   2.558  18.860  0.00  0.00    +0.000 A 
ATOM      9  C   UNL     1       2.655   3.341  19.803  0.00  0.00    +0.000 A 
ATOM     10  C   UNL     1       3.234   4.596  19.768  0.00  0.00    +0.000 A 
ATOM     11  N   UNL     1       4.265   4.497  18.820  0.00  0.00    +0.000 N 
ATOM     12  N   UNL     1       4.262   3.286  18.206  0.00  0.00    +0.000 NA
BRANCH  11  13
ATOM     13  C   UNL     1       5.295   5.425  18.502  0.00  0.00    +0.000 A 
ATOM     14  C   UNL     1       6.521   5.403  19.173  0.00  0.00    +0.000 A 
ATOM     15  C   UNL     1       7.495   6.347  18.840  0.00  0.00    +0.000 A 
ATOM     16  C   UNL     1       7.246   7.300  17.839  0.00  0.00    +0.000 A 
ATOM     17 CL   UNL     1       8.476   8.470  17.505  0.00  0.00    +0.000 Cl
ATOM     18  C   UNL     1       6.053   7.291  17.126  0.00  0.00    +0.000 A 
ATOM     19  C   UNL     1       5.096   6.351  17.454  0.00  0.00    +0.000 A 
ENDBRANCH  11  13
ENDBRANCH   1  10
BRANCH   4  20
ATOM     20  C   UNL     1       1.175   9.097  20.249  0.00  0.00    +0.000 A 
ATOM     21  C   UNL     1       0.182   9.677  21.050  0.00  0.00    +0.000 A 
ATOM     22  C   UNL     1      -0.571  10.801  20.632  0.00  0.00    +0.000 A 
ATOM     23  C   UNL     1      -0.393  11.387  19.388  0.00  0.00    +0.000 A 
ATOM     24  C   UNL     1       0.602  10.825  18.572  0.00  0.00    +0.000 A 
ATOM     25  C   UNL     1       1.390   9.709  19.005  0.00  0.00    +0.000 A 
BRANCH  23  26
ATOM     26  O   UNL     1      -1.402  12.174  18.844  0.00  0.00    +0.000 OA
BRANCH  26  27
ATOM     27  C   UNL     1      -2.615  11.656  18.428  0.00  0.00    +0.000 A 
ATOM     28  C   UNL     1      -3.745  12.030  19.172  0.00  0.00    +0.000 A 
ATOM     29  C   UNL     1      -5.016  11.566  18.802  0.00  0.00    +0.000 A 
ATOM     30  N   UNL     1      -5.330  11.172  17.556  0.00  0.00    +0.000 NA
ATOM     31  C   UNL     1      -4.259  11.011  16.791  0.00  0.00    +0.000 A 
ATOM     32  N   UNL     1      -4.298  10.666  15.451  0.00  0.00    +0.000 N 
ATOM     33  C   UNL     1      -3.003  10.404  15.030  0.00  0.00    +0.000 A 
ATOM     34  O   UNL     1      -2.660  10.004  13.932  0.00  0.00    +0.000 OA
ATOM     35  N   UNL     1      -2.151  10.686  16.110  0.00  0.00    +0.000 N 
ATOM     36  C   UNL     1      -2.915  11.102  17.199  0.00  0.00    +0.000 A 
ATOM     37  H   UNL     1      -5.143  10.555  14.914  0.00  0.00    +0.000 HD
ATOM     38  H   UNL     1      -1.155  10.602  16.043  0.00  0.00    +0.000 HD
ENDBRANCH  26  27
ENDBRANCH  23  26
ENDBRANCH   4  20
TORSDOF 5
ENDMDL
MODEL 3
REMARK VINA RESULT:      -9.3      3.112      3.979
REMARK  Name = 
REMARK  6 active torsions:
REMARK  status: ('A' for Active; 'I' for Inactive)
REMARK    1  A    between atoms: C_1  and  C_2
REMARK    2  A    between atoms: C_4  and  N_5
REMARK    3  A    between atoms: N_8  and  C_9
REMARK    4  A    between atoms: C_12  and  O_13
REMARK    5  A    between atoms: O_13  and  C_14
REMARK    6  A    between atoms: N_26  and  C_27
REMARK                            x       y       z     vdW  Elec       q    Type
REMARK                         _______ _______ _______ _____ _____    ______ ____
ROOT
ATOM      1  N   UNL     1      -0.404  11.681  20.352  0.00  0.00    +0.000 N 
ATOM      2  C   UNL     1      -0.122  10.267  20.183  0.00  0.00    +0.000 C 
ATOM      3  O   UNL     1      -1.045   9.482  20.294  0.00  0.00    +0.000 OA
ATOM      4  N   UNL     1       1.199   9.988  19.880  0.00  0.00    +0.000 N 
ATOM      5  H   UNL     1       0.259  12.383  20.056  0.00  0.00    +0.000 HD
ATOM      6  H   UNL     1       1.900  10.674  20.117  0.00  0.00    +0.000 HD
ENDROOT
BRANCH   1  10
ATOM      7  C   UNL     1      -4.292  13.463  22.990  0.00  0.00    +0.000 C 
ATOM      8  C   UNL     1      -3.397  12.960  21.914  0.00  0.00    +0.000 A 
ATOM      9  C   UNL     1      -2.047  12.556  21.997  0.00  0.00    +0.000 A 
ATOM     10  C   UNL     1      -1.699  12.109  20.736  0.00  0.00    +0.000 A 
ATOM     11  N   UNL     1      -2.865  12.250  19.964  0.00  0.00    +0.000 N 
ATOM     12  N   UNL     1      -3.855  12.861  20.666  0.00  0.00    +0.000 NA
BRANCH  11  13
ATOM     13  C   UNL     1      -3.140  11.791  18.647  0.00  0.00    +0.000 A 
ATOM     14  C   UNL     1      -4.448  11.518  18.236  0.00  0.00    +0.000 A 
ATOM     15  C   UNL     1      -4.668  11.049  16.938  0.00  0.00    +0.000 A 
ATOM     16  C   UNL     1      -3.589  10.862  16.060  0.00  0.00    +0.000 A 
ATOM     17 CL   UNL     1      -3.924  10.236  14.481  0.00  0.00    +0.000 Cl
ATOM     18  C   UNL     1      -2.293  11.187  16.441  0.00  0.00    +0.000 A 
ATOM     19  C   UNL     1      -2.081  11.657  17.722  0.00  0.00    +0.000 A 
ENDBRANCH  11  13
ENDBRANCH   1  10
BRANCH   4  20
ATOM     20  C   UNL     1       1.689   8.694  19.477  0.00  0.00    +0.000 A 
ATOM     21  C   UNL     1       1.798   7.622  20.373  0.00  0.00    +0.000 A 
ATOM     22  C   UNL     1       2.321   6.362  19.991  0.00  0.00    +0.000 A 
ATOM     23  C   UNL     1       2.783   6.115  18.707  0.00  0.00    +0.000 A 
ATOM     24  C   UNL     1       2.676   7.174  17.791  0.00  0.00    +0.000 A 
ATOM     25  C   UNL     1       2.116   8.439  18.166  0.00  0.00    +0.000 A 
BRANCH  23  26
ATOM     26  O   UNL     1       3.663   5.062  18.480  0.00  0.00    +0.000 OA
BRANCH  26  27
ATOM     27  C   UNL     1       4.999   5.253  18.181  0.00  0.00    +0.000 A 
ATOM     28  C   UNL     1       5.875   5.378  19.271  0.00  0.00    +0.000 A 
ATOM     29  C   UNL     1       7.250   5.552  19.053  0.00  0.00    +0.000 A 
ATOM     30  N   UNL     1       7.880   5.162  17.932  0.00  0.00    +0.000 NA
ATOM     31  C   UNL     1       7.035   4.852  16.958  0.00  0.00    +0.000 A 
ATOM     32  N   UNL     1       7.413   4.367  15.718  0.00  0.00    +0.000 N 
ATOM     33  C   UNL     1       6.292   4.335  14.902  0.00  0.00    +0.000 A 
ATOM     34  O   UNL     1       6.257   4.033  13.723  0.00  0.00    +0.000 OA
ATOM     35  N   UNL     1       5.194   4.719  15.690  0.00  0.00    +0.000 N 
ATOM     36  C   UNL     1       5.637   5.005  16.981  0.00  0.00    +0.000 A 
ATOM     37  H   UNL     1       8.361   4.154  15.452  0.00  0.00    +0.000 HD
ATOM     38  H   UNL     1       4.260   4.745  15.330  0.00  0.00    +0.000 HD
ENDBRANCH  26  27
ENDBRANCH  23  26
ENDBRANCH   4  20
TORSDOF 5
ENDMDL
MODEL 4
REMARK VINA RESULT:      -9.2      1.244      2.350
REMARK  Name = 
REMARK  6 active torsions:
REMARK  status: ('A' for Active; 'I' for Inactive)
REMARK    1  A    between atoms: C_1  and  C_2
REMARK    2  A    between atoms: C_4  and  N_5
REMARK    3  A    between atoms: N_8  and  C_9
REMARK    4  A    between atoms: C_12  and  O_13
REMARK    5  A    between atoms: O_13  and  C_14
REMARK    6  A    between atoms: N_26  and  C_27
REMARK                            x       y       z     vdW  Elec       q    Type
REMARK                         _______ _______ _______ _____ _____    ______ ____
ROOT
ATOM      1  N   UNL     1       0.529  10.068  22.440  0.00  0.00    +0.000 N 
ATOM      2  C   UNL     1       0.548   9.124  21.337  0.00  0.00    +0.000 C 
ATOM      3  O   UNL     1      -0.251   9.283  20.433  0.00  0.00    +0.000 OA
ATOM      4  N   UNL     1       1.524   8.149  21.447  0.00  0.00    +0.000 N 
ATOM      5  H   UNL     1       1.297  10.121  23.093  0.00  0.00    +0.000 HD
ATOM      6  H   UNL     1       1.901   7.949  22.362  0.00  0.00    +0.000 HD
ENDROOT
BRANCH   1  10
ATOM      7  C   UNL     1      -3.613  12.676  23.578  0.00  0.00    +0.000 C 
ATOM      8  C   UNL     1      -2.286  12.240  23.067  0.00  0.00    +0.000 A 
ATOM      9  C   UNL     1      -1.642  10.992  23.217  0.00  0.00    +0.000 A 
ATOM     10  C   UNL     1      -0.464  11.077  22.498  0.00  0.00    +0.000 A 
ATOM     11  N   UNL     1      -0.471  12.364  21.936  0.00  0.00    +0.000 N 
ATOM     12  N   UNL     1      -1.532  13.092  22.372  0.00  0.00    +0.000 NA
BRANCH  11  13
ATOM     13  C   UNL     1       0.400  12.934  20.967  0.00  0.00    +0.000 A 
ATOM     14  C   UNL     1       1.389  13.851  21.336  0.00  0.00    +0.000 A 
ATOM     15  C   UNL     1       2.209  14.401  20.347  0.00  0.00    +0.000 A 
ATOM     16  C   UNL     1       2.043  14.031  19.003  0.00  0.00    +0.000 A 
ATOM     17 CL   UNL     1       3.060  14.781  17.821  0.00  0.00    +0.000 Cl
ATOM     18  C   UNL     1       1.102  13.076  18.636  0.00  0.00    +0.000 A 
ATOM     19  C   UNL     1       0.299  12.530  19.618  0.00  0.00    +0.000 A 
ENDBRANCH  11  13
ENDBRANCH   1  10
BRANCH   4  20
ATOM     20  C   UNL     1       1.873   7.222  20.400  0.00  0.00    +0.000 A 
ATOM     21  C   UNL     1       1.833   5.833  20.585  0.00  0.00    +0.000 A 
ATOM     22  C   UNL     1       2.218   4.921  19.572  0.00  0.00    +0.000 A 
ATOM     23  C   UNL     1       2.685   5.344  18.337  0.00  0.00    +0.000 A 
ATOM     24  C   UNL     1       2.727   6.732  18.129  0.00  0.00    +0.000 A 
ATOM     25  C   UNL     1       2.306   7.658  19.139  0.00  0.00    +0.000 A 
BRANCH  23  26
ATOM     26  O   UNL     1       3.445   4.482  17.553  0.00  0.00    +0.000 OA
BRANCH  26  27
ATOM     27  C   UNL     1       4.776   4.713  17.257  0.00  0.00    +0.000 A 
ATOM     28  C   UNL     1       5.660   4.770  18.346  0.00  0.00    +0.000 A 
ATOM     29  C   UNL     1       7.030   4.979  18.130  0.00  0.00    +0.000 A 
ATOM     30  N   UNL     1       7.654   4.681  16.978  0.00  0.00    +0.000 NA
ATOM     31  C   UNL     1       6.805   4.431  15.992  0.00  0.00    +0.000 A 
ATOM     32  N   UNL     1       7.177   4.044  14.715  0.00  0.00    +0.000 N 
ATOM     33  C   UNL     1       6.050   4.056  13.909  0.00  0.00    +0.000 A 
ATOM     34  O   UNL     1       6.007   3.841  12.711  0.00  0.00    +0.000 OA
ATOM     35  N   UNL     1       4.954   4.366  14.732  0.00  0.00    +0.000 N 
ATOM     36  C   UNL     1       5.405   4.562  16.037  0.00  0.00    +0.000 A 
ATOM     37  H   UNL     1       8.126   3.865  14.427  0.00  0.00    +0.000 HD
ATOM     38  H   UNL     1       4.016   4.405  14.384  0.00  0.00    +0.000 HD
ENDBRANCH  26  27
ENDBRANCH  23  26
ENDBRANCH   4  20
TORSDOF 5
ENDMDL
MODEL 5
REMARK VINA RESULT:      -9.1      6.015     10.184
REMARK  Name = 
REMARK  6 active torsions:
REMARK  status: ('A' for Active; 'I' for Inactive)
REMARK    1  A    between atoms: C_1  and  C_2
REMARK    2  A    between atoms: C_4  and  N_5
REMARK    3  A    between atoms: N_8  and  C_9
REMARK    4  A    between atoms: C_12  and  O_13
REMARK    5  A    between atoms: O_13  and  C_14
REMARK    6  A    between atoms: N_26  and  C_27
REMARK                            x       y       z     vdW  Elec       q    Type
REMARK                         _______ _______ _______ _____ _____    ______ ____
ROOT
ATOM      1  N   UNL     1       7.425   6.572  18.211  0.00  0.00    +0.000 N 
ATOM      2  C   UNL     1       7.901   7.921  17.963  0.00  0.00    +0.000 C 
ATOM      3  O   UNL     1       7.534   8.479  16.946  0.00  0.00    +0.000 OA
ATOM      4  N   UNL     1       8.715   8.424  18.962  0.00  0.00    +0.000 N 
ATOM      5  H   UNL     1       7.511   6.150  19.125  0.00  0.00    +0.000 HD
ATOM      6  H   UNL     1       9.179   7.772  19.577  0.00  0.00    +0.000 HD
ENDROOT
BRANCH   1  10
ATOM      7  C   UNL     1       5.984   3.935  14.183  0.00  0.00    +0.000 C 
ATOM      8  C   UNL     1       6.034   4.677  15.472  0.00  0.00    +0.000 A 
ATOM      9  C   UNL     1       7.138   5.289  16.103  0.00  0.00    +0.000 A 
ATOM     10  C   UNL     1       6.642   5.901  17.239  0.00  0.00    +0.000 A 
ATOM     11  N   UNL     1       5.262   5.641  17.222  0.00  0.00    +0.000 N 
ATOM     12  N   UNL     1       4.925   4.813  16.199  0.00  0.00    +0.000 NA
BRANCH  11  13
ATOM     13  C   UNL     1       4.230   6.168  18.046  0.00  0.00    +0.000 A 
ATOM     14  C   UNL     1       3.549   7.337  17.694  0.00  0.00    +0.000 A 
ATOM     15  C   UNL     1       2.557   7.828  18.545  0.00  0.00    +0.000 A 
ATOM     16  C   UNL     1       2.245   7.151  19.735  0.00  0.00    +0.000 A 
ATOM     17 CL   UNL     1       1.036   7.836  20.769  0.00  0.00    +0.000 Cl
ATOM     18  C   UNL     1       2.875   5.957  20.063  0.00  0.00    +0.000 A 
ATOM     19  C   UNL     1       3.850   5.471  19.214  0.00  0.00    +0.000 A 
ENDBRANCH  11  13
ENDBRANCH   1  10
BRANCH   4  20
ATOM     20  C   UNL     1       9.153   9.795  19.045  0.00  0.00    +0.000 A 
ATOM     21  C   UNL     1       9.468  10.552  17.909  0.00  0.00    +0.000 A 
ATOM     22  C   UNL     1       9.941  11.885  17.991  0.00  0.00    +0.000 A 
ATOM     23  C   UNL     1      10.148  12.521  19.206  0.00  0.00    +0.000 A 
ATOM     24  C   UNL     1       9.831  11.782  20.357  0.00  0.00    +0.000 A 
ATOM     25  C   UNL     1       9.320  10.445  20.278  0.00  0.00    +0.000 A 
BRANCH  23  26
ATOM     26  O   UNL     1      10.996  13.621  19.275  0.00  0.00    +0.000 OA
BRANCH  26  27
ATOM     27  C   UNL     1      10.664  14.857  18.752  0.00  0.00    +0.000 A 
ATOM     28  C   UNL     1      11.391  15.278  17.627  0.00  0.00    +0.000 A 
ATOM     29  C   UNL     1      11.101  16.510  17.022  0.00  0.00    +0.000 A 
ATOM     30  N   UNL     1       9.910  17.125  17.123  0.00  0.00    +0.000 NA
ATOM     31  C   UNL     1       9.142  16.591  18.062  0.00  0.00    +0.000 A 
ATOM     32  N   UNL     1       7.846  16.993  18.337  0.00  0.00    +0.000 N 
ATOM     33  C   UNL     1       7.425  16.349  19.490  0.00  0.00    +0.000 A 
ATOM     34  O   UNL     1       6.367  16.512  20.071  0.00  0.00    +0.000 OA
ATOM     35  N   UNL     1       8.450  15.468  19.871  0.00  0.00    +0.000 N 
ATOM     36  C   UNL     1       9.506  15.579  18.969  0.00  0.00    +0.000 A 
ATOM     37  H   UNL     1       7.343  17.695  17.818  0.00  0.00    +0.000 HD
ATOM     38  H   UNL     1       8.369  14.863  20.666  0.00  0.00    +0.000 HD
ENDBRANCH  26  27
ENDBRANCH  23  26
ENDBRANCH   4  20
TORSDOF 5
ENDMDL
MODEL 6
REMARK VINA RESULT:      -9.1      5.060      7.724
REMARK  Name = 
REMARK  6 active torsions:
REMARK  status: ('A' for Active; 'I' for Inactive)
REMARK    1  A    between atoms: C_1  and  C_2
REMARK    2  A    between atoms: C_4  and  N_5
REMARK    3  A    between atoms: N_8  and  C_9
REMARK    4  A    between atoms: C_12  and  O_13
REMARK    5  A    between atoms: O_13  and  C_14
REMARK    6  A    between atoms: N_26  and  C_27
REMARK                            x       y       z     vdW  Elec       q    Type
REMARK                         _______ _______ _______ _____ _____    ______ ____
ROOT
ATOM      1  N   UNL     1       9.720  10.035  19.278  0.00  0.00    +0.000 N 
ATOM      2  C   UNL     1       8.690   9.311  18.555  0.00  0.00    +0.000 C 
ATOM      3  O   UNL     1       8.090   9.898  17.673  0.00  0.00    +0.000 OA
ATOM      4  N   UNL     1       8.538   7.996  18.956  0.00  0.00    +0.000 N 
ATOM      5  H   UNL     1      10.392   9.547  19.853  0.00  0.00    +0.000 HD
ATOM      6  H   UNL     1       8.866   7.734  19.874  0.00  0.00    +0.000 HD
ENDROOT
BRANCH   1  10
ATOM      7  C   UNL     1      10.959  14.380  17.079  0.00  0.00    +0.000 C 
ATOM      8  C   UNL     1      10.442  13.333  18.001  0.00  0.00    +0.000 A 
ATOM      9  C   UNL     1      10.494  11.928  17.869  0.00  0.00    +0.000 A 
ATOM     10  C   UNL     1       9.937  11.411  19.024  0.00  0.00    +0.000 A 
ATOM     11  N   UNL     1       9.598  12.533  19.800  0.00  0.00    +0.000 N 
ATOM     12  N   UNL     1       9.817  13.690  19.123  0.00  0.00    +0.000 NA
BRANCH  11  13
ATOM     13  C   UNL     1       9.154  12.600  21.149  0.00  0.00    +0.000 A 
ATOM     14  C   UNL     1       8.630  11.476  21.794  0.00  0.00    +0.000 A 
ATOM     15  C   UNL     1       8.187  11.595  23.114  0.00  0.00    +0.000 A 
ATOM     16  C   UNL     1       8.275  12.826  23.782  0.00  0.00    +0.000 A 
ATOM     17 CL   UNL     1       7.668  12.919  25.401  0.00  0.00    +0.000 Cl
ATOM     18  C   UNL     1       8.850  13.933  23.168  0.00  0.00    +0.000 A 
ATOM     19  C   UNL     1       9.293  13.808  21.866  0.00  0.00    +0.000 A 
ENDBRANCH  11  13
ENDBRANCH   1  10
BRANCH   4  20
ATOM     20  C   UNL     1       7.725   7.022  18.270  0.00  0.00    +0.000 A 
ATOM     21  C   UNL     1       6.863   7.369  17.222  0.00  0.00    +0.000 A 
ATOM     22  C   UNL     1       6.032   6.422  16.577  0.00  0.00    +0.000 A 
ATOM     23  C   UNL     1       5.998   5.089  16.959  0.00  0.00    +0.000 A 
ATOM     24  C   UNL     1       6.860   4.719  18.004  0.00  0.00    +0.000 A 
ATOM     25  C   UNL     1       7.727   5.668  18.636  0.00  0.00    +0.000 A 
BRANCH  23  26
ATOM     26  O   UNL     1       4.900   4.303  16.626  0.00  0.00    +0.000 OA
BRANCH  26  27
ATOM     27  C   UNL     1       3.923   3.953  17.541  0.00  0.00    +0.000 A 
ATOM     28  C   UNL     1       3.868   2.602  17.916  0.00  0.00    +0.000 A 
ATOM     29  C   UNL     1       2.922   2.169  18.856  0.00  0.00    +0.000 A 
ATOM     30  N   UNL     1       2.361   2.978  19.771  0.00  0.00    +0.000 NA
ATOM     31  C   UNL     1       2.586   4.260  19.520  0.00  0.00    +0.000 A 
ATOM     32  N   UNL     1       2.172   5.302  20.332  0.00  0.00    +0.000 N 
ATOM     33  C   UNL     1       2.413   6.495  19.669  0.00  0.00    +0.000 A 
ATOM     34  O   UNL     1       2.113   7.613  20.046  0.00  0.00    +0.000 OA
ATOM     35  N   UNL     1       3.072   6.177  18.470  0.00  0.00    +0.000 N 
ATOM     36  C   UNL     1       3.222   4.793  18.384  0.00  0.00    +0.000 A 
ATOM     37  H   UNL     1       1.706   5.186  21.218  0.00  0.00    +0.000 HD
ATOM     38  H   UNL     1       3.382   6.879  17.825  0.00  0.00    +0.000 HD
ENDBRANCH  26  27
ENDBRANCH  23  26
ENDBRANCH   4  20
TORSDOF 5
ENDMDL
MODEL 7
REMARK VINA RESULT:      -9.0      3.125      3.720
REMARK  Name = 
REMARK  6 active torsions:
REMARK  status: ('A' for Active; 'I' for Inactive)
REMARK    1  A    between atoms: C_1  and  C_2
REMARK    2  A    between atoms: C_4  and  N_5
REMARK    3  A    between atoms: N_8  and  C_9
REMARK    4  A    between atoms: C_12  and  O_13
REMARK    5  A    between atoms: O_13  and  C_14
REMARK    6  A    between atoms: N_26  and  C_27
REMARK                            x       y       z     vdW  Elec       q    Type
REMARK                         _______ _______ _______ _____ _____    ______ ____
ROOT
ATOM      1  N   UNL     1      -0.593  11.823  20.178  0.00  0.00    +0.000 N 
ATOM      2  C   UNL     1      -0.174  10.446  19.998  0.00  0.00    +0.000 C 
ATOM      3  O   UNL     1      -1.017   9.573  20.091  0.00  0.00    +0.000 OA
ATOM      4  N   UNL     1       1.171  10.299  19.706  0.00  0.00    +0.000 N 
ATOM      5  H   UNL     1       0.002  12.589  19.897  0.00  0.00    +0.000 HD
ATOM      6  H   UNL     1       1.800  11.047  19.958  0.00  0.00    +0.000 HD
ENDROOT
BRANCH   1  10
ATOM      7  C   UNL     1      -4.664  13.162  22.803  0.00  0.00    +0.000 C 
ATOM      8  C   UNL     1      -3.712  12.776  21.727  0.00  0.00    +0.000 A 
ATOM      9  C   UNL     1      -2.331  12.494  21.821  0.00  0.00    +0.000 A 
ATOM     10  C   UNL     1      -1.927  12.120  20.553  0.00  0.00    +0.000 A 
ATOM     11  N   UNL     1      -3.089  12.178  19.767  0.00  0.00    +0.000 N 
ATOM     12  N   UNL     1      -4.141  12.674  20.469  0.00  0.00    +0.000 NA
BRANCH  11  13
ATOM     13  C   UNL     1      -3.303  11.737  18.432  0.00  0.00    +0.000 A 
ATOM     14  C   UNL     1      -4.594  11.535  17.936  0.00  0.00    +0.000 A 
ATOM     15  C   UNL     1      -4.755  11.081  16.625  0.00  0.00    +0.000 A 
ATOM     16  C   UNL     1      -3.633  10.837  15.817  0.00  0.00    +0.000 A 
ATOM     17 CL   UNL     1      -3.898  10.233  14.216  0.00  0.00    +0.000 Cl
ATOM     18  C   UNL     1      -2.349  11.092  16.282  0.00  0.00    +0.000 A 
ATOM     19  C   UNL     1      -2.195  11.548  17.577  0.00  0.00    +0.000 A 
ENDBRANCH  11  13
ENDBRANCH   1  10
BRANCH   4  20
ATOM     20  C   UNL     1       1.788   9.063  19.296  0.00  0.00    +0.000 A 
ATOM     21  C   UNL     1       2.283   8.866  18.000  0.00  0.00    +0.000 A 
ATOM     22  C   UNL     1       2.848   7.637  17.581  0.00  0.00    +0.000 A 
ATOM     23  C   UNL     1       2.926   6.536  18.422  0.00  0.00    +0.000 A 
ATOM     24  C   UNL     1       2.442   6.715  19.728  0.00  0.00    +0.000 A 
ATOM     25  C   UNL     1       1.899   7.967  20.165  0.00  0.00    +0.000 A 
BRANCH  23  26
ATOM     26  O   UNL     1       3.070   5.263  17.881  0.00  0.00    +0.000 OA
BRANCH  26  27
ATOM     27  C   UNL     1       4.289   4.755  17.474  0.00  0.00    +0.000 A 
ATOM     28  C   UNL     1       4.431   4.487  16.103  0.00  0.00    +0.000 A 
ATOM     29  C   UNL     1       5.645   3.991  15.604  0.00  0.00    +0.000 A 
ATOM     30  N   UNL     1       6.828   4.168  16.217  0.00  0.00    +0.000 NA
ATOM     31  C   UNL     1       6.694   4.615  17.458  0.00  0.00    +0.000 A 
ATOM     32  N   UNL     1       7.749   4.936  18.294  0.00  0.00    +0.000 N 
ATOM     33  C   UNL     1       7.243   5.184  19.561  0.00  0.00    +0.000 A 
ATOM     34  O   UNL     1       7.884   5.426  20.568  0.00  0.00    +0.000 OA
ATOM     35  N   UNL     1       5.844   5.102  19.472  0.00  0.00    +0.000 N 
ATOM     36  C   UNL     1       5.487   4.789  18.161  0.00  0.00    +0.000 A 
ATOM     37  H   UNL     1       8.720   4.912  18.024  0.00  0.00    +0.000 HD
ATOM     38  H   UNL     1       5.246   5.274  20.257  0.00  0.00    +0.000 HD
ENDBRANCH  26  27
ENDBRANCH  23  26
ENDBRANCH   4  20
TORSDOF 5
ENDMDL
MODEL 8
REMARK VINA RESULT:      -8.9      1.970      3.058
REMARK  Name = 
REMARK  6 active torsions:
REMARK  status: ('A' for Active; 'I' for Inactive)
REMARK    1  A    between atoms: C_1  and  C_2
REMARK    2  A    between atoms: C_4  and  N_5
REMARK    3  A    between atoms: N_8  and  C_9
REMARK    4  A    between atoms: C_12  and  O_13
REMARK    5  A    between atoms: O_13  and  C_14
REMARK    6  A    between atoms: N_26  and  C_27
REMARK                            x       y       z     vdW  Elec       q    Type
REMARK                         _______ _______ _______ _____ _____    ______ ____
ROOT
ATOM      1  N   UNL     1      -0.922  11.930  20.977  0.00  0.00    +0.000 N 
ATOM      2  C   UNL     1       0.289  11.197  20.655  0.00  0.00    +0.000 C 
ATOM      3  O   UNL     1       1.306  11.477  21.262  0.00  0.00    +0.000 OA
ATOM      4  N   UNL     1       0.119  10.224  19.686  0.00  0.00    +0.000 N 
ATOM      5  H   UNL     1      -1.826  11.597  20.675  0.00  0.00    +0.000 HD
ATOM      6  H   UNL     1      -0.671  10.303  19.061  0.00  0.00    +0.000 HD
ENDROOT
BRANCH   1  10
ATOM      7  C   UNL     1      -1.642  14.821  25.023  0.00  0.00    +0.000 C 
ATOM      8  C   UNL     1      -1.171  14.246  23.735  0.00  0.00    +0.000 A 
ATOM      9  C   UNL     1      -1.561  13.045  23.103  0.00  0.00    +0.000 A 
ATOM     10  C   UNL     1      -0.882  13.005  21.899  0.00  0.00    +0.000 A 
ATOM     11  N   UNL     1      -0.134  14.193  21.861  0.00  0.00    +0.000 N 
ATOM     12  N   UNL     1      -0.242  14.886  23.025  0.00  0.00    +0.000 NA
BRANCH  11  13
ATOM     13  C   UNL     1       0.612  14.760  20.792  0.00  0.00    +0.000 A 
ATOM     14  C   UNL     1       2.006  14.848  20.850  0.00  0.00    +0.000 A 
ATOM     15  C   UNL     1       2.695  15.432  19.785  0.00  0.00    +0.000 A 
ATOM     16  C   UNL     1       1.995  15.917  18.669  0.00  0.00    +0.000 A 
ATOM     17 CL   UNL     1       2.904  16.670  17.402  0.00  0.00    +0.000 Cl
ATOM     18  C   UNL     1       0.616  15.780  18.577  0.00  0.00    +0.000 A 
ATOM     19  C   UNL     1      -0.061  15.196  19.629  0.00  0.00    +0.000 A 
ENDBRANCH  11  13
ENDBRANCH   1  10
BRANCH   4  20
ATOM     20  C   UNL     1       1.112   9.241  19.333  0.00  0.00    +0.000 A 
ATOM     21  C   UNL     1       1.816   9.288  18.122  0.00  0.00    +0.000 A 
ATOM     22  C   UNL     1       2.760   8.298  17.754  0.00  0.00    +0.000 A 
ATOM     23  C   UNL     1       3.031   7.201  18.558  0.00  0.00    +0.000 A 
ATOM     24  C   UNL     1       2.340   7.139  19.779  0.00  0.00    +0.000 A 
ATOM     25  C   UNL     1       1.409   8.156  20.171  0.00  0.00    +0.000 A 
BRANCH  23  26
ATOM     26  O   UNL     1       3.603   6.061  18.003  0.00  0.00    +0.000 OA
BRANCH  26  27
ATOM     27  C   UNL     1       4.963   5.815  18.033  0.00  0.00    +0.000 A 
ATOM     28  C   UNL     1       5.518   5.507  19.285  0.00  0.00    +0.000 A 
ATOM     29  C   UNL     1       6.887   5.222  19.399  0.00  0.00    +0.000 A 
ATOM     30  N   UNL     1       7.638   4.770  18.380  0.00  0.00    +0.000 NA
ATOM     31  C   UNL     1       7.025   4.881  17.210  0.00  0.00    +0.000 A 
ATOM     32  N   UNL     1       7.548   4.441  16.006  0.00  0.00    +0.000 N 
ATOM     33  C   UNL     1       6.726   4.889  14.983  0.00  0.00    +0.000 A 
ATOM     34  O   UNL     1       6.910   4.753  13.787  0.00  0.00    +0.000 OA
ATOM     35  N   UNL     1       5.631   5.534  15.583  0.00  0.00    +0.000 N 
ATOM     36  C   UNL     1       5.785   5.501  16.968  0.00  0.00    +0.000 A 
ATOM     37  H   UNL     1       8.421   3.947  15.908  0.00  0.00    +0.000 HD
ATOM     38  H   UNL     1       4.878   5.920  15.048  0.00  0.00    +0.000 HD
ENDBRANCH  26  27
ENDBRANCH  23  26
ENDBRANCH   4  20
TORSDOF 5
ENDMDL
MODEL 9
REMARK VINA RESULT:      -8.8      3.220     10.677
REMARK  Name = 
REMARK  6 active torsions:
REMARK  status: ('A' for Active; 'I' for Inactive)
REMARK    1  A    between atoms: C_1  and  C_2
REMARK    2  A    between atoms: C_4  and  N_5
REMARK    3  A    between atoms: N_8  and  C_9
REMARK    4  A    between atoms: C_12  and  O_13
REMARK    5  A    between atoms: O_13  and  C_14
REMARK    6  A    between atoms: N_26  and  C_27
REMARK                            x       y       z     vdW  Elec       q    Type
REMARK                         _______ _______ _______ _____ _____    ______ ____
ROOT
ATOM      1  N   UNL     1       2.184   6.051  21.160  0.00  0.00    +0.000 N 
ATOM      2  C   UNL     1       1.436   7.275  20.933  0.00  0.00    +0.000 C 
ATOM      3  O   UNL     1       0.688   7.319  19.974  0.00  0.00    +0.000 OA
ATOM      4  N   UNL     1       1.658   8.255  21.884  0.00  0.00    +0.000 N 
ATOM      5  H   UNL     1       2.638   5.876  22.045  0.00  0.00    +0.000 HD
ATOM      6  H   UNL     1       2.506   8.211  22.431  0.00  0.00    +0.000 HD
ENDROOT
BRANCH   1  10
ATOM      7  C   UNL     1       0.742   1.935  18.664  0.00  0.00    +0.000 C 
ATOM      8  C   UNL     1       1.415   3.188  19.101  0.00  0.00    +0.000 A 
ATOM      9  C   UNL     1       1.176   3.971  20.251  0.00  0.00    +0.000 A 
ATOM     10  C   UNL     1       2.112   4.988  20.227  0.00  0.00    +0.000 A 
ATOM     11  N   UNL     1       2.878   4.752  19.073  0.00  0.00    +0.000 N 
ATOM     12  N   UNL     1       2.379   3.717  18.348  0.00  0.00    +0.000 NA
BRANCH  11  13
ATOM     13  C   UNL     1       4.080   5.376  18.640  0.00  0.00    +0.000 A 
ATOM     14  C   UNL     1       5.313   5.041  19.206  0.00  0.00    +0.000 A 
ATOM     15  C   UNL     1       6.465   5.695  18.763  0.00  0.00    +0.000 A 
ATOM     16  C   UNL     1       6.382   6.672  17.758  0.00  0.00    +0.000 A 
ATOM     17 CL   UNL     1       7.839   7.479  17.285  0.00  0.00    +0.000 Cl
ATOM     18  C   UNL     1       5.170   6.969  17.148  0.00  0.00    +0.000 A 
ATOM     19  C   UNL     1       4.035   6.314  17.585  0.00  0.00    +0.000 A 
ENDBRANCH  11  13
ENDBRANCH   1  10
BRANCH   4  20
ATOM     20  C   UNL     1       0.898   9.475  21.991  0.00  0.00    +0.000 A 
ATOM     21  C   UNL     1      -0.066   9.674  22.990  0.00  0.00    +0.000 A 
ATOM     22  C   UNL     1      -0.845  10.853  23.070  0.00  0.00    +0.000 A 
ATOM     23  C   UNL     1      -0.723  11.882  22.148  0.00  0.00    +0.000 A 
ATOM     24  C   UNL     1       0.242  11.706  21.143  0.00  0.00    +0.000 A 
ATOM     25  C   UNL     1       1.056  10.528  21.078  0.00  0.00    +0.000 A 
BRANCH  23  26
ATOM     26  O   UNL     1      -1.760  12.795  21.990  0.00  0.00    +0.000 OA
BRANCH  26  27
ATOM     27  C   UNL     1      -2.361  13.439  23.055  0.00  0.00    +0.000 A 
ATOM     28  C   UNL     1      -1.667  14.531  23.601  0.00  0.00    +0.000 A 
ATOM     29  C   UNL     1      -2.219  15.253  24.669  0.00  0.00    +0.000 A 
ATOM     30  N   UNL     1      -3.536  15.298  24.934  0.00  0.00    +0.000 NA
ATOM     31  C   UNL     1      -4.220  14.385  24.259  0.00  0.00    +0.000 A 
ATOM     32  N   UNL     1      -5.597  14.248  24.300  0.00  0.00    +0.000 N 
ATOM     33  C   UNL     1      -5.941  13.086  23.627  0.00  0.00    +0.000 A 
ATOM     34  O   UNL     1      -7.055  12.607  23.521  0.00  0.00    +0.000 OA
ATOM     35  N   UNL     1      -4.758  12.555  23.087  0.00  0.00    +0.000 N 
ATOM     36  C   UNL     1      -3.687  13.374  23.438  0.00  0.00    +0.000 A 
ATOM     37  H   UNL     1      -6.217  14.861  24.805  0.00  0.00    +0.000 HD
ATOM     38  H   UNL     1      -4.751  11.724  22.526  0.00  0.00    +0.000 HD
ENDBRANCH  26  27
ENDBRANCH  23  26
ENDBRANCH   4  20
TORSDOF 5
ENDMDL
