MODEL 1
REMARK VINA RESULT:      -8.0      0.000      0.000
REMARK  Name = 
REMARK  6 active torsions:
REMARK  status: ('A' for Active; 'I' for Inactive)
REMARK    1  A    between atoms: C_2  and  C_3
REMARK    2  A    between atoms: C_2  and  O_14
REMARK    3  A    between atoms: C_4  and  C_5
REMARK    4  A    between atoms: O_14  and  C_15
REMARK    5  A    between atoms: C_18  and  C_19
REMARK    6  A    between atoms: C_19  and  O_20
REMARK                            x       y       z     vdW  Elec       q    Type
REMARK                         _______ _______ _______ _____ _____    ______ ____
ROOT
ATOM      1  O   UNL     1       8.150   6.796  18.768  0.00  0.00    +0.000 OA
ATOM      2  C   UNL     1       7.788   7.530  17.859  0.00  0.00    +0.000 C 
ENDROOT
BRANCH   2   3
ATOM      3  C   UNL     1       8.213   8.952  17.797  0.00  0.00    +0.000 C 
ATOM      4  C   UNL     1       8.926   9.593  18.742  0.00  0.00    +0.000 C 
BRANCH   4   5
ATOM      5  C   UNL     1       9.418  10.978  18.613  0.00  0.00    +0.000 A 
ATOM      6  C   UNL     1       8.747  11.958  17.848  0.00  0.00    +0.000 A 
ATOM      7  C   UNL     1       9.252  13.262  17.729  0.00  0.00    +0.000 A 
ATOM      8  C   UNL     1      10.421  13.560  18.390  0.00  0.00    +0.000 A 
ATOM      9  C   UNL     1      11.070  12.622  19.157  0.00  0.00    +0.000 A 
ATOM     10  C   UNL     1      10.593  11.336  19.297  0.00  0.00    +0.000 A 
ATOM     11  O   UNL     1      12.203  13.118  19.727  0.00  0.00    +0.000 OA
ATOM     12  C   UNL     1      12.211  14.460  19.198  0.00  0.00    +0.000 C 
ATOM     13  O   UNL     1      11.063  14.759  18.377  0.00  0.00    +0.000 OA
ENDBRANCH   4   5
ENDBRANCH   2   3
BRANCH   2  14
ATOM     14  O   UNL     1       6.953   7.213  16.834  0.00  0.00    +0.000 OA
BRANCH  14  15
ATOM     15  C   UNL     1       5.986   6.222  17.082  0.00  0.00    +0.000 A 
ATOM     16  C   UNL     1       4.781   6.446  17.627  0.00  0.00    +0.000 A 
ATOM     17  O   UNL     1       3.779   5.508  17.751  0.00  0.00    +0.000 OA
ATOM     18  C   UNL     1       3.975   4.255  17.183  0.00  0.00    +0.000 A 
ATOM     19  C   UNL     1       5.137   3.892  16.620  0.00  0.00    +0.000 A 
ATOM     20  C   UNL     1       6.255   4.856  16.570  0.00  0.00    +0.000 A 
ATOM     21  O   UNL     1       7.344   4.528  16.114  0.00  0.00    +0.000 OA
BRANCH  18  22
ATOM     22  C   UNL     1       2.789   3.338  17.251  0.00  0.00    +0.000 C 
BRANCH  22  23
ATOM     23  O   UNL     1       3.190   2.060  17.726  0.00  0.00    +0.000 OA
ATOM     24  H   UNL     1       3.822   2.216  18.449  0.00  0.00    +0.000 HD
ENDBRANCH  22  23
ENDBRANCH  18  22
ENDBRANCH  14  15
ENDBRANCH   2  14
TORSDOF 6
ENDMDL
MODEL 2
REMARK VINA RESULT:      -7.9      1.351      1.951
REMARK  Name = 
REMARK  6 active torsions:
REMARK  status: ('A' for Active; 'I' for Inactive)
REMARK    1  A    between atoms: C_2  and  C_3
REMARK    2  A    between atoms: C_2  and  O_14
REMARK    3  A    between atoms: C_4  and  C_5
REMARK    4  A    between atoms: O_14  and  C_15
REMARK    5  A    between atoms: C_18  and  C_19
REMARK    6  A    between atoms: C_19  and  O_20
REMARK                            x       y       z     vdW  Elec       q    Type
REMARK                         _______ _______ _______ _____ _____    ______ ____
ROOT
ATOM      1  O   UNL     1       7.621   6.277  16.525  0.00  0.00    +0.000 OA
ATOM      2  C   UNL     1       7.215   7.086  17.347  0.00  0.00    +0.000 C 
ENDROOT
BRANCH   2   3
ATOM      3  C   UNL     1       8.134   8.055  17.996  0.00  0.00    +0.000 C 
ATOM      4  C   UNL     1       8.160   9.380  17.763  0.00  0.00    +0.000 C 
BRANCH   4   5
ATOM      5  C   UNL     1       9.018  10.335  18.492  0.00  0.00    +0.000 A 
ATOM      6  C   UNL     1       9.178  10.299  19.895  0.00  0.00    +0.000 A 
ATOM      7  C   UNL     1       9.986  11.235  20.560  0.00  0.00    +0.000 A 
ATOM      8  C   UNL     1      10.627  12.185  19.799  0.00  0.00    +0.000 A 
ATOM      9  C   UNL     1      10.498  12.214  18.431  0.00  0.00    +0.000 A 
ATOM     10  C   UNL     1       9.716  11.305  17.751  0.00  0.00    +0.000 A 
ATOM     11  O   UNL     1      11.212  13.228  17.868  0.00  0.00    +0.000 OA
ATOM     12  C   UNL     1      11.771  13.854  19.041  0.00  0.00    +0.000 C 
ATOM     13  O   UNL     1      11.432  13.175  20.269  0.00  0.00    +0.000 OA
ENDBRANCH   4   5
ENDBRANCH   2   3
BRANCH   2  14
ATOM     14  O   UNL     1       5.946   7.208  17.817  0.00  0.00    +0.000 OA
BRANCH  14  15
ATOM     15  C   UNL     1       5.203   6.023  17.967  0.00  0.00    +0.000 A 
ATOM     16  C   UNL     1       4.188   5.649  17.174  0.00  0.00    +0.000 A 
ATOM     17  O   UNL     1       3.543   4.433  17.232  0.00  0.00    +0.000 OA
ATOM     18  C   UNL     1       4.032   3.467  18.105  0.00  0.00    +0.000 A 
ATOM     19  C   UNL     1       5.031   3.713  18.964  0.00  0.00    +0.000 A 
ATOM     20  C   UNL     1       5.666   5.046  18.983  0.00  0.00    +0.000 A 
ATOM     21  O   UNL     1       6.540   5.312  19.800  0.00  0.00    +0.000 OA
BRANCH  18  22
ATOM     22  C   UNL     1       3.354   2.131  18.013  0.00  0.00    +0.000 C 
BRANCH  22  23
ATOM     23  O   UNL     1       4.283   1.095  18.308  0.00  0.00    +0.000 OA
ATOM     24  H   UNL     1       4.123   0.832  19.231  0.00  0.00    +0.000 HD
ENDBRANCH  22  23
ENDBRANCH  18  22
ENDBRANCH  14  15
ENDBRANCH   2  14
TORSDOF 6
ENDMDL
MODEL 3
REMARK VINA RESULT:      -7.9      0.821      1.239
REMARK  Name = 
REMARK  6 active torsions:
REMARK  status: ('A' for Active; 'I' for Inactive)
REMARK    1  A    between atoms: C_2  and  C_3
REMARK    2  A    between atoms: C_2  and  O_14
REMARK    3  A    between atoms: C_4  and  C_5
REMARK    4  A    between atoms: O_14  and  C_15
REMARK    5  A    between atoms: C_18  and  C_19
REMARK    6  A    between atoms: C_19  and  O_20
REMARK                            x       y       z     vdW  Elec       q    Type
REMARK                         _______ _______ _______ _____ _____    ______ ____
ROOT
ATOM      1  O   UNL     1       8.188   6.716  18.776  0.00  0.00    +0.000 OA
ATOM      2  C   UNL     1       7.823   7.561  17.970  0.00  0.00    +0.000 C 
ENDROOT
BRANCH   2   3
ATOM      3  C   UNL     1       8.346   8.950  18.016  0.00  0.00    +0.000 C 
ATOM      4  C   UNL     1       8.993   9.504  19.058  0.00  0.00    +0.000 C 
BRANCH   4   5
ATOM      5  C   UNL     1       9.587  10.855  19.042  0.00  0.00    +0.000 A 
ATOM      6  C   UNL     1       9.752  11.630  20.212  0.00  0.00    +0.000 A 
ATOM      7  C   UNL     1      10.303  12.920  20.160  0.00  0.00    +0.000 A 
ATOM      8  C   UNL     1      10.686  13.405  18.931  0.00  0.00    +0.000 A 
ATOM      9  C   UNL     1      10.553  12.651  17.790  0.00  0.00    +0.000 A 
ATOM     10  C   UNL     1      10.022  11.379  17.812  0.00  0.00    +0.000 A 
ATOM     11  O   UNL     1      10.993  13.311  16.682  0.00  0.00    +0.000 OA
ATOM     12  C   UNL     1      11.379  14.578  17.254  0.00  0.00    +0.000 C 
ATOM     13  O   UNL     1      11.221  14.631  18.688  0.00  0.00    +0.000 OA
ENDBRANCH   4   5
ENDBRANCH   2   3
BRANCH   2  14
ATOM     14  O   UNL     1       6.903   7.406  16.982  0.00  0.00    +0.000 OA
BRANCH  14  15
ATOM     15  C   UNL     1       5.982   6.352  17.125  0.00  0.00    +0.000 A 
ATOM     16  C   UNL     1       4.785   6.456  17.721  0.00  0.00    +0.000 A 
ATOM     17  O   UNL     1       3.825   5.468  17.750  0.00  0.00    +0.000 OA
ATOM     18  C   UNL     1       4.055   4.303  17.026  0.00  0.00    +0.000 A 
ATOM     19  C   UNL     1       5.214   4.063  16.396  0.00  0.00    +0.000 A 
ATOM     20  C   UNL     1       6.291   5.071  16.442  0.00  0.00    +0.000 A 
ATOM     21  O   UNL     1       7.380   4.848  15.925  0.00  0.00    +0.000 OA
BRANCH  18  22
ATOM     22  C   UNL     1       2.907   3.336  17.005  0.00  0.00    +0.000 C 
BRANCH  22  23
ATOM     23  O   UNL     1       3.162   2.262  17.902  0.00  0.00    +0.000 OA
ATOM     24  H   UNL     1       4.035   2.429  18.297  0.00  0.00    +0.000 HD
ENDBRANCH  22  23
ENDBRANCH  18  22
ENDBRANCH  14  15
ENDBRANCH   2  14
TORSDOF 6
ENDMDL
MODEL 4
REMARK VINA RESULT:      -7.8      1.079      1.591
REMARK  Name = 
REMARK  6 active torsions:
REMARK  status: ('A' for Active; 'I' for Inactive)
REMARK    1  A    between atoms: C_2  and  C_3
REMARK    2  A    between atoms: C_2  and  O_14
REMARK    3  A    between atoms: C_4  and  C_5
REMARK    4  A    between atoms: O_14  and  C_15
REMARK    5  A    between atoms: C_18  and  C_19
REMARK    6  A    between atoms: C_19  and  O_20
REMARK                            x       y       z     vdW  Elec       q    Type
REMARK                         _______ _______ _______ _____ _____    ______ ____
ROOT
ATOM      1  O   UNL     1       8.169   7.134  18.692  0.00  0.00    +0.000 OA
ATOM      2  C   UNL     1       7.762   7.808  17.756  0.00  0.00    +0.000 C 
ENDROOT
BRANCH   2   3
ATOM      3  C   UNL     1       8.215   9.209  17.559  0.00  0.00    +0.000 C 
ATOM      4  C   UNL     1       8.961   9.916  18.427  0.00  0.00    +0.000 C 
BRANCH   4   5
ATOM      5  C   UNL     1       9.479  11.272  18.164  0.00  0.00    +0.000 A 
ATOM      6  C   UNL     1      10.832  11.525  17.847  0.00  0.00    +0.000 A 
ATOM      7  C   UNL     1      11.297  12.830  17.623  0.00  0.00    +0.000 A 
ATOM      8  C   UNL     1      10.388  13.859  17.712  0.00  0.00    +0.000 A 
ATOM      9  C   UNL     1       9.064  13.624  17.995  0.00  0.00    +0.000 A 
ATOM     10  C   UNL     1       8.579  12.352  18.215  0.00  0.00    +0.000 A 
ATOM     11  O   UNL     1       8.334  14.773  18.036  0.00  0.00    +0.000 OA
ATOM     12  C   UNL     1       9.358  15.757  17.785  0.00  0.00    +0.000 C 
ATOM     13  O   UNL     1      10.659  15.181  17.542  0.00  0.00    +0.000 OA
ENDBRANCH   4   5
ENDBRANCH   2   3
BRANCH   2  14
ATOM     14  O   UNL     1       6.851   7.441  16.817  0.00  0.00    +0.000 OA
BRANCH  14  15
ATOM     15  C   UNL     1       6.056   6.316  17.104  0.00  0.00    +0.000 A 
ATOM     16  C   UNL     1       4.899   6.348  17.782  0.00  0.00    +0.000 A 
ATOM     17  O   UNL     1       4.050   5.276  17.953  0.00  0.00    +0.000 OA
ATOM     18  C   UNL     1       4.348   4.087  17.296  0.00  0.00    +0.000 A 
ATOM     19  C   UNL     1       5.479   3.913  16.598  0.00  0.00    +0.000 A 
ATOM     20  C   UNL     1       6.447   5.023  16.490  0.00  0.00    +0.000 A 
ATOM     21  O   UNL     1       7.515   4.869  15.907  0.00  0.00    +0.000 OA
BRANCH  18  22
ATOM     22  C   UNL     1       3.308   3.013  17.431  0.00  0.00    +0.000 C 
BRANCH  22  23
ATOM     23  O   UNL     1       3.923   1.787  17.807  0.00  0.00    +0.000 OA
ATOM     24  H   UNL     1       3.739   1.152  17.094  0.00  0.00    +0.000 HD
ENDBRANCH  22  23
ENDBRANCH  18  22
ENDBRANCH  14  15
ENDBRANCH   2  14
TORSDOF 6
ENDMDL
MODEL 5
REMARK VINA RESULT:      -7.7      1.132      1.711
REMARK  Name = 
REMARK  6 active torsions:
REMARK  status: ('A' for Active; 'I' for Inactive)
REMARK    1  A    between atoms: C_2  and  C_3
REMARK    2  A    between atoms: C_2  and  O_14
REMARK    3  A    between atoms: C_4  and  C_5
REMARK    4  A    between atoms: O_14  and  C_15
REMARK    5  A    between atoms: C_18  and  C_19
REMARK    6  A    between atoms: C_19  and  O_20
REMARK                            x       y       z     vdW  Elec       q    Type
REMARK                         _______ _______ _______ _____ _____    ______ ____
ROOT
ATOM      1  O   UNL     1       6.800   7.810  16.763  0.00  0.00    +0.000 OA
ATOM      2  C   UNL     1       7.572   7.536  17.671  0.00  0.00    +0.000 C 
ENDROOT
BRANCH   2   3
ATOM      3  C   UNL     1       8.381   8.588  18.340  0.00  0.00    +0.000 C 
ATOM      4  C   UNL     1       8.551   9.844  17.889  0.00  0.00    +0.000 C 
BRANCH   4   5
ATOM      5  C   UNL     1       9.281  10.897  18.622  0.00  0.00    +0.000 A 
ATOM      6  C   UNL     1       9.663  10.760  19.975  0.00  0.00    +0.000 A 
ATOM      7  C   UNL     1      10.339  11.789  20.650  0.00  0.00    +0.000 A 
ATOM      8  C   UNL     1      10.627  12.935  19.947  0.00  0.00    +0.000 A 
ATOM      9  C   UNL     1      10.283  13.070  18.623  0.00  0.00    +0.000 A 
ATOM     10  C   UNL     1       9.624  12.075  17.934  0.00  0.00    +0.000 A 
ATOM     11  O   UNL     1      10.659  14.276  18.113  0.00  0.00    +0.000 OA
ATOM     12  C   UNL     1      11.243  14.896  19.278  0.00  0.00    +0.000 C 
ATOM     13  O   UNL     1      11.259  14.035  20.436  0.00  0.00    +0.000 OA
ENDBRANCH   4   5
ENDBRANCH   2   3
BRANCH   2  14
ATOM     14  O   UNL     1       7.845   6.302  18.170  0.00  0.00    +0.000 OA
BRANCH  14  15
ATOM     15  C   UNL     1       6.800   5.361  18.153  0.00  0.00    +0.000 A 
ATOM     16  C   UNL     1       5.869   5.231  19.111  0.00  0.00    +0.000 A 
ATOM     17  O   UNL     1       4.769   4.405  19.041  0.00  0.00    +0.000 OA
ATOM     18  C   UNL     1       4.532   3.720  17.854  0.00  0.00    +0.000 A 
ATOM     19  C   UNL     1       5.388   3.749  16.823  0.00  0.00    +0.000 A 
ATOM     20  C   UNL     1       6.624   4.551  16.922  0.00  0.00    +0.000 A 
ATOM     21  O   UNL     1       7.449   4.545  16.016  0.00  0.00    +0.000 OA
BRANCH  18  22
ATOM     22  C   UNL     1       3.247   2.946  17.817  0.00  0.00    +0.000 C 
BRANCH  22  23
ATOM     23  O   UNL     1       2.285   3.639  17.033  0.00  0.00    +0.000 OA
ATOM     24  H   UNL     1       2.780   4.249  16.460  0.00  0.00    +0.000 HD
ENDBRANCH  22  23
ENDBRANCH  18  22
ENDBRANCH  14  15
ENDBRANCH   2  14
TORSDOF 6
ENDMDL
MODEL 6
REMARK VINA RESULT:      -7.7      1.373      2.164
REMARK  Name = 
REMARK  6 active torsions:
REMARK  status: ('A' for Active; 'I' for Inactive)
REMARK    1  A    between atoms: C_2  and  C_3
REMARK    2  A    between atoms: C_2  and  O_14
REMARK    3  A    between atoms: C_4  and  C_5
REMARK    4  A    between atoms: O_14  and  C_15
REMARK    5  A    between atoms: C_18  and  C_19
REMARK    6  A    between atoms: C_19  and  O_20
REMARK                            x       y       z     vdW  Elec       q    Type
REMARK                         _______ _______ _______ _____ _____    ______ ____
ROOT
ATOM      1  O   UNL     1       7.622   6.624  16.292  0.00  0.00    +0.000 OA
ATOM      2  C   UNL     1       7.368   7.147  17.368  0.00  0.00    +0.000 C 
ENDROOT
BRANCH   2   3
ATOM      3  C   UNL     1       7.854   8.511  17.698  0.00  0.00    +0.000 C 
ATOM      4  C   UNL     1       8.647   8.824  18.739  0.00  0.00    +0.000 C 
BRANCH   4   5
ATOM      5  C   UNL     1       9.194  10.172  18.990  0.00  0.00    +0.000 A 
ATOM      6  C   UNL     1       9.437  10.668  20.290  0.00  0.00    +0.000 A 
ATOM      7  C   UNL     1       9.939  11.963  20.494  0.00  0.00    +0.000 A 
ATOM      8  C   UNL     1      10.196  12.734  19.385  0.00  0.00    +0.000 A 
ATOM      9  C   UNL     1       9.987  12.254  18.114  0.00  0.00    +0.000 A 
ATOM     10  C   UNL     1       9.501  10.984  17.883  0.00  0.00    +0.000 A 
ATOM     11  O   UNL     1      10.306  13.170  17.158  0.00  0.00    +0.000 OA
ATOM     12  C   UNL     1      10.700  14.292  17.975  0.00  0.00    +0.000 C 
ATOM     13  O   UNL     1      10.668  14.009  19.390  0.00  0.00    +0.000 OA
ENDBRANCH   4   5
ENDBRANCH   2   3
BRANCH   2  14
ATOM     14  O   UNL     1       6.680   6.597  18.403  0.00  0.00    +0.000 OA
BRANCH  14  15
ATOM     15  C   UNL     1       5.659   5.685  18.079  0.00  0.00    +0.000 A 
ATOM     16  C   UNL     1       5.764   4.351  18.173  0.00  0.00    +0.000 A 
ATOM     17  O   UNL     1       4.731   3.459  17.986  0.00  0.00    +0.000 OA
ATOM     18  C   UNL     1       3.452   3.964  17.781  0.00  0.00    +0.000 A 
ATOM     19  C   UNL     1       3.207   5.276  17.651  0.00  0.00    +0.000 A 
ATOM     20  C   UNL     1       4.322   6.239  17.750  0.00  0.00    +0.000 A 
ATOM     21  O   UNL     1       4.132   7.437  17.575  0.00  0.00    +0.000 OA
BRANCH  18  22
ATOM     22  C   UNL     1       2.367   2.929  17.714  0.00  0.00    +0.000 C 
BRANCH  22  23
ATOM     23  O   UNL     1       1.096   3.562  17.651  0.00  0.00    +0.000 OA
ATOM     24  H   UNL     1       0.918   3.920  18.538  0.00  0.00    +0.000 HD
ENDBRANCH  22  23
ENDBRANCH  18  22
ENDBRANCH  14  15
ENDBRANCH   2  14
TORSDOF 6
ENDMDL
MODEL 7
REMARK VINA RESULT:      -7.5      1.290      1.782
REMARK  Name = 
REMARK  6 active torsions:
REMARK  status: ('A' for Active; 'I' for Inactive)
REMARK    1  A    between atoms: C_2  and  C_3
REMARK    2  A    between atoms: C_2  and  O_14
REMARK    3  A    between atoms: C_4  and  C_5
REMARK    4  A    between atoms: O_14  and  C_15
REMARK    5  A    between atoms: C_18  and  C_19
REMARK    6  A    between atoms: C_19  and  O_20
REMARK                            x       y       z     vdW  Elec       q    Type
REMARK                         _______ _______ _______ _____ _____    ______ ____
ROOT
ATOM      1  O   UNL     1       7.915   6.316  18.318  0.00  0.00    +0.000 OA
ATOM      2  C   UNL     1       7.485   7.210  17.602  0.00  0.00    +0.000 C 
ENDROOT
BRANCH   2   3
ATOM      3  C   UNL     1       7.881   8.627  17.815  0.00  0.00    +0.000 C 
ATOM      4  C   UNL     1       8.733   9.064  18.759  0.00  0.00    +0.000 C 
BRANCH   4   5
ATOM      5  C   UNL     1       9.183  10.464  18.887  0.00  0.00    +0.000 A 
ATOM      6  C   UNL     1       9.417  11.295  17.769  0.00  0.00    +0.000 A 
ATOM      7  C   UNL     1       9.864  12.617  17.924  0.00  0.00    +0.000 A 
ATOM      8  C   UNL     1      10.060  13.082  19.204  0.00  0.00    +0.000 A 
ATOM      9  C   UNL     1       9.812  12.290  20.300  0.00  0.00    +0.000 A 
ATOM     10  C   UNL     1       9.367  10.991  20.177  0.00  0.00    +0.000 A 
ATOM     11  O   UNL     1      10.065  12.938  21.471  0.00  0.00    +0.000 OA
ATOM     12  C   UNL     1      10.537  14.211  20.984  0.00  0.00    +0.000 C 
ATOM     13  O   UNL     1      10.501  14.322  19.545  0.00  0.00    +0.000 OA
ENDBRANCH   4   5
ENDBRANCH   2   3
BRANCH   2  14
ATOM     14  O   UNL     1       6.597   7.087  16.582  0.00  0.00    +0.000 OA
BRANCH  14  15
ATOM     15  C   UNL     1       5.675   6.027  16.662  0.00  0.00    +0.000 A 
ATOM     16  C   UNL     1       5.935   4.757  16.316  0.00  0.00    +0.000 A 
ATOM     17  O   UNL     1       5.085   3.691  16.515  0.00  0.00    +0.000 OA
ATOM     18  C   UNL     1       3.904   3.910  17.216  0.00  0.00    +0.000 A 
ATOM     19  C   UNL     1       3.514   5.132  17.608  0.00  0.00    +0.000 A 
ATOM     20  C   UNL     1       4.369   6.300  17.312  0.00  0.00    +0.000 A 
ATOM     21  O   UNL     1       4.006   7.433  17.607  0.00  0.00    +0.000 OA
BRANCH  18  22
ATOM     22  C   UNL     1       3.099   2.676  17.500  0.00  0.00    +0.000 C 
BRANCH  22  23
ATOM     23  O   UNL     1       3.952   1.638  17.966  0.00  0.00    +0.000 OA
ATOM     24  H   UNL     1       4.488   2.017  18.683  0.00  0.00    +0.000 HD
ENDBRANCH  22  23
ENDBRANCH  18  22
ENDBRANCH  14  15
ENDBRANCH   2  14
TORSDOF 6
ENDMDL
MODEL 8
REMARK VINA RESULT:      -7.5      1.402      1.838
REMARK  Name = 
REMARK  6 active torsions:
REMARK  status: ('A' for Active; 'I' for Inactive)
REMARK    1  A    between atoms: C_2  and  C_3
REMARK    2  A    between atoms: C_2  and  O_14
REMARK    3  A    between atoms: C_4  and  C_5
REMARK    4  A    between atoms: O_14  and  C_15
REMARK    5  A    between atoms: C_18  and  C_19
REMARK    6  A    between atoms: C_19  and  O_20
REMARK                            x       y       z     vdW  Elec       q    Type
REMARK                         _______ _______ _______ _____ _____    ______ ____
ROOT
ATOM      1  O   UNL     1       8.015   6.267  16.932  0.00  0.00    +0.000 OA
ATOM      2  C   UNL     1       7.298   7.179  17.321  0.00  0.00    +0.000 C 
ENDROOT
BRANCH   2   3
ATOM      3  C   UNL     1       7.855   8.521  17.632  0.00  0.00    +0.000 C 
ATOM      4  C   UNL     1       8.558   8.835  18.735  0.00  0.00    +0.000 C 
BRANCH   4   5
ATOM      5  C   UNL     1       9.182  10.151  18.974  0.00  0.00    +0.000 A 
ATOM      6  C   UNL     1       9.527  10.609  20.265  0.00  0.00    +0.000 A 
ATOM      7  C   UNL     1      10.101  11.875  20.461  0.00  0.00    +0.000 A 
ATOM      8  C   UNL     1      10.327  12.656  19.350  0.00  0.00    +0.000 A 
ATOM      9  C   UNL     1      10.019  12.211  18.087  0.00  0.00    +0.000 A 
ATOM     10  C   UNL     1       9.460  10.970  17.865  0.00  0.00    +0.000 A 
ATOM     11  O   UNL     1      10.321  13.131  17.129  0.00  0.00    +0.000 OA
ATOM     12  C   UNL     1      10.817  14.217  17.939  0.00  0.00    +0.000 C 
ATOM     13  O   UNL     1      10.857  13.907  19.348  0.00  0.00    +0.000 OA
ENDBRANCH   4   5
ENDBRANCH   2   3
BRANCH   2  14
ATOM     14  O   UNL     1       5.963   7.124  17.565  0.00  0.00    +0.000 OA
BRANCH  14  15
ATOM     15  C   UNL     1       5.428   5.870  17.915  0.00  0.00    +0.000 A 
ATOM     16  C   UNL     1       5.311   5.412  19.171  0.00  0.00    +0.000 A 
ATOM     17  O   UNL     1       4.671   4.246  19.532  0.00  0.00    +0.000 OA
ATOM     18  C   UNL     1       4.002   3.528  18.547  0.00  0.00    +0.000 A 
ATOM     19  C   UNL     1       4.050   3.866  17.251  0.00  0.00    +0.000 A 
ATOM     20  C   UNL     1       4.817   5.057  16.835  0.00  0.00    +0.000 A 
ATOM     21  O   UNL     1       4.924   5.351  15.650  0.00  0.00    +0.000 OA
BRANCH  18  22
ATOM     22  C   UNL     1       3.225   2.344  19.046  0.00  0.00    +0.000 C 
BRANCH  22  23
ATOM     23  O   UNL     1       3.146   1.353  18.030  0.00  0.00    +0.000 OA
ATOM     24  H   UNL     1       2.608   1.731  17.313  0.00  0.00    +0.000 HD
ENDBRANCH  22  23
ENDBRANCH  18  22
ENDBRANCH  14  15
ENDBRANCH   2  14
TORSDOF 6
ENDMDL
MODEL 9
REMARK VINA RESULT:      -7.4      1.503      2.183
REMARK  Name = 
REMARK  6 active torsions:
REMARK  status: ('A' for Active; 'I' for Inactive)
REMARK    1  A    between atoms: C_2  and  C_3
REMARK    2  A    between atoms: C_2  and  O_14
REMARK    3  A    between atoms: C_4  and  C_5
REMARK    4  A    between atoms: O_14  and  C_15
REMARK    5  A    between atoms: C_18  and  C_19
REMARK    6  A    between atoms: C_19  and  O_20
REMARK                            x       y       z     vdW  Elec       q    Type
REMARK                         _______ _______ _______ _____ _____    ______ ____
ROOT
ATOM      1  O   UNL     1       7.407   6.600  16.387  0.00  0.00    +0.000 OA
ATOM      2  C   UNL     1       7.424   6.778  17.597  0.00  0.00    +0.000 C 
ENDROOT
BRANCH   2   3
ATOM      3  C   UNL     1       8.135   7.935  18.197  0.00  0.00    +0.000 C 
ATOM      4  C   UNL     1       8.104   9.196  17.730  0.00  0.00    +0.000 C 
BRANCH   4   5
ATOM      5  C   UNL     1       8.742  10.346  18.401  0.00  0.00    +0.000 A 
ATOM      6  C   UNL     1       9.392  10.236  19.650  0.00  0.00    +0.000 A 
ATOM      7  C   UNL     1       9.972  11.353  20.271  0.00  0.00    +0.000 A 
ATOM      8  C   UNL     1       9.895  12.562  19.618  0.00  0.00    +0.000 A 
ATOM      9  C   UNL     1       9.287  12.676  18.391  0.00  0.00    +0.000 A 
ATOM     10  C   UNL     1       8.715  11.595  17.755  0.00  0.00    +0.000 A 
ATOM     11  O   UNL     1       9.320  13.953  17.916  0.00  0.00    +0.000 OA
ATOM     12  C   UNL     1       9.983  14.632  19.003  0.00  0.00    +0.000 C 
ATOM     13  O   UNL     1      10.383  13.747  20.072  0.00  0.00    +0.000 OA
ENDBRANCH   4   5
ENDBRANCH   2   3
BRANCH   2  14
ATOM     14  O   UNL     1       6.871   5.981  18.549  0.00  0.00    +0.000 OA
BRANCH  14  15
ATOM     15  C   UNL     1       5.498   5.701  18.429  0.00  0.00    +0.000 A 
ATOM     16  C   UNL     1       4.605   6.491  17.813  0.00  0.00    +0.000 A 
ATOM     17  O   UNL     1       3.288   6.164  17.576  0.00  0.00    +0.000 OA
ATOM     18  C   UNL     1       2.857   4.883  17.902  0.00  0.00    +0.000 A 
ATOM     19  C   UNL     1       3.640   3.998  18.535  0.00  0.00    +0.000 A 
ATOM     20  C   UNL     1       5.025   4.371  18.886  0.00  0.00    +0.000 A 
ATOM     21  O   UNL     1       5.740   3.601  19.517  0.00  0.00    +0.000 OA
BRANCH  18  22
ATOM     22  C   UNL     1       1.447   4.568  17.494  0.00  0.00    +0.000 C 
BRANCH  22  23
ATOM     23  O   UNL     1       1.078   3.283  17.977  0.00  0.00    +0.000 OA
ATOM     24  H   UNL     1       1.616   2.636  17.490  0.00  0.00    +0.000 HD
ENDBRANCH  22  23
ENDBRANCH  18  22
ENDBRANCH  14  15
ENDBRANCH   2  14
TORSDOF 6
ENDMDL
