MODEL 1
REMARK VINA RESULT:      -7.5      0.000      0.000
REMARK  Name = 
REMARK  6 active torsions:
REMARK  status: ('A' for Active; 'I' for Inactive)
REMARK    1  A    between atoms: C_1  and  C_2
REMARK    2  A    between atoms: N_4  and  C_5
REMARK    3  A    between atoms: C_7  and  C_8
REMARK    4  A    between atoms: C_7  and  C_9
REMARK    5  A    between atoms: C_9  and  O_10
REMARK    6  A    between atoms: N_11  and  C_12
REMARK                            x       y       z     vdW  Elec       q    Type
REMARK                         _______ _______ _______ _____ _____    ______ ____
ROOT
ATOM      1  C   UNL     1       5.270   4.285  14.424  0.00  0.00    +0.000 C 
ATOM      2  C   UNL     1       5.555   4.514  15.871  0.00  0.00    +0.000 A 
ATOM      3  C   UNL     1       4.628   4.542  16.837  0.00  0.00    +0.000 A 
ATOM      4  N   UNL     1       4.951   4.736  18.166  0.00  0.00    +0.000 N 
ATOM      5  C   UNL     1       6.266   4.888  18.584  0.00  0.00    +0.000 A 
ATOM      6  O   UNL     1       6.605   5.009  19.756  0.00  0.00    +0.000 OA
ATOM      7  N   UNL     1       7.208   4.894  17.590  0.00  0.00    +0.000 N 
ATOM      8  C   UNL     1       6.975   4.703  16.261  0.00  0.00    +0.000 A 
ATOM      9  O   UNL     1       7.883   4.680  15.438  0.00  0.00    +0.000 OA
ATOM     10  H   UNL     1       8.168   5.000  17.876  0.00  0.00    +0.000 HD
ENDROOT
BRANCH   4  11
ATOM     11  C   UNL     1       3.937   4.672  19.214  0.00  0.00    +0.000 C 
ATOM     12  C   UNL     1       3.643   3.263  19.692  0.00  0.00    +0.000 C 
ATOM     13  C   UNL     1       2.128   3.243  19.928  0.00  0.00    +0.000 C 
ATOM     14  C   UNL     1       1.807   2.708  21.336  0.00  0.00    +0.000 C 
ATOM     15  N   UNL     1       1.646   4.617  19.661  0.00  0.00    +0.000 NA
ATOM     16  C   UNL     1       1.533   5.520  20.806  0.00  0.00    +0.000 C 
ATOM     17  O   UNL     1       2.671   5.200  18.788  0.00  0.00    +0.000 OA
BRANCH  13  18
ATOM     18  C   UNL     1       1.451   2.314  18.878  0.00  0.00    +0.000 C 
BRANCH  18  19
ATOM     19  O   UNL     1       2.420   1.505  18.207  0.00  0.00    +0.000 OA
ATOM     20  H   UNL     1       3.089   2.105  17.835  0.00  0.00    +0.000 HD
ENDBRANCH  18  19
ENDBRANCH  13  18
ENDBRANCH   4  11
TORSDOF 3
ENDMDL
MODEL 2
REMARK VINA RESULT:      -7.5      1.239      1.280
REMARK  Name = 
REMARK  6 active torsions:
REMARK  status: ('A' for Active; 'I' for Inactive)
REMARK    1  A    between atoms: C_1  and  C_2
REMARK    2  A    between atoms: N_4  and  C_5
REMARK    3  A    between atoms: C_7  and  C_8
REMARK    4  A    between atoms: C_7  and  C_9
REMARK    5  A    between atoms: C_9  and  O_10
REMARK    6  A    between atoms: N_11  and  C_12
REMARK                            x       y       z     vdW  Elec       q    Type
REMARK                         _______ _______ _______ _____ _____    ______ ____
ROOT
ATOM      1  C   UNL     1       5.608   3.803  13.593  0.00  0.00    +0.000 C 
ATOM      2  C   UNL     1       5.869   4.485  14.895  0.00  0.00    +0.000 A 
ATOM      3  C   UNL     1       5.063   4.424  15.964  0.00  0.00    +0.000 A 
ATOM      4  N   UNL     1       5.365   5.057  17.154  0.00  0.00    +0.000 N 
ATOM      5  C   UNL     1       6.540   5.776  17.321  0.00  0.00    +0.000 A 
ATOM      6  O   UNL     1       6.877   6.309  18.372  0.00  0.00    +0.000 OA
ATOM      7  N   UNL     1       7.345   5.865  16.216  0.00  0.00    +0.000 N 
ATOM      8  C   UNL     1       7.125   5.267  15.011  0.00  0.00    +0.000 A 
ATOM      9  O   UNL     1       7.919   5.362  14.083  0.00  0.00    +0.000 OA
ATOM     10  H   UNL     1       8.204   6.381  16.321  0.00  0.00    +0.000 HD
ENDROOT
BRANCH   4  11
ATOM     11  C   UNL     1       4.521   4.905  18.334  0.00  0.00    +0.000 C 
ATOM     12  C   UNL     1       4.465   3.485  18.863  0.00  0.00    +0.000 C 
ATOM     13  C   UNL     1       3.011   3.295  19.310  0.00  0.00    +0.000 C 
ATOM     14  C   UNL     1       2.953   2.765  20.755  0.00  0.00    +0.000 C 
ATOM     15  N   UNL     1       2.336   4.596  19.098  0.00  0.00    +0.000 NA
ATOM     16  C   UNL     1       2.275   5.510  20.238  0.00  0.00    +0.000 C 
ATOM     17  O   UNL     1       3.154   5.270  18.083  0.00  0.00    +0.000 OA
BRANCH  13  18
ATOM     18  C   UNL     1       2.311   2.265  18.375  0.00  0.00    +0.000 C 
BRANCH  18  19
ATOM     19  O   UNL     1       2.074   2.823  17.081  0.00  0.00    +0.000 OA
ATOM     20  H   UNL     1       2.914   3.207  16.775  0.00  0.00    +0.000 HD
ENDBRANCH  18  19
ENDBRANCH  13  18
ENDBRANCH   4  11
TORSDOF 3
ENDMDL
MODEL 3
REMARK VINA RESULT:      -7.2      1.680      5.578
REMARK  Name = 
REMARK  6 active torsions:
REMARK  status: ('A' for Active; 'I' for Inactive)
REMARK    1  A    between atoms: C_1  and  C_2
REMARK    2  A    between atoms: N_4  and  C_5
REMARK    3  A    between atoms: C_7  and  C_8
REMARK    4  A    between atoms: C_7  and  C_9
REMARK    5  A    between atoms: C_9  and  O_10
REMARK    6  A    between atoms: N_11  and  C_12
REMARK                            x       y       z     vdW  Elec       q    Type
REMARK                         _______ _______ _______ _____ _____    ______ ____
ROOT
ATOM      1  C   UNL     1       1.081   3.000  21.145  0.00  0.00    +0.000 C 
ATOM      2  C   UNL     1       1.913   3.351  19.957  0.00  0.00    +0.000 A 
ATOM      3  C   UNL     1       3.037   4.078  20.000  0.00  0.00    +0.000 A 
ATOM      4  N   UNL     1       3.782   4.355  18.871  0.00  0.00    +0.000 N 
ATOM      5  C   UNL     1       3.420   3.872  17.620  0.00  0.00    +0.000 A 
ATOM      6  O   UNL     1       4.076   4.046  16.600  0.00  0.00    +0.000 OA
ATOM      7  N   UNL     1       2.252   3.159  17.575  0.00  0.00    +0.000 N 
ATOM      8  C   UNL     1       1.465   2.836  18.640  0.00  0.00    +0.000 A 
ATOM      9  O   UNL     1       0.453   2.155  18.518  0.00  0.00    +0.000 OA
ATOM     10  H   UNL     1       1.976   2.798  16.675  0.00  0.00    +0.000 HD
ENDROOT
BRANCH   4  11
ATOM     11  C   UNL     1       5.050   5.071  18.950  0.00  0.00    +0.000 C 
ATOM     12  C   UNL     1       5.265   6.057  17.818  0.00  0.00    +0.000 C 
ATOM     13  C   UNL     1       6.757   5.943  17.483  0.00  0.00    +0.000 C 
ATOM     14  C   UNL     1       7.418   7.334  17.476  0.00  0.00    +0.000 C 
ATOM     15  N   UNL     1       7.331   4.987  18.456  0.00  0.00    +0.000 NA
ATOM     16  C   UNL     1       7.931   5.546  19.667  0.00  0.00    +0.000 C 
ATOM     17  O   UNL     1       6.184   4.190  18.905  0.00  0.00    +0.000 OA
BRANCH  13  18
ATOM     18  C   UNL     1       6.924   5.307  16.071  0.00  0.00    +0.000 C 
BRANCH  18  19
ATOM     19  O   UNL     1       6.885   3.880  16.142  0.00  0.00    +0.000 OA
ATOM     20  H   UNL     1       7.712   3.590  16.566  0.00  0.00    +0.000 HD
ENDBRANCH  18  19
ENDBRANCH  13  18
ENDBRANCH   4  11
TORSDOF 3
ENDMDL
MODEL 4
REMARK VINA RESULT:      -7.1      1.796      2.335
REMARK  Name = 
REMARK  6 active torsions:
REMARK  status: ('A' for Active; 'I' for Inactive)
REMARK    1  A    between atoms: C_1  and  C_2
REMARK    2  A    between atoms: N_4  and  C_5
REMARK    3  A    between atoms: C_7  and  C_8
REMARK    4  A    between atoms: C_7  and  C_9
REMARK    5  A    between atoms: C_9  and  O_10
REMARK    6  A    between atoms: N_11  and  C_12
REMARK                            x       y       z     vdW  Elec       q    Type
REMARK                         _______ _______ _______ _____ _____    ______ ____
ROOT
ATOM      1  C   UNL     1       5.457   3.407  12.586  0.00  0.00    +0.000 C 
ATOM      2  C   UNL     1       5.927   4.127  13.806  0.00  0.00    +0.000 A 
ATOM      3  C   UNL     1       5.300   4.116  14.989  0.00  0.00    +0.000 A 
ATOM      4  N   UNL     1       5.793   4.784  16.093  0.00  0.00    +0.000 N 
ATOM      5  C   UNL     1       6.989   5.487  16.047  0.00  0.00    +0.000 A 
ATOM      6  O   UNL     1       7.493   6.050  17.013  0.00  0.00    +0.000 OA
ATOM      7  N   UNL     1       7.610   5.525  14.827  0.00  0.00    +0.000 N 
ATOM      8  C   UNL     1       7.195   4.890  13.694  0.00  0.00    +0.000 A 
ATOM      9  O   UNL     1       7.834   4.940  12.649  0.00  0.00    +0.000 OA
ATOM     10  H   UNL     1       8.481   6.029  14.777  0.00  0.00    +0.000 HD
ENDROOT
BRANCH   4  11
ATOM     11  C   UNL     1       5.144   4.686  17.396  0.00  0.00    +0.000 C 
ATOM     12  C   UNL     1       4.695   3.281  17.749  0.00  0.00    +0.000 C 
ATOM     13  C   UNL     1       3.352   3.472  18.462  0.00  0.00    +0.000 C 
ATOM     14  C   UNL     1       3.346   2.729  19.812  0.00  0.00    +0.000 C 
ATOM     15  N   UNL     1       3.133   4.933  18.556  0.00  0.00    +0.000 NA
ATOM     16  C   UNL     1       3.565   5.595  19.787  0.00  0.00    +0.000 C 
ATOM     17  O   UNL     1       3.961   5.495  17.483  0.00  0.00    +0.000 OA
BRANCH  13  18
ATOM     18  C   UNL     1       2.207   2.900  17.577  0.00  0.00    +0.000 C 
BRANCH  18  19
ATOM     19  O   UNL     1       1.274   3.922  17.218  0.00  0.00    +0.000 OA
ATOM     20  H   UNL     1       1.762   4.591  16.707  0.00  0.00    +0.000 HD
ENDBRANCH  18  19
ENDBRANCH  13  18
ENDBRANCH   4  11
TORSDOF 3
ENDMDL
MODEL 5
REMARK VINA RESULT:      -6.9      2.046      2.664
REMARK  Name = 
REMARK  6 active torsions:
REMARK  status: ('A' for Active; 'I' for Inactive)
REMARK    1  A    between atoms: C_1  and  C_2
REMARK    2  A    between atoms: N_4  and  C_5
REMARK    3  A    between atoms: C_7  and  C_8
REMARK    4  A    between atoms: C_7  and  C_9
REMARK    5  A    between atoms: C_9  and  O_10
REMARK    6  A    between atoms: N_11  and  C_12
REMARK                            x       y       z     vdW  Elec       q    Type
REMARK                         _______ _______ _______ _____ _____    ______ ____
ROOT
ATOM      1  C   UNL     1       7.833   4.674  17.452  0.00  0.00    +0.000 C 
ATOM      2  C   UNL     1       6.440   5.202  17.548  0.00  0.00    +0.000 A 
ATOM      3  C   UNL     1       5.391   4.508  18.008  0.00  0.00    +0.000 A 
ATOM      4  N   UNL     1       4.125   5.054  18.096  0.00  0.00    +0.000 N 
ATOM      5  C   UNL     1       3.870   6.370  17.734  0.00  0.00    +0.000 A 
ATOM      6  O   UNL     1       2.777   6.914  17.845  0.00  0.00    +0.000 OA
ATOM      7  N   UNL     1       4.938   7.065  17.232  0.00  0.00    +0.000 N 
ATOM      8  C   UNL     1       6.216   6.604  17.119  0.00  0.00    +0.000 A 
ATOM      9  O   UNL     1       7.126   7.308  16.696  0.00  0.00    +0.000 OA
ATOM     10  H   UNL     1       4.771   8.023  16.967  0.00  0.00    +0.000 HD
ENDROOT
BRANCH   4  11
ATOM     11  C   UNL     1       3.014   4.314  18.684  0.00  0.00    +0.000 C 
ATOM     12  C   UNL     1       3.074   4.226  20.197  0.00  0.00    +0.000 C 
ATOM     13  C   UNL     1       2.585   2.810  20.523  0.00  0.00    +0.000 C 
ATOM     14  C   UNL     1       1.462   2.854  21.575  0.00  0.00    +0.000 C 
ATOM     15  N   UNL     1       2.203   2.193  19.232  0.00  0.00    +0.000 NA
ATOM     16  C   UNL     1       0.798   2.288  18.837  0.00  0.00    +0.000 C 
ATOM     17  O   UNL     1       2.957   2.953  18.228  0.00  0.00    +0.000 OA
BRANCH  13  18
ATOM     18  C   UNL     1       3.766   1.970  21.092  0.00  0.00    +0.000 C 
BRANCH  18  19
ATOM     19  O   UNL     1       4.827   1.864  20.141  0.00  0.00    +0.000 OA
ATOM     20  H   UNL     1       4.716   1.016  19.678  0.00  0.00    +0.000 HD
ENDBRANCH  18  19
ENDBRANCH  13  18
ENDBRANCH   4  11
TORSDOF 3
ENDMDL
MODEL 6
REMARK VINA RESULT:      -6.8      1.444      1.971
REMARK  Name = 
REMARK  6 active torsions:
REMARK  status: ('A' for Active; 'I' for Inactive)
REMARK    1  A    between atoms: C_1  and  C_2
REMARK    2  A    between atoms: N_4  and  C_5
REMARK    3  A    between atoms: C_7  and  C_8
REMARK    4  A    between atoms: C_7  and  C_9
REMARK    5  A    between atoms: C_9  and  O_10
REMARK    6  A    between atoms: N_11  and  C_12
REMARK                            x       y       z     vdW  Elec       q    Type
REMARK                         _______ _______ _______ _____ _____    ______ ____
ROOT
ATOM      1  C   UNL     1       7.768   7.410  17.445  0.00  0.00    +0.000 C 
ATOM      2  C   UNL     1       6.772   6.301  17.373  0.00  0.00    +0.000 A 
ATOM      3  C   UNL     1       5.860   6.032  18.316  0.00  0.00    +0.000 A 
ATOM      4  N   UNL     1       4.945   5.005  18.188  0.00  0.00    +0.000 N 
ATOM      5  C   UNL     1       4.901   4.203  17.056  0.00  0.00    +0.000 A 
ATOM      6  O   UNL     1       4.074   3.316  16.873  0.00  0.00    +0.000 OA
ATOM      7  N   UNL     1       5.857   4.459  16.109  0.00  0.00    +0.000 N 
ATOM      8  C   UNL     1       6.788   5.454  16.155  0.00  0.00    +0.000 A 
ATOM      9  O   UNL     1       7.584   5.642  15.243  0.00  0.00    +0.000 OA
ATOM     10  H   UNL     1       5.837   3.888  15.279  0.00  0.00    +0.000 HD
ENDROOT
BRANCH   4  11
ATOM     11  C   UNL     1       3.902   4.785  19.183  0.00  0.00    +0.000 C 
ATOM     12  C   UNL     1       3.994   3.438  19.874  0.00  0.00    +0.000 C 
ATOM     13  C   UNL     1       2.538   2.987  20.040  0.00  0.00    +0.000 C 
ATOM     14  C   UNL     1       2.258   2.587  21.500  0.00  0.00    +0.000 C 
ATOM     15  N   UNL     1       1.698   4.093  19.527  0.00  0.00    +0.000 NA
ATOM     16  C   UNL     1       1.215   5.071  20.501  0.00  0.00    +0.000 C 
ATOM     17  O   UNL     1       2.582   4.831  18.618  0.00  0.00    +0.000 OA
BRANCH  13  18
ATOM     18  C   UNL     1       2.268   1.754  19.128  0.00  0.00    +0.000 C 
BRANCH  18  19
ATOM     19  O   UNL     1       1.627   2.145  17.911  0.00  0.00    +0.000 OA
ATOM     20  H   UNL     1       2.327   2.304  17.255  0.00  0.00    +0.000 HD
ENDBRANCH  18  19
ENDBRANCH  13  18
ENDBRANCH   4  11
TORSDOF 3
ENDMDL
MODEL 7
REMARK VINA RESULT:      -6.8      1.586      1.804
REMARK  Name = 
REMARK  6 active torsions:
REMARK  status: ('A' for Active; 'I' for Inactive)
REMARK    1  A    between atoms: C_1  and  C_2
REMARK    2  A    between atoms: N_4  and  C_5
REMARK    3  A    between atoms: C_7  and  C_8
REMARK    4  A    between atoms: C_7  and  C_9
REMARK    5  A    between atoms: C_9  and  O_10
REMARK    6  A    between atoms: N_11  and  C_12
REMARK                            x       y       z     vdW  Elec       q    Type
REMARK                         _______ _______ _______ _____ _____    ______ ____
ROOT
ATOM      1  C   UNL     1       5.729   4.028  13.401  0.00  0.00    +0.000 C 
ATOM      2  C   UNL     1       5.974   4.235  14.859  0.00  0.00    +0.000 A 
ATOM      3  C   UNL     1       5.163   3.812  15.837  0.00  0.00    +0.000 A 
ATOM      4  N   UNL     1       5.450   4.012  17.173  0.00  0.00    +0.000 N 
ATOM      5  C   UNL     1       6.616   4.643  17.583  0.00  0.00    +0.000 A 
ATOM      6  O   UNL     1       6.940   4.795  18.756  0.00  0.00    +0.000 OA
ATOM      7  N   UNL     1       7.427   5.103  16.580  0.00  0.00    +0.000 N 
ATOM      8  C   UNL     1       7.221   4.942  15.242  0.00  0.00    +0.000 A 
ATOM      9  O   UNL     1       8.020   5.350  14.407  0.00  0.00    +0.000 OA
ATOM     10  H   UNL     1       8.280   5.561  16.860  0.00  0.00    +0.000 HD
ENDROOT
BRANCH   4  11
ATOM     11  C   UNL     1       4.599   3.466  18.225  0.00  0.00    +0.000 C 
ATOM     12  C   UNL     1       3.371   2.746  17.703  0.00  0.00    +0.000 C 
ATOM     13  C   UNL     1       2.257   3.115  18.690  0.00  0.00    +0.000 C 
ATOM     14  C   UNL     1       1.544   1.849  19.200  0.00  0.00    +0.000 C 
ATOM     15  N   UNL     1       2.890   3.940  19.744  0.00  0.00    +0.000 NA
ATOM     16  C   UNL     1       3.346   3.247  20.949  0.00  0.00    +0.000 C 
ATOM     17  O   UNL     1       4.096   4.481  19.108  0.00  0.00    +0.000 OA
BRANCH  13  18
ATOM     18  C   UNL     1       1.210   4.020  17.976  0.00  0.00    +0.000 C 
BRANCH  18  19
ATOM     19  O   UNL     1       1.745   5.320  17.718  0.00  0.00    +0.000 OA
ATOM     20  H   UNL     1       1.110   5.968  18.070  0.00  0.00    +0.000 HD
ENDBRANCH  18  19
ENDBRANCH  13  18
ENDBRANCH   4  11
TORSDOF 3
ENDMDL
MODEL 8
REMARK VINA RESULT:      -6.7      1.795      2.605
REMARK  Name = 
REMARK  6 active torsions:
REMARK  status: ('A' for Active; 'I' for Inactive)
REMARK    1  A    between atoms: C_1  and  C_2
REMARK    2  A    between atoms: N_4  and  C_5
REMARK    3  A    between atoms: C_7  and  C_8
REMARK    4  A    between atoms: C_7  and  C_9
REMARK    5  A    between atoms: C_9  and  O_10
REMARK    6  A    between atoms: N_11  and  C_12
REMARK                            x       y       z     vdW  Elec       q    Type
REMARK                         _______ _______ _______ _____ _____    ______ ____
ROOT
ATOM      1  C   UNL     1       6.337   3.628  12.772  0.00  0.00    +0.000 C 
ATOM      2  C   UNL     1       6.235   4.122  14.177  0.00  0.00    +0.000 A 
ATOM      3  C   UNL     1       5.359   3.671  15.084  0.00  0.00    +0.000 A 
ATOM      4  N   UNL     1       5.324   4.149  16.379  0.00  0.00    +0.000 N 
ATOM      5  C   UNL     1       6.217   5.112  16.827  0.00  0.00    +0.000 A 
ATOM      6  O   UNL     1       6.260   5.528  17.979  0.00  0.00    +0.000 OA
ATOM      7  N   UNL     1       7.089   5.596  15.888  0.00  0.00    +0.000 N 
ATOM      8  C   UNL     1       7.194   5.175  14.595  0.00  0.00    +0.000 A 
ATOM      9  O   UNL     1       8.033   5.632  13.828  0.00  0.00    +0.000 OA
ATOM     10  H   UNL     1       7.747   6.293  16.197  0.00  0.00    +0.000 HD
ENDROOT
BRANCH   4  11
ATOM     11  C   UNL     1       4.423   3.582  17.377  0.00  0.00    +0.000 C 
ATOM     12  C   UNL     1       3.058   4.241  17.409  0.00  0.00    +0.000 C 
ATOM     13  C   UNL     1       2.689   4.298  18.896  0.00  0.00    +0.000 C 
ATOM     14  C   UNL     1       1.291   3.697  19.130  0.00  0.00    +0.000 C 
ATOM     15  N   UNL     1       3.786   3.620  19.623  0.00  0.00    +0.000 NA
ATOM     16  C   UNL     1       3.613   2.198  19.920  0.00  0.00    +0.000 C 
ATOM     17  O   UNL     1       4.934   3.705  18.714  0.00  0.00    +0.000 OA
BRANCH  13  18
ATOM     18  C   UNL     1       2.679   5.780  19.373  0.00  0.00    +0.000 C 
BRANCH  18  19
ATOM     19  O   UNL     1       3.977   6.189  19.809  0.00  0.00    +0.000 OA
ATOM     20  H   UNL     1       4.369   6.717  19.092  0.00  0.00    +0.000 HD
ENDBRANCH  18  19
ENDBRANCH  13  18
ENDBRANCH   4  11
TORSDOF 3
ENDMDL
MODEL 9
REMARK VINA RESULT:      -6.5      1.950      5.384
REMARK  Name = 
REMARK  6 active torsions:
REMARK  status: ('A' for Active; 'I' for Inactive)
REMARK    1  A    between atoms: C_1  and  C_2
REMARK    2  A    between atoms: N_4  and  C_5
REMARK    3  A    between atoms: C_7  and  C_8
REMARK    4  A    between atoms: C_7  and  C_9
REMARK    5  A    between atoms: C_9  and  O_10
REMARK    6  A    between atoms: N_11  and  C_12
REMARK                            x       y       z     vdW  Elec       q    Type
REMARK                         _______ _______ _______ _____ _____    ______ ____
ROOT
ATOM      1  C   UNL     1       0.823   4.357  17.192  0.00  0.00    +0.000 C 
ATOM      2  C   UNL     1       2.010   3.911  17.978  0.00  0.00    +0.000 A 
ATOM      3  C   UNL     1       3.169   4.578  18.057  0.00  0.00    +0.000 A 
ATOM      4  N   UNL     1       4.230   4.129  18.820  0.00  0.00    +0.000 N 
ATOM      5  C   UNL     1       4.147   2.967  19.574  0.00  0.00    +0.000 A 
ATOM      6  O   UNL     1       5.041   2.558  20.307  0.00  0.00    +0.000 OA
ATOM      7  N   UNL     1       2.974   2.270  19.464  0.00  0.00    +0.000 N 
ATOM      8  C   UNL     1       1.880   2.645  18.741  0.00  0.00    +0.000 A 
ATOM      9  O   UNL     1       0.849   1.982  18.730  0.00  0.00    +0.000 OA
ATOM     10  H   UNL     1       2.896   1.425  20.007  0.00  0.00    +0.000 HD
ENDROOT
BRANCH   4  11
ATOM     11  C   UNL     1       5.450   4.915  18.965  0.00  0.00    +0.000 C 
ATOM     12  C   UNL     1       5.542   6.081  17.999  0.00  0.00    +0.000 C 
ATOM     13  C   UNL     1       7.020   6.131  17.592  0.00  0.00    +0.000 C 
ATOM     14  C   UNL     1       7.586   7.551  17.784  0.00  0.00    +0.000 C 
ATOM     15  N   UNL     1       7.704   5.078  18.377  0.00  0.00    +0.000 NA
ATOM     16  C   UNL     1       8.324   5.482  19.638  0.00  0.00    +0.000 C 
ATOM     17  O   UNL     1       6.636   4.138  18.735  0.00  0.00    +0.000 OA
BRANCH  13  18
ATOM     18  C   UNL     1       7.159   5.740  16.092  0.00  0.00    +0.000 C 
BRANCH  18  19
ATOM     19  O   UNL     1       7.798   4.469  15.949  0.00  0.00    +0.000 OA
ATOM     20  H   UNL     1       8.716   4.637  15.676  0.00  0.00    +0.000 HD
ENDBRANCH  18  19
ENDBRANCH  13  18
ENDBRANCH   4  11
TORSDOF 3
ENDMDL
