MODEL 1
REMARK VINA RESULT:      -6.6      0.000      0.000
REMARK  Name = 
REMARK  9 active torsions:
REMARK  status: ('A' for Active; 'I' for Inactive)
REMARK    1  A    between atoms: C_1  and  N_2
REMARK    2  A    between atoms: N_2  and  C_3
REMARK    3  A    between atoms: N_2  and  C_13
REMARK    4  A    between atoms: C_3  and  C_4
REMARK    5  A    between atoms: C_4  and  O_5
REMARK    6  A    between atoms: O_5  and  C_6
REMARK    7  A    between atoms: C_13  and  C_14
REMARK    8  A    between atoms: C_14  and  O_15
REMARK    9  A    between atoms: C_14  and  C_16
REMARK                            x       y       z     vdW  Elec       q    Type
REMARK                         _______ _______ _______ _____ _____    ______ ____
ROOT
ATOM      1  C   UNL     1       7.438   4.570  17.589  0.00  0.00    +0.000 C 
ATOM      2  N   UNL     1       6.229   5.225  18.109  0.00  0.00    +0.000 NA
ENDROOT
BRANCH   2   3
ATOM      3  C   UNL     1       5.435   5.734  16.959  0.00  0.00    +0.000 C 
BRANCH   3   4
ATOM      4  C   UNL     1       4.676   7.040  17.263  0.00  0.00    +0.000 C 
BRANCH   4   5
ATOM      5  O   UNL     1       3.265   6.797  17.259  0.00  0.00    +0.000 OA
BRANCH   5   6
ATOM      6  C   UNL     1       2.581   7.478  18.237  0.00  0.00    +0.000 A 
ATOM      7  C   UNL     1       2.424   7.028  19.555  0.00  0.00    +0.000 A 
ATOM      8  C   UNL     1       1.708   7.791  20.480  0.00  0.00    +0.000 A 
ATOM      9  C   UNL     1       1.160   9.011  20.090  0.00  0.00    +0.000 A 
ATOM     10 BR   UNL     1       0.191  10.039  21.348  0.00  0.00    +0.000 Br
ATOM     11  C   UNL     1       1.322   9.475  18.788  0.00  0.00    +0.000 A 
ATOM     12  C   UNL     1       2.043   8.708  17.866  0.00  0.00    +0.000 A 
ENDBRANCH   5   6
ENDBRANCH   4   5
ENDBRANCH   3   4
ENDBRANCH   2   3
BRANCH   2  13
ATOM     13  C   UNL     1       5.423   4.279  18.922  0.00  0.00    +0.000 C 
BRANCH  13  14
ATOM     14  C   UNL     1       4.192   3.627  18.226  0.00  0.00    +0.000 C 
BRANCH  14  15
ATOM     15  C   UNL     1       3.090   3.450  19.252  0.00  0.00    +0.000 A 
ATOM     16  C   UNL     1       3.407   3.066  20.561  0.00  0.00    +0.000 A 
ATOM     17  C   UNL     1       2.399   2.782  21.480  0.00  0.00    +0.000 A 
ATOM     18  C   UNL     1       1.057   2.885  21.104  0.00  0.00    +0.000 A 
ATOM     19  C   UNL     1       0.727   3.277  19.812  0.00  0.00    +0.000 A 
ATOM     20  C   UNL     1       1.735   3.556  18.882  0.00  0.00    +0.000 A 
ENDBRANCH  14  15
BRANCH  14  21
ATOM     21  O   UNL     1       4.516   2.351  17.663  0.00  0.00    +0.000 OA
ATOM     22  H   UNL     1       3.873   2.188  16.949  0.00  0.00    +0.000 HD
ENDBRANCH  14  21
ENDBRANCH  13  14
ENDBRANCH   2  13
TORSDOF 8
ENDMDL
MODEL 2
REMARK VINA RESULT:      -6.5      0.912      1.825
REMARK  Name = 
REMARK  9 active torsions:
REMARK  status: ('A' for Active; 'I' for Inactive)
REMARK    1  A    between atoms: C_1  and  N_2
REMARK    2  A    between atoms: N_2  and  C_3
REMARK    3  A    between atoms: N_2  and  C_13
REMARK    4  A    between atoms: C_3  and  C_4
REMARK    5  A    between atoms: C_4  and  O_5
REMARK    6  A    between atoms: O_5  and  C_6
REMARK    7  A    between atoms: C_13  and  C_14
REMARK    8  A    between atoms: C_14  and  O_15
REMARK    9  A    between atoms: C_14  and  C_16
REMARK                            x       y       z     vdW  Elec       q    Type
REMARK                         _______ _______ _______ _____ _____    ______ ____
ROOT
ATOM      1  C   UNL     1       6.090   4.326  16.446  0.00  0.00    +0.000 C 
ATOM      2  N   UNL     1       5.194   3.976  17.558  0.00  0.00    +0.000 NA
ENDROOT
BRANCH   2   3
ATOM      3  C   UNL     1       5.074   5.153  18.459  0.00  0.00    +0.000 C 
BRANCH   3   4
ATOM      4  C   UNL     1       4.495   6.403  17.768  0.00  0.00    +0.000 C 
BRANCH   4   5
ATOM      5  O   UNL     1       3.066   6.317  17.722  0.00  0.00    +0.000 OA
BRANCH   5   6
ATOM      6  C   UNL     1       2.428   7.320  18.411  0.00  0.00    +0.000 A 
ATOM      7  C   UNL     1       1.972   8.513  17.835  0.00  0.00    +0.000 A 
ATOM      8  C   UNL     1       1.335   9.477  18.620  0.00  0.00    +0.000 A 
ATOM      9  C   UNL     1       1.143   9.241  19.979  0.00  0.00    +0.000 A 
ATOM     10 BR   UNL     1       0.280  10.552  21.035  0.00  0.00    +0.000 Br
ATOM     11  C   UNL     1       1.578   8.055  20.559  0.00  0.00    +0.000 A 
ATOM     12  C   UNL     1       2.212   7.090  19.769  0.00  0.00    +0.000 A 
ENDBRANCH   5   6
ENDBRANCH   4   5
ENDBRANCH   3   4
ENDBRANCH   2   3
BRANCH   2  13
ATOM     13  C   UNL     1       3.858   3.567  17.052  0.00  0.00    +0.000 C 
BRANCH  13  14
ATOM     14  C   UNL     1       3.243   2.272  17.660  0.00  0.00    +0.000 C 
BRANCH  14  15
ATOM     15  C   UNL     1       2.573   2.623  18.975  0.00  0.00    +0.000 A 
ATOM     16  C   UNL     1       1.369   3.338  18.978  0.00  0.00    +0.000 A 
ATOM     17  C   UNL     1       0.806   3.772  20.176  0.00  0.00    +0.000 A 
ATOM     18  C   UNL     1       1.438   3.492  21.391  0.00  0.00    +0.000 A 
ATOM     19  C   UNL     1       2.627   2.772  21.404  0.00  0.00    +0.000 A 
ATOM     20  C   UNL     1       3.201   2.340  20.203  0.00  0.00    +0.000 A 
ENDBRANCH  14  15
BRANCH  14  21
ATOM     21  O   UNL     1       4.240   1.272  17.895  0.00  0.00    +0.000 OA
ATOM     22  H   UNL     1       4.846   1.632  18.568  0.00  0.00    +0.000 HD
ENDBRANCH  14  21
ENDBRANCH  13  14
ENDBRANCH   2  13
TORSDOF 8
ENDMDL
MODEL 3
REMARK VINA RESULT:      -6.4      1.191      1.279
REMARK  Name = 
REMARK  9 active torsions:
REMARK  status: ('A' for Active; 'I' for Inactive)
REMARK    1  A    between atoms: C_1  and  N_2
REMARK    2  A    between atoms: N_2  and  C_3
REMARK    3  A    between atoms: N_2  and  C_13
REMARK    4  A    between atoms: C_3  and  C_4
REMARK    5  A    between atoms: C_4  and  O_5
REMARK    6  A    between atoms: O_5  and  C_6
REMARK    7  A    between atoms: C_13  and  C_14
REMARK    8  A    between atoms: C_14  and  O_15
REMARK    9  A    between atoms: C_14  and  C_16
REMARK                            x       y       z     vdW  Elec       q    Type
REMARK                         _______ _______ _______ _____ _____    ______ ____
ROOT
ATOM      1  C   UNL     1       6.325   5.020  15.396  0.00  0.00    +0.000 C 
ATOM      2  N   UNL     1       5.467   5.202  16.576  0.00  0.00    +0.000 NA
ENDROOT
BRANCH   2   3
ATOM      3  C   UNL     1       4.836   6.546  16.501  0.00  0.00    +0.000 C 
BRANCH   3   4
ATOM      4  C   UNL     1       4.239   7.023  17.839  0.00  0.00    +0.000 C 
BRANCH   4   5
ATOM      5  O   UNL     1       2.811   6.912  17.804  0.00  0.00    +0.000 OA
BRANCH   5   6
ATOM      6  C   UNL     1       2.164   7.814  18.612  0.00  0.00    +0.000 A 
ATOM      7  C   UNL     1       1.937   7.631  19.983  0.00  0.00    +0.000 A 
ATOM      8  C   UNL     1       1.266   8.606  20.723  0.00  0.00    +0.000 A 
ATOM      9  C   UNL     1       0.832   9.771  20.094  0.00  0.00    +0.000 A 
ATOM     10 BR   UNL     1      -0.078  11.087  21.103  0.00  0.00    +0.000 Br
ATOM     11  C   UNL     1       1.064   9.971  18.737  0.00  0.00    +0.000 A 
ATOM     12  C   UNL     1       1.741   8.992  18.001  0.00  0.00    +0.000 A 
ENDBRANCH   5   6
ENDBRANCH   4   5
ENDBRANCH   3   4
ENDBRANCH   2   3
BRANCH   2  13
ATOM     13  C   UNL     1       4.430   4.140  16.644  0.00  0.00    +0.000 C 
BRANCH  13  14
ATOM     14  C   UNL     1       4.478   3.189  17.875  0.00  0.00    +0.000 C 
BRANCH  14  15
ATOM     15  C   UNL     1       3.175   3.317  18.640  0.00  0.00    +0.000 A 
ATOM     16  C   UNL     1       3.131   4.052  19.832  0.00  0.00    +0.000 A 
ATOM     17  C   UNL     1       1.974   4.078  20.606  0.00  0.00    +0.000 A 
ATOM     18  C   UNL     1       0.839   3.371  20.197  0.00  0.00    +0.000 A 
ATOM     19  C   UNL     1       0.864   2.648  19.011  0.00  0.00    +0.000 A 
ATOM     20  C   UNL     1       2.026   2.613  18.232  0.00  0.00    +0.000 A 
ENDBRANCH  14  15
BRANCH  14  21
ATOM     21  O   UNL     1       5.567   3.507  18.749  0.00  0.00    +0.000 OA
ATOM     22  H   UNL     1       5.210   3.503  19.656  0.00  0.00    +0.000 HD
ENDBRANCH  14  21
ENDBRANCH  13  14
ENDBRANCH   2  13
TORSDOF 8
ENDMDL
MODEL 4
REMARK VINA RESULT:      -6.3      1.260      1.916
REMARK  Name = 
REMARK  9 active torsions:
REMARK  status: ('A' for Active; 'I' for Inactive)
REMARK    1  A    between atoms: C_1  and  N_2
REMARK    2  A    between atoms: N_2  and  C_3
REMARK    3  A    between atoms: N_2  and  C_13
REMARK    4  A    between atoms: C_3  and  C_4
REMARK    5  A    between atoms: C_4  and  O_5
REMARK    6  A    between atoms: O_5  and  C_6
REMARK    7  A    between atoms: C_13  and  C_14
REMARK    8  A    between atoms: C_14  and  O_15
REMARK    9  A    between atoms: C_14  and  C_16
REMARK                            x       y       z     vdW  Elec       q    Type
REMARK                         _______ _______ _______ _____ _____    ______ ____
ROOT
ATOM      1  C   UNL     1       4.944   4.979  16.307  0.00  0.00    +0.000 C 
ATOM      2  N   UNL     1       4.974   5.958  17.403  0.00  0.00    +0.000 NA
ENDROOT
BRANCH   2   3
ATOM      3  C   UNL     1       4.006   7.044  17.096  0.00  0.00    +0.000 C 
BRANCH   3   4
ATOM      4  C   UNL     1       2.869   7.169  18.128  0.00  0.00    +0.000 C 
BRANCH   4   5
ATOM      5  O   UNL     1       2.359   8.507  18.134  0.00  0.00    +0.000 OA
BRANCH   5   6
ATOM      6  C   UNL     1       1.673   8.834  19.278  0.00  0.00    +0.000 A 
ATOM      7  C   UNL     1       1.646   8.051  20.440  0.00  0.00    +0.000 A 
ATOM      8  C   UNL     1       0.917   8.467  21.555  0.00  0.00    +0.000 A 
ATOM      9  C   UNL     1       0.223   9.674  21.513  0.00  0.00    +0.000 A 
ATOM     10 BR   UNL     1      -0.764  10.231  23.027  0.00  0.00    +0.000 Br
ATOM     11  C   UNL     1       0.253  10.468  20.371  0.00  0.00    +0.000 A 
ATOM     12  C   UNL     1       0.989  10.048  19.257  0.00  0.00    +0.000 A 
ENDBRANCH   5   6
ENDBRANCH   4   5
ENDBRANCH   3   4
ENDBRANCH   2   3
BRANCH   2  13
ATOM     13  C   UNL     1       4.638   5.311  18.698  0.00  0.00    +0.000 C 
BRANCH  13  14
ATOM     14  C   UNL     1       4.430   3.768  18.678  0.00  0.00    +0.000 C 
BRANCH  14  15
ATOM     15  C   UNL     1       3.230   3.428  19.542  0.00  0.00    +0.000 A 
ATOM     16  C   UNL     1       1.961   3.909  19.197  0.00  0.00    +0.000 A 
ATOM     17  C   UNL     1       0.873   3.708  20.043  0.00  0.00    +0.000 A 
ATOM     18  C   UNL     1       1.039   3.017  21.248  0.00  0.00    +0.000 A 
ATOM     19  C   UNL     1       2.290   2.524  21.597  0.00  0.00    +0.000 A 
ATOM     20  C   UNL     1       3.388   2.728  20.754  0.00  0.00    +0.000 A 
ENDBRANCH  14  15
BRANCH  14  21
ATOM     21  O   UNL     1       5.577   3.071  19.176  0.00  0.00    +0.000 OA
ATOM     22  H   UNL     1       6.052   3.692  19.759  0.00  0.00    +0.000 HD
ENDBRANCH  14  21
ENDBRANCH  13  14
ENDBRANCH   2  13
TORSDOF 8
ENDMDL
MODEL 5
REMARK VINA RESULT:      -6.2      1.869      4.265
REMARK  Name = 
REMARK  9 active torsions:
REMARK  status: ('A' for Active; 'I' for Inactive)
REMARK    1  A    between atoms: C_1  and  N_2
REMARK    2  A    between atoms: N_2  and  C_3
REMARK    3  A    between atoms: N_2  and  C_13
REMARK    4  A    between atoms: C_3  and  C_4
REMARK    5  A    between atoms: C_4  and  O_5
REMARK    6  A    between atoms: O_5  and  C_6
REMARK    7  A    between atoms: C_13  and  C_14
REMARK    8  A    between atoms: C_14  and  O_15
REMARK    9  A    between atoms: C_14  and  C_16
REMARK                            x       y       z     vdW  Elec       q    Type
REMARK                         _______ _______ _______ _____ _____    ______ ____
ROOT
ATOM      1  C   UNL     1       3.633   1.963  18.410  0.00  0.00    +0.000 C 
ATOM      2  N   UNL     1       3.762   3.415  18.599  0.00  0.00    +0.000 NA
ENDROOT
BRANCH   2   3
ATOM      3  C   UNL     1       2.542   3.914  19.287  0.00  0.00    +0.000 C 
BRANCH   3   4
ATOM      4  C   UNL     1       2.094   5.310  18.814  0.00  0.00    +0.000 C 
BRANCH   4   5
ATOM      5  O   UNL     1       2.565   6.309  19.726  0.00  0.00    +0.000 OA
BRANCH   5   6
ATOM      6  C   UNL     1       2.088   7.570  19.464  0.00  0.00    +0.000 A 
ATOM      7  C   UNL     1       2.204   8.221  18.229  0.00  0.00    +0.000 A 
ATOM      8  C   UNL     1       1.688   9.507  18.058  0.00  0.00    +0.000 A 
ATOM      9  C   UNL     1       1.044  10.138  19.120  0.00  0.00    +0.000 A 
ATOM     10 BR   UNL     1       0.348  11.880  18.883  0.00  0.00    +0.000 Br
ATOM     11  C   UNL     1       0.910   9.496  20.347  0.00  0.00    +0.000 A 
ATOM     12  C   UNL     1       1.425   8.205  20.512  0.00  0.00    +0.000 A 
ENDBRANCH   5   6
ENDBRANCH   4   5
ENDBRANCH   3   4
ENDBRANCH   2   3
BRANCH   2  13
ATOM     13  C   UNL     1       4.977   3.739  19.392  0.00  0.00    +0.000 C 
BRANCH  13  14
ATOM     14  C   UNL     1       5.659   5.109  19.103  0.00  0.00    +0.000 C 
BRANCH  14  15
ATOM     15  C   UNL     1       5.889   5.232  17.609  0.00  0.00    +0.000 A 
ATOM     16  C   UNL     1       5.085   6.088  16.846  0.00  0.00    +0.000 A 
ATOM     17  C   UNL     1       5.203   6.121  15.459  0.00  0.00    +0.000 A 
ATOM     18  C   UNL     1       6.134   5.301  14.814  0.00  0.00    +0.000 A 
ATOM     19  C   UNL     1       6.947   4.456  15.560  0.00  0.00    +0.000 A 
ATOM     20  C   UNL     1       6.828   4.413  16.953  0.00  0.00    +0.000 A 
ENDBRANCH  14  15
BRANCH  14  21
ATOM     21  O   UNL     1       6.913   5.230  19.782  0.00  0.00    +0.000 OA
ATOM     22  H   UNL     1       7.341   6.037  19.441  0.00  0.00    +0.000 HD
ENDBRANCH  14  21
ENDBRANCH  13  14
ENDBRANCH   2  13
TORSDOF 8
ENDMDL
MODEL 6
REMARK VINA RESULT:      -6.2      1.099      1.857
REMARK  Name = 
REMARK  9 active torsions:
REMARK  status: ('A' for Active; 'I' for Inactive)
REMARK    1  A    between atoms: C_1  and  N_2
REMARK    2  A    between atoms: N_2  and  C_3
REMARK    3  A    between atoms: N_2  and  C_13
REMARK    4  A    between atoms: C_3  and  C_4
REMARK    5  A    between atoms: C_4  and  O_5
REMARK    6  A    between atoms: O_5  and  C_6
REMARK    7  A    between atoms: C_13  and  C_14
REMARK    8  A    between atoms: C_14  and  O_15
REMARK    9  A    between atoms: C_14  and  C_16
REMARK                            x       y       z     vdW  Elec       q    Type
REMARK                         _______ _______ _______ _____ _____    ______ ____
ROOT
ATOM      1  C   UNL     1       4.998   3.408  16.427  0.00  0.00    +0.000 C 
ATOM      2  N   UNL     1       5.492   4.425  17.367  0.00  0.00    +0.000 NA
ENDROOT
BRANCH   2   3
ATOM      3  C   UNL     1       4.943   5.747  16.966  0.00  0.00    +0.000 C 
BRANCH   3   4
ATOM      4  C   UNL     1       3.567   6.058  17.585  0.00  0.00    +0.000 C 
BRANCH   4   5
ATOM      5  O   UNL     1       3.333   7.471  17.572  0.00  0.00    +0.000 OA
BRANCH   5   6
ATOM      6  C   UNL     1       2.514   7.907  18.584  0.00  0.00    +0.000 A 
ATOM      7  C   UNL     1       1.714   9.055  18.518  0.00  0.00    +0.000 A 
ATOM      8  C   UNL     1       0.913   9.421  19.602  0.00  0.00    +0.000 A 
ATOM      9  C   UNL     1       0.904   8.630  20.749  0.00  0.00    +0.000 A 
ATOM     10 BR   UNL     1      -0.182   9.131  22.214  0.00  0.00    +0.000 Br
ATOM     11  C   UNL     1       1.682   7.479  20.821  0.00  0.00    +0.000 A 
ATOM     12  C   UNL     1       2.480   7.116  19.730  0.00  0.00    +0.000 A 
ENDBRANCH   5   6
ENDBRANCH   4   5
ENDBRANCH   3   4
ENDBRANCH   2   3
BRANCH   2  13
ATOM     13  C   UNL     1       5.094   4.094  18.760  0.00  0.00    +0.000 C 
BRANCH  13  14
ATOM     14  C   UNL     1       4.486   2.681  18.999  0.00  0.00    +0.000 C 
BRANCH  14  15
ATOM     15  C   UNL     1       3.083   2.842  19.551  0.00  0.00    +0.000 A 
ATOM     16  C   UNL     1       2.003   3.017  18.676  0.00  0.00    +0.000 A 
ATOM     17  C   UNL     1       0.729   3.287  19.169  0.00  0.00    +0.000 A 
ATOM     18  C   UNL     1       0.514   3.381  20.547  0.00  0.00    +0.000 A 
ATOM     19  C   UNL     1       1.574   3.198  21.427  0.00  0.00    +0.000 A 
ATOM     20  C   UNL     1       2.858   2.933  20.938  0.00  0.00    +0.000 A 
ENDBRANCH  14  15
BRANCH  14  21
ATOM     21  O   UNL     1       5.268   1.918  19.925  0.00  0.00    +0.000 OA
ATOM     22  H   UNL     1       6.087   2.422  20.083  0.00  0.00    +0.000 HD
ENDBRANCH  14  21
ENDBRANCH  13  14
ENDBRANCH   2  13
TORSDOF 8
ENDMDL
MODEL 7
REMARK VINA RESULT:      -6.2      0.862      1.255
REMARK  Name = 
REMARK  9 active torsions:
REMARK  status: ('A' for Active; 'I' for Inactive)
REMARK    1  A    between atoms: C_1  and  N_2
REMARK    2  A    between atoms: N_2  and  C_3
REMARK    3  A    between atoms: N_2  and  C_13
REMARK    4  A    between atoms: C_3  and  C_4
REMARK    5  A    between atoms: C_4  and  O_5
REMARK    6  A    between atoms: O_5  and  C_6
REMARK    7  A    between atoms: C_13  and  C_14
REMARK    8  A    between atoms: C_14  and  O_15
REMARK    9  A    between atoms: C_14  and  C_16
REMARK                            x       y       z     vdW  Elec       q    Type
REMARK                         _______ _______ _______ _____ _____    ______ ____
ROOT
ATOM      1  C   UNL     1       7.205   5.819  18.745  0.00  0.00    +0.000 C 
ATOM      2  N   UNL     1       5.749   5.640  18.652  0.00  0.00    +0.000 NA
ENDROOT
BRANCH   2   3
ATOM      3  C   UNL     1       5.299   6.103  17.313  0.00  0.00    +0.000 C 
BRANCH   3   4
ATOM      4  C   UNL     1       4.240   7.221  17.369  0.00  0.00    +0.000 C 
BRANCH   4   5
ATOM      5  O   UNL     1       3.069   6.750  18.045  0.00  0.00    +0.000 OA
BRANCH   5   6
ATOM      6  C   UNL     1       2.326   7.747  18.628  0.00  0.00    +0.000 A 
ATOM      7  C   UNL     1       1.910   7.749  19.966  0.00  0.00    +0.000 A 
ATOM      8  C   UNL     1       1.154   8.809  20.469  0.00  0.00    +0.000 A 
ATOM      9  C   UNL     1       0.822   9.874  19.636  0.00  0.00    +0.000 A 
ATOM     10 BR   UNL     1      -0.205  11.307  20.323  0.00  0.00    +0.000 Br
ATOM     11  C   UNL     1       1.240   9.891  18.309  0.00  0.00    +0.000 A 
ATOM     12  C   UNL     1       2.002   8.829  17.811  0.00  0.00    +0.000 A 
ENDBRANCH   5   6
ENDBRANCH   4   5
ENDBRANCH   3   4
ENDBRANCH   2   3
BRANCH   2  13
ATOM     13  C   UNL     1       5.376   4.218  18.866  0.00  0.00    +0.000 C 
BRANCH  13  14
ATOM     14  C   UNL     1       4.191   3.668  18.019  0.00  0.00    +0.000 C 
BRANCH  14  15
ATOM     15  C   UNL     1       3.001   3.447  18.933  0.00  0.00    +0.000 A 
ATOM     16  C   UNL     1       1.913   2.683  18.493  0.00  0.00    +0.000 A 
ATOM     17  C   UNL     1       0.764   2.572  19.272  0.00  0.00    +0.000 A 
ATOM     18  C   UNL     1       0.689   3.221  20.508  0.00  0.00    +0.000 A 
ATOM     19  C   UNL     1       1.766   3.973  20.962  0.00  0.00    +0.000 A 
ATOM     20  C   UNL     1       2.920   4.093  20.181  0.00  0.00    +0.000 A 
ENDBRANCH  14  15
BRANCH  14  21
ATOM     21  O   UNL     1       4.526   2.432  17.379  0.00  0.00    +0.000 OA
ATOM     22  H   UNL     1       5.043   1.913  18.022  0.00  0.00    +0.000 HD
ENDBRANCH  14  21
ENDBRANCH  13  14
ENDBRANCH   2  13
TORSDOF 8
ENDMDL
MODEL 8
REMARK VINA RESULT:      -6.2      1.119      1.779
REMARK  Name = 
REMARK  9 active torsions:
REMARK  status: ('A' for Active; 'I' for Inactive)
REMARK    1  A    between atoms: C_1  and  N_2
REMARK    2  A    between atoms: N_2  and  C_3
REMARK    3  A    between atoms: N_2  and  C_13
REMARK    4  A    between atoms: C_3  and  C_4
REMARK    5  A    between atoms: C_4  and  O_5
REMARK    6  A    between atoms: O_5  and  C_6
REMARK    7  A    between atoms: C_13  and  C_14
REMARK    8  A    between atoms: C_14  and  O_15
REMARK    9  A    between atoms: C_14  and  C_16
REMARK                            x       y       z     vdW  Elec       q    Type
REMARK                         _______ _______ _______ _____ _____    ______ ____
ROOT
ATOM      1  C   UNL     1       6.928   4.590  16.578  0.00  0.00    +0.000 C 
ATOM      2  N   UNL     1       5.863   4.957  17.523  0.00  0.00    +0.000 NA
ENDROOT
BRANCH   2   3
ATOM      3  C   UNL     1       5.535   6.395  17.332  0.00  0.00    +0.000 C 
BRANCH   3   4
ATOM      4  C   UNL     1       4.022   6.682  17.287  0.00  0.00    +0.000 C 
BRANCH   4   5
ATOM      5  O   UNL     1       3.493   6.720  18.618  0.00  0.00    +0.000 OA
BRANCH   5   6
ATOM      6  C   UNL     1       2.555   7.704  18.814  0.00  0.00    +0.000 A 
ATOM      7  C   UNL     1       2.171   8.640  17.844  0.00  0.00    +0.000 A 
ATOM      8  C   UNL     1       1.208   9.607  18.139  0.00  0.00    +0.000 A 
ATOM      9  C   UNL     1       0.620   9.631  19.401  0.00  0.00    +0.000 A 
ATOM     10 BR   UNL     1      -0.683  10.944  19.794  0.00  0.00    +0.000 Br
ATOM     11  C   UNL     1       0.982   8.698  20.368  0.00  0.00    +0.000 A 
ATOM     12  C   UNL     1       1.944   7.729  20.066  0.00  0.00    +0.000 A 
ENDBRANCH   5   6
ENDBRANCH   4   5
ENDBRANCH   3   4
ENDBRANCH   2   3
BRANCH   2  13
ATOM     13  C   UNL     1       4.658   4.114  17.315  0.00  0.00    +0.000 C 
BRANCH  13  14
ATOM     14  C   UNL     1       4.448   2.932  18.307  0.00  0.00    +0.000 C 
BRANCH  14  15
ATOM     15  C   UNL     1       3.083   3.076  18.954  0.00  0.00    +0.000 A 
ATOM     16  C   UNL     1       1.949   2.558  18.317  0.00  0.00    +0.000 A 
ATOM     17  C   UNL     1       0.678   2.789  18.837  0.00  0.00    +0.000 A 
ATOM     18  C   UNL     1       0.523   3.538  20.008  0.00  0.00    +0.000 A 
ATOM     19  C   UNL     1       1.641   4.048  20.656  0.00  0.00    +0.000 A 
ATOM     20  C   UNL     1       2.920   3.825  20.135  0.00  0.00    +0.000 A 
ENDBRANCH  14  15
BRANCH  14  21
ATOM     21  O   UNL     1       5.451   2.913  19.328  0.00  0.00    +0.000 OA
ATOM     22  H   UNL     1       6.309   3.029  18.881  0.00  0.00    +0.000 HD
ENDBRANCH  14  21
ENDBRANCH  13  14
ENDBRANCH   2  13
TORSDOF 8
ENDMDL
MODEL 9
REMARK VINA RESULT:      -6.2      1.295      2.146
REMARK  Name = 
REMARK  9 active torsions:
REMARK  status: ('A' for Active; 'I' for Inactive)
REMARK    1  A    between atoms: C_1  and  N_2
REMARK    2  A    between atoms: N_2  and  C_3
REMARK    3  A    between atoms: N_2  and  C_13
REMARK    4  A    between atoms: C_3  and  C_4
REMARK    5  A    between atoms: C_4  and  O_5
REMARK    6  A    between atoms: O_5  and  C_6
REMARK    7  A    between atoms: C_13  and  C_14
REMARK    8  A    between atoms: C_14  and  O_15
REMARK    9  A    between atoms: C_14  and  C_16
REMARK                            x       y       z     vdW  Elec       q    Type
REMARK                         _______ _______ _______ _____ _____    ______ ____
ROOT
ATOM      1  C   UNL     1       6.281   6.145  17.553  0.00  0.00    +0.000 C 
ATOM      2  N   UNL     1       4.930   5.758  17.986  0.00  0.00    +0.000 NA
ENDROOT
BRANCH   2   3
ATOM      3  C   UNL     1       3.975   6.817  17.564  0.00  0.00    +0.000 C 
BRANCH   3   4
ATOM      4  C   UNL     1       2.562   6.646  18.155  0.00  0.00    +0.000 C 
BRANCH   4   5
ATOM      5  O   UNL     1       2.571   6.983  19.547  0.00  0.00    +0.000 OA
BRANCH   5   6
ATOM      6  C   UNL     1       1.776   8.058  19.862  0.00  0.00    +0.000 A 
ATOM      7  C   UNL     1       1.466   9.102  18.980  0.00  0.00    +0.000 A 
ATOM      8  C   UNL     1       0.649  10.156  19.394  0.00  0.00    +0.000 A 
ATOM      9  C   UNL     1       0.132  10.160  20.687  0.00  0.00    +0.000 A 
ATOM     10 BR   UNL     1      -0.973  11.592  21.241  0.00  0.00    +0.000 Br
ATOM     11  C   UNL     1       0.421   9.123  21.567  0.00  0.00    +0.000 A 
ATOM     12  C   UNL     1       1.237   8.067  21.147  0.00  0.00    +0.000 A 
ENDBRANCH   5   6
ENDBRANCH   4   5
ENDBRANCH   3   4
ENDBRANCH   2   3
BRANCH   2  13
ATOM     13  C   UNL     1       4.545   4.446  17.405  0.00  0.00    +0.000 C 
BRANCH  13  14
ATOM     14  C   UNL     1       4.531   3.226  18.373  0.00  0.00    +0.000 C 
BRANCH  14  15
ATOM     15  C   UNL     1       3.174   3.157  19.048  0.00  0.00    +0.000 A 
ATOM     16  C   UNL     1       2.055   2.724  18.327  0.00  0.00    +0.000 A 
ATOM     17  C   UNL     1       0.785   2.770  18.896  0.00  0.00    +0.000 A 
ATOM     18  C   UNL     1       0.616   3.247  20.200  0.00  0.00    +0.000 A 
ATOM     19  C   UNL     1       1.720   3.669  20.931  0.00  0.00    +0.000 A 
ATOM     20  C   UNL     1       2.998   3.631  20.362  0.00  0.00    +0.000 A 
ENDBRANCH  14  15
BRANCH  14  21
ATOM     21  O   UNL     1       5.548   3.333  19.374  0.00  0.00    +0.000 OA
ATOM     22  H   UNL     1       5.096   3.545  20.212  0.00  0.00    +0.000 HD
ENDBRANCH  14  21
ENDBRANCH  13  14
ENDBRANCH   2  13
TORSDOF 8
ENDMDL
