MODEL 1
REMARK VINA RESULT:      -5.6      0.000      0.000
REMARK  Name = 
REMARK  11 active torsions:
REMARK  status: ('A' for Active; 'I' for Inactive)
REMARK    1  A    between atoms: N_1  and  C_2
REMARK    2  A    between atoms: C_2  and  C_3
REMARK    3  A    between atoms: C_3  and  C_4
REMARK    4  A    between atoms: C_4  and  C_5
REMARK    5  A    between atoms: C_5  and  C_6
REMARK    6  A    between atoms: C_6  and  C_7
REMARK    7  A    between atoms: C_7  and  C_8
REMARK    8  A    between atoms: C_8  and  C_9
REMARK    9  A    between atoms: C_9  and  C_10
REMARK   10  A    between atoms: C_10  and  C_11
REMARK   11  A    between atoms: C_11  and  C_12
REMARK                            x       y       z     vdW  Elec       q    Type
REMARK                         _______ _______ _______ _____ _____    ______ ____
ROOT
ATOM      1  C   UNL     1       3.576   5.285  17.620  0.00  0.00    +0.000 C 
ENDROOT
BRANCH   1   2
ATOM      2  C   UNL     1       2.128   5.319  18.097  0.00  0.00    +0.000 C 
BRANCH   2   3
ATOM      3  C   UNL     1       1.435   3.986  17.824  0.00  0.00    +0.000 C 
BRANCH   3   4
ATOM      4  C   UNL     1       0.890   3.379  19.113  0.00  0.00    +0.000 C 
BRANCH   4   5
ATOM      5  C   UNL     1       1.780   2.241  19.605  0.00  0.00    +0.000 C 
BRANCH   5   6
ATOM      6  C   UNL     1       2.940   2.778  20.441  0.00  0.00    +0.000 C 
BRANCH   6   7
ATOM      7  C   UNL     1       4.246   2.074  20.082  0.00  0.00    +0.000 C 
BRANCH   7   8
ATOM      8  N   UNL     1       5.231   3.049  19.628  0.00  0.00    +0.000 NA
ATOM      9  H   UNL     1       4.864   3.547  18.819  0.00  0.00    +0.000 HD
ATOM     10  H   UNL     1       6.070   2.565  19.310  0.00  0.00    +0.000 HD
ENDBRANCH   7   8
ENDBRANCH   6   7
ENDBRANCH   5   6
ENDBRANCH   4   5
ENDBRANCH   3   4
ENDBRANCH   2   3
ENDBRANCH   1   2
BRANCH   1  11
ATOM     11  C   UNL     1       3.815   4.123  16.657  0.00  0.00    +0.000 C 
BRANCH  11  12
ATOM     12  C   UNL     1       4.974   4.436  15.713  0.00  0.00    +0.000 C 
BRANCH  12  13
ATOM     13  C   UNL     1       6.307   3.976  16.299  0.00  0.00    +0.000 C 
BRANCH  13  14
ATOM     14  C   UNL     1       6.919   5.057  17.150  0.00  0.00    +0.000 A 
ATOM     15  C   UNL     1       7.057   6.352  16.655  0.00  0.00    +0.000 A 
ATOM     16  C   UNL     1       7.662   7.314  17.457  0.00  0.00    +0.000 A 
ATOM     17  C   UNL     1       8.118   6.960  18.720  0.00  0.00    +0.000 A 
ATOM     18  C   UNL     1       7.947   5.648  19.132  0.00  0.00    +0.000 A 
ATOM     19  N   UNL     1       7.362   4.695  18.378  0.00  0.00    +0.000 NA
ENDBRANCH  13  14
ENDBRANCH  12  13
ENDBRANCH  11  12
ENDBRANCH   1  11
TORSDOF 11
ENDMDL
MODEL 2
REMARK VINA RESULT:      -5.6      1.678      2.181
REMARK  Name = 
REMARK  11 active torsions:
REMARK  status: ('A' for Active; 'I' for Inactive)
REMARK    1  A    between atoms: N_1  and  C_2
REMARK    2  A    between atoms: C_2  and  C_3
REMARK    3  A    between atoms: C_3  and  C_4
REMARK    4  A    between atoms: C_4  and  C_5
REMARK    5  A    between atoms: C_5  and  C_6
REMARK    6  A    between atoms: C_6  and  C_7
REMARK    7  A    between atoms: C_7  and  C_8
REMARK    8  A    between atoms: C_8  and  C_9
REMARK    9  A    between atoms: C_9  and  C_10
REMARK   10  A    between atoms: C_10  and  C_11
REMARK   11  A    between atoms: C_11  and  C_12
REMARK                            x       y       z     vdW  Elec       q    Type
REMARK                         _______ _______ _______ _____ _____    ______ ____
ROOT
ATOM      1  C   UNL     1       3.660   4.320  17.421  0.00  0.00    +0.000 C 
ENDROOT
BRANCH   1   2
ATOM      2  C   UNL     1       3.957   2.932  17.979  0.00  0.00    +0.000 C 
BRANCH   2   3
ATOM      3  C   UNL     1       2.759   2.004  17.791  0.00  0.00    +0.000 C 
BRANCH   3   4
ATOM      4  C   UNL     1       1.501   2.603  18.414  0.00  0.00    +0.000 C 
BRANCH   4   5
ATOM      5  C   UNL     1       1.615   2.662  19.935  0.00  0.00    +0.000 C 
BRANCH   5   6
ATOM      6  C   UNL     1       1.102   3.998  20.469  0.00  0.00    +0.000 C 
BRANCH   6   7
ATOM      7  C   UNL     1       2.204   4.752  21.209  0.00  0.00    +0.000 C 
BRANCH   7   8
ATOM      8  N   UNL     1       2.284   6.124  20.724  0.00  0.00    +0.000 NA
ATOM      9  H   UNL     1       1.782   6.199  19.841  0.00  0.00    +0.000 HD
ATOM     10  H   UNL     1       3.254   6.361  20.523  0.00  0.00    +0.000 HD
ENDBRANCH   7   8
ENDBRANCH   6   7
ENDBRANCH   5   6
ENDBRANCH   4   5
ENDBRANCH   3   4
ENDBRANCH   2   3
ENDBRANCH   1   2
BRANCH   1  11
ATOM     11  C   UNL     1       4.387   4.552  16.098  0.00  0.00    +0.000 C 
BRANCH  11  12
ATOM     12  C   UNL     1       5.581   3.608  15.967  0.00  0.00    +0.000 C 
BRANCH  12  13
ATOM     13  C   UNL     1       6.851   4.368  15.589  0.00  0.00    +0.000 C 
BRANCH  13  14
ATOM     14  C   UNL     1       7.279   5.284  16.706  0.00  0.00    +0.000 A 
ATOM     15  C   UNL     1       7.580   4.770  17.964  0.00  0.00    +0.000 A 
ATOM     16  C   UNL     1       7.934   5.652  18.980  0.00  0.00    +0.000 A 
ATOM     17  C   UNL     1       7.970   7.015  18.717  0.00  0.00    +0.000 A 
ATOM     18  C   UNL     1       7.649   7.442  17.439  0.00  0.00    +0.000 A 
ATOM     19  N   UNL     1       7.305   6.611  16.434  0.00  0.00    +0.000 NA
ENDBRANCH  13  14
ENDBRANCH  12  13
ENDBRANCH  11  12
ENDBRANCH   1  11
TORSDOF 11
ENDMDL
MODEL 3
REMARK VINA RESULT:      -5.6      4.430      7.190
REMARK  Name = 
REMARK  11 active torsions:
REMARK  status: ('A' for Active; 'I' for Inactive)
REMARK    1  A    between atoms: N_1  and  C_2
REMARK    2  A    between atoms: C_2  and  C_3
REMARK    3  A    between atoms: C_3  and  C_4
REMARK    4  A    between atoms: C_4  and  C_5
REMARK    5  A    between atoms: C_5  and  C_6
REMARK    6  A    between atoms: C_6  and  C_7
REMARK    7  A    between atoms: C_7  and  C_8
REMARK    8  A    between atoms: C_8  and  C_9
REMARK    9  A    between atoms: C_9  and  C_10
REMARK   10  A    between atoms: C_10  and  C_11
REMARK   11  A    between atoms: C_11  and  C_12
REMARK                            x       y       z     vdW  Elec       q    Type
REMARK                         _______ _______ _______ _____ _____    ______ ____
ROOT
ATOM      1  C   UNL     1       6.851   4.600  13.555  0.00  0.00    +0.000 C 
ENDROOT
BRANCH   1   2
ATOM      2  C   UNL     1       6.636   3.727  12.323  0.00  0.00    +0.000 C 
BRANCH   2   3
ATOM      3  C   UNL     1       5.255   3.077  12.353  0.00  0.00    +0.000 C 
BRANCH   3   4
ATOM      4  C   UNL     1       4.671   2.971  10.947  0.00  0.00    +0.000 C 
BRANCH   4   5
ATOM      5  C   UNL     1       3.360   3.746  10.836  0.00  0.00    +0.000 C 
BRANCH   5   6
ATOM      6  C   UNL     1       2.763   3.610   9.436  0.00  0.00    +0.000 C 
BRANCH   6   7
ATOM      7  C   UNL     1       2.815   4.939   8.687  0.00  0.00    +0.000 C 
BRANCH   7   8
ATOM      8  N   UNL     1       1.477   5.507   8.582  0.00  0.00    +0.000 NA
ATOM      9  H   UNL     1       1.548   6.510   8.422  0.00  0.00    +0.000 HD
ATOM     10  H   UNL     1       0.985   5.392   9.468  0.00  0.00    +0.000 HD
ENDBRANCH   7   8
ENDBRANCH   6   7
ENDBRANCH   5   6
ENDBRANCH   4   5
ENDBRANCH   3   4
ENDBRANCH   2   3
ENDBRANCH   1   2
BRANCH   1  11
ATOM     11  C   UNL     1       5.679   4.484  14.527  0.00  0.00    +0.000 C 
BRANCH  11  12
ATOM     12  C   UNL     1       6.151   3.955  15.879  0.00  0.00    +0.000 C 
BRANCH  12  13
ATOM     13  C   UNL     1       5.599   4.797  17.028  0.00  0.00    +0.000 C 
BRANCH  13  14
ATOM     14  C   UNL     1       4.184   4.395  17.354  0.00  0.00    +0.000 A 
ATOM     15  C   UNL     1       3.233   5.359  17.676  0.00  0.00    +0.000 A 
ATOM     16  C   UNL     1       1.946   4.946  18.009  0.00  0.00    +0.000 A 
ATOM     17  C   UNL     1       1.648   3.590  18.017  0.00  0.00    +0.000 A 
ATOM     18  C   UNL     1       2.656   2.697  17.690  0.00  0.00    +0.000 A 
ATOM     19  N   UNL     1       3.910   3.068  17.362  0.00  0.00    +0.000 NA
ENDBRANCH  13  14
ENDBRANCH  12  13
ENDBRANCH  11  12
ENDBRANCH   1  11
TORSDOF 11
ENDMDL
MODEL 4
REMARK VINA RESULT:      -5.5      1.685      2.258
REMARK  Name = 
REMARK  11 active torsions:
REMARK  status: ('A' for Active; 'I' for Inactive)
REMARK    1  A    between atoms: N_1  and  C_2
REMARK    2  A    between atoms: C_2  and  C_3
REMARK    3  A    between atoms: C_3  and  C_4
REMARK    4  A    between atoms: C_4  and  C_5
REMARK    5  A    between atoms: C_5  and  C_6
REMARK    6  A    between atoms: C_6  and  C_7
REMARK    7  A    between atoms: C_7  and  C_8
REMARK    8  A    between atoms: C_8  and  C_9
REMARK    9  A    between atoms: C_9  and  C_10
REMARK   10  A    between atoms: C_10  and  C_11
REMARK   11  A    between atoms: C_11  and  C_12
REMARK                            x       y       z     vdW  Elec       q    Type
REMARK                         _______ _______ _______ _____ _____    ______ ____
ROOT
ATOM      1  C   UNL     1       4.342   3.199  18.418  0.00  0.00    +0.000 C 
ENDROOT
BRANCH   1   2
ATOM      2  C   UNL     1       3.447   2.014  18.763  0.00  0.00    +0.000 C 
BRANCH   2   3
ATOM      3  C   UNL     1       2.127   2.090  17.999  0.00  0.00    +0.000 C 
BRANCH   3   4
ATOM      4  C   UNL     1       1.405   3.404  18.286  0.00  0.00    +0.000 C 
BRANCH   4   5
ATOM      5  C   UNL     1       0.738   3.377  19.659  0.00  0.00    +0.000 C 
BRANCH   5   6
ATOM      6  C   UNL     1       1.288   4.487  20.555  0.00  0.00    +0.000 C 
BRANCH   6   7
ATOM      7  C   UNL     1       2.351   3.947  21.506  0.00  0.00    +0.000 C 
BRANCH   7   8
ATOM      8  N   UNL     1       1.950   2.641  22.016  0.00  0.00    +0.000 NA
ATOM      9  H   UNL     1       0.933   2.580  22.021  0.00  0.00    +0.000 HD
ATOM     10  H   UNL     1       2.247   2.546  22.987  0.00  0.00    +0.000 HD
ENDBRANCH   7   8
ENDBRANCH   6   7
ENDBRANCH   5   6
ENDBRANCH   4   5
ENDBRANCH   3   4
ENDBRANCH   2   3
ENDBRANCH   1   2
BRANCH   1  11
ATOM     11  C   UNL     1       4.447   3.392  16.907  0.00  0.00    +0.000 C 
BRANCH  11  12
ATOM     12  C   UNL     1       4.641   4.868  16.565  0.00  0.00    +0.000 C 
BRANCH  12  13
ATOM     13  C   UNL     1       6.039   5.131  16.010  0.00  0.00    +0.000 C 
BRANCH  13  14
ATOM     14  C   UNL     1       6.864   5.920  16.992  0.00  0.00    +0.000 A 
ATOM     15  C   UNL     1       7.326   5.327  18.164  0.00  0.00    +0.000 A 
ATOM     16  C   UNL     1       8.052   6.100  19.065  0.00  0.00    +0.000 A 
ATOM     17  C   UNL     1       8.290   7.437  18.778  0.00  0.00    +0.000 A 
ATOM     18  C   UNL     1       7.789   7.950  17.592  0.00  0.00    +0.000 A 
ATOM     19  N   UNL     1       7.084   7.225  16.700  0.00  0.00    +0.000 NA
ENDBRANCH  13  14
ENDBRANCH  12  13
ENDBRANCH  11  12
ENDBRANCH   1  11
TORSDOF 11
ENDMDL
MODEL 5
REMARK VINA RESULT:      -5.4      2.937      6.480
REMARK  Name = 
REMARK  11 active torsions:
REMARK  status: ('A' for Active; 'I' for Inactive)
REMARK    1  A    between atoms: N_1  and  C_2
REMARK    2  A    between atoms: C_2  and  C_3
REMARK    3  A    between atoms: C_3  and  C_4
REMARK    4  A    between atoms: C_4  and  C_5
REMARK    5  A    between atoms: C_5  and  C_6
REMARK    6  A    between atoms: C_6  and  C_7
REMARK    7  A    between atoms: C_7  and  C_8
REMARK    8  A    between atoms: C_8  and  C_9
REMARK    9  A    between atoms: C_9  and  C_10
REMARK   10  A    between atoms: C_10  and  C_11
REMARK   11  A    between atoms: C_11  and  C_12
REMARK                            x       y       z     vdW  Elec       q    Type
REMARK                         _______ _______ _______ _____ _____    ______ ____
ROOT
ATOM      1  C   UNL     1       5.958   5.222  17.735  0.00  0.00    +0.000 C 
ENDROOT
BRANCH   1   2
ATOM      2  C   UNL     1       5.763   4.153  16.665  0.00  0.00    +0.000 C 
BRANCH   2   3
ATOM      3  C   UNL     1       6.466   4.549  15.369  0.00  0.00    +0.000 C 
BRANCH   3   4
ATOM      4  C   UNL     1       5.555   4.327  14.164  0.00  0.00    +0.000 C 
BRANCH   4   5
ATOM      5  C   UNL     1       6.282   3.565  13.059  0.00  0.00    +0.000 C 
BRANCH   5   6
ATOM      6  C   UNL     1       5.311   3.146  11.955  0.00  0.00    +0.000 C 
BRANCH   6   7
ATOM      7  C   UNL     1       5.689   1.783  11.382  0.00  0.00    +0.000 C 
BRANCH   7   8
ATOM      8  N   UNL     1       7.139   1.631  11.367  0.00  0.00    +0.000 NA
ATOM      9  H   UNL     1       7.564   2.491  11.025  0.00  0.00    +0.000 HD
ATOM     10  H   UNL     1       7.400   0.900  10.707  0.00  0.00    +0.000 HD
ENDBRANCH   7   8
ENDBRANCH   6   7
ENDBRANCH   5   6
ENDBRANCH   4   5
ENDBRANCH   3   4
ENDBRANCH   2   3
ENDBRANCH   1   2
BRANCH   1  11
ATOM     11  C   UNL     1       5.246   6.520  17.358  0.00  0.00    +0.000 C 
BRANCH  11  12
ATOM     12  C   UNL     1       3.733   6.364  17.498  0.00  0.00    +0.000 C 
BRANCH  12  13
ATOM     13  C   UNL     1       3.318   6.269  18.965  0.00  0.00    +0.000 C 
BRANCH  13  14
ATOM     14  C   UNL     1       2.418   5.082  19.190  0.00  0.00    +0.000 A 
ATOM     15  C   UNL     1       1.861   4.846  20.444  0.00  0.00    +0.000 A 
ATOM     16  C   UNL     1       1.065   3.718  20.622  0.00  0.00    +0.000 A 
ATOM     17  C   UNL     1       0.855   2.858  19.552  0.00  0.00    +0.000 A 
ATOM     18  C   UNL     1       1.452   3.164  18.340  0.00  0.00    +0.000 A 
ATOM     19  N   UNL     1       2.226   4.250  18.138  0.00  0.00    +0.000 NA
ENDBRANCH  13  14
ENDBRANCH  12  13
ENDBRANCH  11  12
ENDBRANCH   1  11
TORSDOF 11
ENDMDL
MODEL 6
REMARK VINA RESULT:      -5.4      1.684      5.399
REMARK  Name = 
REMARK  11 active torsions:
REMARK  status: ('A' for Active; 'I' for Inactive)
REMARK    1  A    between atoms: N_1  and  C_2
REMARK    2  A    between atoms: C_2  and  C_3
REMARK    3  A    between atoms: C_3  and  C_4
REMARK    4  A    between atoms: C_4  and  C_5
REMARK    5  A    between atoms: C_5  and  C_6
REMARK    6  A    between atoms: C_6  and  C_7
REMARK    7  A    between atoms: C_7  and  C_8
REMARK    8  A    between atoms: C_8  and  C_9
REMARK    9  A    between atoms: C_9  and  C_10
REMARK   10  A    between atoms: C_10  and  C_11
REMARK   11  A    between atoms: C_11  and  C_12
REMARK                            x       y       z     vdW  Elec       q    Type
REMARK                         _______ _______ _______ _____ _____    ______ ____
ROOT
ATOM      1  C   UNL     1       2.460   7.035  19.001  0.00  0.00    +0.000 C 
ENDROOT
BRANCH   1   2
ATOM      2  C   UNL     1       3.369   7.060  17.776  0.00  0.00    +0.000 C 
BRANCH   2   3
ATOM      3  C   UNL     1       4.468   6.007  17.895  0.00  0.00    +0.000 C 
BRANCH   3   4
ATOM      4  C   UNL     1       5.104   5.726  16.536  0.00  0.00    +0.000 C 
BRANCH   4   5
ATOM      5  C   UNL     1       6.619   5.908  16.591  0.00  0.00    +0.000 C 
BRANCH   5   6
ATOM      6  C   UNL     1       7.057   6.429  17.959  0.00  0.00    +0.000 C 
BRANCH   6   7
ATOM      7  C   UNL     1       7.904   5.394  18.694  0.00  0.00    +0.000 C 
BRANCH   7   8
ATOM      8  N   UNL     1       7.711   5.521  20.133  0.00  0.00    +0.000 NA
ATOM      9  H   UNL     1       7.458   6.482  20.356  0.00  0.00    +0.000 HD
ATOM     10  H   UNL     1       8.592   5.338  20.614  0.00  0.00    +0.000 HD
ENDBRANCH   7   8
ENDBRANCH   6   7
ENDBRANCH   5   6
ENDBRANCH   4   5
ENDBRANCH   3   4
ENDBRANCH   2   3
ENDBRANCH   1   2
BRANCH   1  11
ATOM     11  C   UNL     1       2.870   5.930  19.972  0.00  0.00    +0.000 C 
BRANCH  11  12
ATOM     12  C   UNL     1       1.691   5.520  20.852  0.00  0.00    +0.000 C 
BRANCH  12  13
ATOM     13  C   UNL     1       0.986   4.284  20.295  0.00  0.00    +0.000 C 
BRANCH  13  14
ATOM     14  C   UNL     1       1.916   3.486  19.420  0.00  0.00    +0.000 A 
ATOM     15  C   UNL     1       1.753   3.479  18.038  0.00  0.00    +0.000 A 
ATOM     16  C   UNL     1       2.609   2.699  17.266  0.00  0.00    +0.000 A 
ATOM     17  C   UNL     1       3.593   1.946  17.892  0.00  0.00    +0.000 A 
ATOM     18  C   UNL     1       3.682   2.005  19.273  0.00  0.00    +0.000 A 
ATOM     19  N   UNL     1       2.869   2.754  20.046  0.00  0.00    +0.000 NA
ENDBRANCH  13  14
ENDBRANCH  12  13
ENDBRANCH  11  12
ENDBRANCH   1  11
TORSDOF 11
ENDMDL
MODEL 7
REMARK VINA RESULT:      -5.3      3.006      5.464
REMARK  Name = 
REMARK  11 active torsions:
REMARK  status: ('A' for Active; 'I' for Inactive)
REMARK    1  A    between atoms: N_1  and  C_2
REMARK    2  A    between atoms: C_2  and  C_3
REMARK    3  A    between atoms: C_3  and  C_4
REMARK    4  A    between atoms: C_4  and  C_5
REMARK    5  A    between atoms: C_5  and  C_6
REMARK    6  A    between atoms: C_6  and  C_7
REMARK    7  A    between atoms: C_7  and  C_8
REMARK    8  A    between atoms: C_8  and  C_9
REMARK    9  A    between atoms: C_9  and  C_10
REMARK   10  A    between atoms: C_10  and  C_11
REMARK   11  A    between atoms: C_11  and  C_12
REMARK                            x       y       z     vdW  Elec       q    Type
REMARK                         _______ _______ _______ _____ _____    ______ ____
ROOT
ATOM      1  C   UNL     1       4.650   5.939  18.035  0.00  0.00    +0.000 C 
ENDROOT
BRANCH   1   2
ATOM      2  C   UNL     1       3.204   6.191  17.621  0.00  0.00    +0.000 C 
BRANCH   2   3
ATOM      3  C   UNL     1       2.518   7.144  18.596  0.00  0.00    +0.000 C 
BRANCH   3   4
ATOM      4  C   UNL     1       2.562   6.594  20.019  0.00  0.00    +0.000 C 
BRANCH   4   5
ATOM      5  C   UNL     1       1.338   7.036  20.817  0.00  0.00    +0.000 C 
BRANCH   5   6
ATOM      6  C   UNL     1       1.204   8.558  20.812  0.00  0.00    +0.000 C 
BRANCH   6   7
ATOM      7  C   UNL     1       0.856   9.082  22.202  0.00  0.00    +0.000 C 
BRANCH   7   8
ATOM      8  N   UNL     1       2.075   9.383  22.943  0.00  0.00    +0.000 NA
ATOM      9  H   UNL     1       2.714   9.902  22.343  0.00  0.00    +0.000 HD
ATOM     10  H   UNL     1       2.552   8.515  23.185  0.00  0.00    +0.000 HD
ENDBRANCH   7   8
ENDBRANCH   6   7
ENDBRANCH   5   6
ENDBRANCH   4   5
ENDBRANCH   3   4
ENDBRANCH   2   3
ENDBRANCH   1   2
BRANCH   1  11
ATOM     11  C   UNL     1       5.069   4.500  17.738  0.00  0.00    +0.000 C 
BRANCH  11  12
ATOM     12  C   UNL     1       3.944   3.747  17.031  0.00  0.00    +0.000 C 
BRANCH  12  13
ATOM     13  C   UNL     1       3.619   2.436  17.743  0.00  0.00    +0.000 C 
BRANCH  13  14
ATOM     14  C   UNL     1       2.788   2.688  18.973  0.00  0.00    +0.000 A 
ATOM     15  C   UNL     1       1.475   3.138  18.859  0.00  0.00    +0.000 A 
ATOM     16  C   UNL     1       0.752   3.396  20.020  0.00  0.00    +0.000 A 
ATOM     17  C   UNL     1       1.357   3.206  21.255  0.00  0.00    +0.000 A 
ATOM     18  C   UNL     1       2.669   2.762  21.279  0.00  0.00    +0.000 A 
ATOM     19  N   UNL     1       3.393   2.502  20.171  0.00  0.00    +0.000 NA
ENDBRANCH  13  14
ENDBRANCH  12  13
ENDBRANCH  11  12
ENDBRANCH   1  11
TORSDOF 11
ENDMDL
MODEL 8
REMARK VINA RESULT:      -5.3      2.853      4.591
REMARK  Name = 
REMARK  11 active torsions:
REMARK  status: ('A' for Active; 'I' for Inactive)
REMARK    1  A    between atoms: N_1  and  C_2
REMARK    2  A    between atoms: C_2  and  C_3
REMARK    3  A    between atoms: C_3  and  C_4
REMARK    4  A    between atoms: C_4  and  C_5
REMARK    5  A    between atoms: C_5  and  C_6
REMARK    6  A    between atoms: C_6  and  C_7
REMARK    7  A    between atoms: C_7  and  C_8
REMARK    8  A    between atoms: C_8  and  C_9
REMARK    9  A    between atoms: C_9  and  C_10
REMARK   10  A    between atoms: C_10  and  C_11
REMARK   11  A    between atoms: C_11  and  C_12
REMARK                            x       y       z     vdW  Elec       q    Type
REMARK                         _______ _______ _______ _____ _____    ______ ____
ROOT
ATOM      1  C   UNL     1       0.985   3.867  19.932  0.00  0.00    +0.000 C 
ENDROOT
BRANCH   1   2
ATOM      2  C   UNL     1       1.984   4.803  20.604  0.00  0.00    +0.000 C 
BRANCH   2   3
ATOM      3  C   UNL     1       1.445   6.231  20.648  0.00  0.00    +0.000 C 
BRANCH   3   4
ATOM      4  C   UNL     1       2.380   7.191  19.918  0.00  0.00    +0.000 C 
BRANCH   4   5
ATOM      5  C   UNL     1       2.316   6.978  18.408  0.00  0.00    +0.000 C 
BRANCH   5   6
ATOM      6  C   UNL     1       2.336   8.315  17.668  0.00  0.00    +0.000 C 
BRANCH   6   7
ATOM      7  C   UNL     1       1.644   9.403  18.482  0.00  0.00    +0.000 C 
BRANCH   7   8
ATOM      8  N   UNL     1       0.478   9.902  17.762  0.00  0.00    +0.000 NA
ATOM      9  H   UNL     1      -0.185   9.141  17.628  0.00  0.00    +0.000 HD
ATOM     10  H   UNL     1       0.756  10.207  16.831  0.00  0.00    +0.000 HD
ENDBRANCH   7   8
ENDBRANCH   6   7
ENDBRANCH   5   6
ENDBRANCH   4   5
ENDBRANCH   3   4
ENDBRANCH   2   3
ENDBRANCH   1   2
BRANCH   1  11
ATOM     11  C   UNL     1       1.554   2.456  19.795  0.00  0.00    +0.000 C 
BRANCH  11  12
ATOM     12  C   UNL     1       3.070   2.467  19.978  0.00  0.00    +0.000 C 
BRANCH  12  13
ATOM     13  C   UNL     1       3.792   2.321  18.640  0.00  0.00    +0.000 C 
BRANCH  13  14
ATOM     14  C   UNL     1       4.484   3.605  18.263  0.00  0.00    +0.000 A 
ATOM     15  C   UNL     1       4.295   4.165  17.002  0.00  0.00    +0.000 A 
ATOM     16  C   UNL     1       4.982   5.331  16.678  0.00  0.00    +0.000 A 
ATOM     17  C   UNL     1       5.838   5.899  17.612  0.00  0.00    +0.000 A 
ATOM     18  C   UNL     1       5.973   5.273  18.841  0.00  0.00    +0.000 A 
ATOM     19  N   UNL     1       5.319   4.144  19.183  0.00  0.00    +0.000 NA
ENDBRANCH  13  14
ENDBRANCH  12  13
ENDBRANCH  11  12
ENDBRANCH   1  11
TORSDOF 11
ENDMDL
MODEL 9
REMARK VINA RESULT:      -5.3      2.792      6.383
REMARK  Name = 
REMARK  11 active torsions:
REMARK  status: ('A' for Active; 'I' for Inactive)
REMARK    1  A    between atoms: N_1  and  C_2
REMARK    2  A    between atoms: C_2  and  C_3
REMARK    3  A    between atoms: C_3  and  C_4
REMARK    4  A    between atoms: C_4  and  C_5
REMARK    5  A    between atoms: C_5  and  C_6
REMARK    6  A    between atoms: C_6  and  C_7
REMARK    7  A    between atoms: C_7  and  C_8
REMARK    8  A    between atoms: C_8  and  C_9
REMARK    9  A    between atoms: C_9  and  C_10
REMARK   10  A    between atoms: C_10  and  C_11
REMARK   11  A    between atoms: C_11  and  C_12
REMARK                            x       y       z     vdW  Elec       q    Type
REMARK                         _______ _______ _______ _____ _____    ______ ____
ROOT
ATOM      1  C   UNL     1       5.256   5.720  17.023  0.00  0.00    +0.000 C 
ENDROOT
BRANCH   1   2
ATOM      2  C   UNL     1       5.408   5.448  15.530  0.00  0.00    +0.000 C 
BRANCH   2   3
ATOM      3  C   UNL     1       6.860   5.130  15.182  0.00  0.00    +0.000 C 
BRANCH   3   4
ATOM      4  C   UNL     1       6.998   4.746  13.711  0.00  0.00    +0.000 C 
BRANCH   4   5
ATOM      5  C   UNL     1       6.181   3.497  13.391  0.00  0.00    +0.000 C 
BRANCH   5   6
ATOM      6  C   UNL     1       5.191   3.769  12.259  0.00  0.00    +0.000 C 
BRANCH   6   7
ATOM      7  C   UNL     1       5.021   2.538  11.373  0.00  0.00    +0.000 C 
BRANCH   7   8
ATOM      8  N   UNL     1       6.056   1.557  11.675  0.00  0.00    +0.000 NA
ATOM      9  H   UNL     1       5.836   0.680  11.207  0.00  0.00    +0.000 HD
ATOM     10  H   UNL     1       6.056   1.356  12.674  0.00  0.00    +0.000 HD
ENDBRANCH   7   8
ENDBRANCH   6   7
ENDBRANCH   5   6
ENDBRANCH   4   5
ENDBRANCH   3   4
ENDBRANCH   2   3
ENDBRANCH   1   2
BRANCH   1  11
ATOM     11  C   UNL     1       4.855   4.455  17.779  0.00  0.00    +0.000 C 
BRANCH  11  12
ATOM     12  C   UNL     1       3.810   3.666  16.992  0.00  0.00    +0.000 C 
BRANCH  12  13
ATOM     13  C   UNL     1       3.424   2.379  17.718  0.00  0.00    +0.000 C 
BRANCH  13  14
ATOM     14  C   UNL     1       2.697   2.685  19.000  0.00  0.00    +0.000 A 
ATOM     15  C   UNL     1       1.441   3.287  18.973  0.00  0.00    +0.000 A 
ATOM     16  C   UNL     1       0.818   3.589  20.180  0.00  0.00    +0.000 A 
ATOM     17  C   UNL     1       1.463   3.292  21.373  0.00  0.00    +0.000 A 
ATOM     18  C   UNL     1       2.714   2.699  21.310  0.00  0.00    +0.000 A 
ATOM     19  N   UNL     1       3.341   2.393  20.156  0.00  0.00    +0.000 NA
ENDBRANCH  13  14
ENDBRANCH  12  13
ENDBRANCH  11  12
ENDBRANCH   1  11
TORSDOF 11
ENDMDL
