MODEL 1
REMARK VINA RESULT:      -6.2      0.000      0.000
REMARK  Name = 
REMARK  8 active torsions:
REMARK  status: ('A' for Active; 'I' for Inactive)
REMARK    1  A    between atoms: C_1  and  C_2
REMARK    2  A    between atoms: C_2  and  C_3
REMARK    3  A    between atoms: C_2  and  C_4
REMARK    4  A    between atoms: C_4  and  N_5
REMARK    5  A    between atoms: C_4  and  C_15
REMARK    6  A    between atoms: C_6  and  C_8
REMARK    7  A    between atoms: C_15  and  C_16
REMARK    8  A    between atoms: C_15  and  C_17
REMARK                            x       y       z     vdW  Elec       q    Type
REMARK                         _______ _______ _______ _____ _____    ______ ____
ROOT
ATOM      1  N   UNL     1       3.656   4.860  18.380  0.00  0.00    +0.000 N 
ATOM      2  C   UNL     1       4.966   4.438  18.292  0.00  0.00    +0.000 C 
ATOM      3  O   UNL     1       5.609   4.002  19.239  0.00  0.00    +0.000 OA
ATOM      4  H   UNL     1       3.166   5.124  17.543  0.00  0.00    +0.000 HD
ENDROOT
BRANCH   2   5
ATOM      5  C   UNL     1       5.584   4.521  16.937  0.00  0.00    +0.000 A 
ATOM      6  C   UNL     1       4.851   4.267  15.769  0.00  0.00    +0.000 A 
ATOM      7  C   UNL     1       5.466   4.364  14.518  0.00  0.00    +0.000 A 
ATOM      8  C   UNL     1       6.808   4.728  14.433  0.00  0.00    +0.000 A 
ATOM      9 BR   UNL     1       7.630   4.873  12.738  0.00  0.00    +0.000 Br
ATOM     10  C   UNL     1       7.543   4.999  15.586  0.00  0.00    +0.000 A 
ATOM     11  C   UNL     1       6.931   4.897  16.838  0.00  0.00    +0.000 A 
ENDBRANCH   2   5
BRANCH   1  12
ATOM     12  C   UNL     1       2.914   4.939  19.642  0.00  0.00    +0.000 C 
BRANCH  12  14
ATOM     13  C   UNL     1       1.370   3.479  18.167  0.00  0.00    +0.000 C 
ATOM     14  C   UNL     1       1.642   4.042  19.566  0.00  0.00    +0.000 C 
ATOM     15  C   UNL     1       1.706   2.893  20.584  0.00  0.00    +0.000 C 
ENDBRANCH  12  14
BRANCH  12  16
ATOM     16  C   UNL     1       2.630   6.438  19.968  0.00  0.00    +0.000 C 
ATOM     17  C   UNL     1       2.509   7.300  18.707  0.00  0.00    +0.000 C 
ATOM     18  C   UNL     1       1.348   6.606  20.800  0.00  0.00    +0.000 C 
ENDBRANCH  12  16
ENDBRANCH   1  12
TORSDOF 4
ENDMDL
MODEL 2
REMARK VINA RESULT:      -6.2      3.407      6.132
REMARK  Name = 
REMARK  8 active torsions:
REMARK  status: ('A' for Active; 'I' for Inactive)
REMARK    1  A    between atoms: C_1  and  C_2
REMARK    2  A    between atoms: C_2  and  C_3
REMARK    3  A    between atoms: C_2  and  C_4
REMARK    4  A    between atoms: C_4  and  N_5
REMARK    5  A    between atoms: C_4  and  C_15
REMARK    6  A    between atoms: C_6  and  C_8
REMARK    7  A    between atoms: C_15  and  C_16
REMARK    8  A    between atoms: C_15  and  C_17
REMARK                            x       y       z     vdW  Elec       q    Type
REMARK                         _______ _______ _______ _____ _____    ______ ____
ROOT
ATOM      1  N   UNL     1       3.567   5.743  17.677  0.00  0.00    +0.000 N 
ATOM      2  C   UNL     1       3.250   6.195  18.941  0.00  0.00    +0.000 C 
ATOM      3  O   UNL     1       3.603   5.640  19.974  0.00  0.00    +0.000 OA
ATOM      4  H   UNL     1       3.316   6.299  16.878  0.00  0.00    +0.000 HD
ENDROOT
BRANCH   2   5
ATOM      5  C   UNL     1       2.444   7.449  18.998  0.00  0.00    +0.000 A 
ATOM      6  C   UNL     1       2.253   8.262  17.870  0.00  0.00    +0.000 A 
ATOM      7  C   UNL     1       1.484   9.425  17.964  0.00  0.00    +0.000 A 
ATOM      8  C   UNL     1       0.894   9.768  19.179  0.00  0.00    +0.000 A 
ATOM      9 BR   UNL     1      -0.158  11.333  19.296  0.00  0.00    +0.000 Br
ATOM     10  C   UNL     1       1.064   8.960  20.302  0.00  0.00    +0.000 A 
ATOM     11  C   UNL     1       1.837   7.800  20.211  0.00  0.00    +0.000 A 
ENDBRANCH   2   5
BRANCH   1  12
ATOM     12  C   UNL     1       4.270   4.483  17.421  0.00  0.00    +0.000 C 
BRANCH  12  14
ATOM     13  C   UNL     1       5.216   6.049  15.592  0.00  0.00    +0.000 C 
ATOM     14  C   UNL     1       5.297   4.674  16.265  0.00  0.00    +0.000 C 
ATOM     15  C   UNL     1       6.734   4.415  16.742  0.00  0.00    +0.000 C 
ENDBRANCH  12  14
BRANCH  12  16
ATOM     16  C   UNL     1       3.218   3.358  17.172  0.00  0.00    +0.000 C 
ATOM     17  C   UNL     1       3.508   2.093  17.985  0.00  0.00    +0.000 C 
ATOM     18  C   UNL     1       1.792   3.833  17.495  0.00  0.00    +0.000 C 
ENDBRANCH  12  16
ENDBRANCH   1  12
TORSDOF 4
ENDMDL
MODEL 3
REMARK VINA RESULT:      -6.2      3.479      6.399
REMARK  Name = 
REMARK  8 active torsions:
REMARK  status: ('A' for Active; 'I' for Inactive)
REMARK    1  A    between atoms: C_1  and  C_2
REMARK    2  A    between atoms: C_2  and  C_3
REMARK    3  A    between atoms: C_2  and  C_4
REMARK    4  A    between atoms: C_4  and  N_5
REMARK    5  A    between atoms: C_4  and  C_15
REMARK    6  A    between atoms: C_6  and  C_8
REMARK    7  A    between atoms: C_15  and  C_16
REMARK    8  A    between atoms: C_15  and  C_17
REMARK                            x       y       z     vdW  Elec       q    Type
REMARK                         _______ _______ _______ _____ _____    ______ ____
ROOT
ATOM      1  N   UNL     1       4.886   6.368  17.904  0.00  0.00    +0.000 N 
ATOM      2  C   UNL     1       3.843   6.161  18.780  0.00  0.00    +0.000 C 
ATOM      3  O   UNL     1       3.714   5.155  19.467  0.00  0.00    +0.000 OA
ATOM      4  H   UNL     1       4.972   7.255  17.440  0.00  0.00    +0.000 HD
ENDROOT
BRANCH   2   5
ATOM      5  C   UNL     1       2.847   7.268  18.876  0.00  0.00    +0.000 A 
ATOM      6  C   UNL     1       2.083   7.483  20.032  0.00  0.00    +0.000 A 
ATOM      7  C   UNL     1       1.166   8.537  20.083  0.00  0.00    +0.000 A 
ATOM      8  C   UNL     1       1.025   9.385  18.987  0.00  0.00    +0.000 A 
ATOM      9 BR   UNL     1      -0.204  10.818  19.068  0.00  0.00    +0.000 Br
ATOM     10  C   UNL     1       1.791   9.192  17.838  0.00  0.00    +0.000 A 
ATOM     11  C   UNL     1       2.703   8.134  17.783  0.00  0.00    +0.000 A 
ENDBRANCH   2   5
BRANCH   1  12
ATOM     12  C   UNL     1       5.907   5.358  17.608  0.00  0.00    +0.000 C 
BRANCH  12  14
ATOM     13  C   UNL     1       7.478   7.413  17.588  0.00  0.00    +0.000 C 
ATOM     14  C   UNL     1       7.323   5.926  17.927  0.00  0.00    +0.000 C 
ATOM     15  C   UNL     1       7.706   5.686  19.395  0.00  0.00    +0.000 C 
ENDBRANCH  12  14
BRANCH  12  16
ATOM     16  C   UNL     1       5.722   4.868  16.139  0.00  0.00    +0.000 C 
ATOM     17  C   UNL     1       5.206   5.974  15.213  0.00  0.00    +0.000 C 
ATOM     18  C   UNL     1       7.031   4.311  15.556  0.00  0.00    +0.000 C 
ENDBRANCH  12  16
ENDBRANCH   1  12
TORSDOF 4
ENDMDL
MODEL 4
REMARK VINA RESULT:      -6.2      3.511      6.416
REMARK  Name = 
REMARK  8 active torsions:
REMARK  status: ('A' for Active; 'I' for Inactive)
REMARK    1  A    between atoms: C_1  and  C_2
REMARK    2  A    between atoms: C_2  and  C_3
REMARK    3  A    between atoms: C_2  and  C_4
REMARK    4  A    between atoms: C_4  and  N_5
REMARK    5  A    between atoms: C_4  and  C_15
REMARK    6  A    between atoms: C_6  and  C_8
REMARK    7  A    between atoms: C_15  and  C_16
REMARK    8  A    between atoms: C_15  and  C_17
REMARK                            x       y       z     vdW  Elec       q    Type
REMARK                         _______ _______ _______ _____ _____    ______ ____
ROOT
ATOM      1  N   UNL     1       4.898   6.395  17.932  0.00  0.00    +0.000 N 
ATOM      2  C   UNL     1       3.789   6.176  18.720  0.00  0.00    +0.000 C 
ATOM      3  O   UNL     1       3.574   5.133  19.325  0.00  0.00    +0.000 OA
ATOM      4  H   UNL     1       5.050   7.307  17.537  0.00  0.00    +0.000 HD
ENDROOT
BRANCH   2   5
ATOM      5  C   UNL     1       2.832   7.316  18.825  0.00  0.00    +0.000 A 
ATOM      6  C   UNL     1       2.615   8.204  17.760  0.00  0.00    +0.000 A 
ATOM      7  C   UNL     1       1.704   9.255  17.896  0.00  0.00    +0.000 A 
ATOM      8  C   UNL     1       1.000   9.410  19.089  0.00  0.00    +0.000 A 
ATOM      9 BR   UNL     1      -0.243  10.823  19.261  0.00  0.00    +0.000 Br
ATOM     10  C   UNL     1       1.195   8.525  20.148  0.00  0.00    +0.000 A 
ATOM     11  C   UNL     1       2.110   7.477  20.015  0.00  0.00    +0.000 A 
ENDBRANCH   2   5
BRANCH   1  12
ATOM     12  C   UNL     1       5.898   5.364  17.637  0.00  0.00    +0.000 C 
BRANCH  12  14
ATOM     13  C   UNL     1       7.490   7.402  17.592  0.00  0.00    +0.000 C 
ATOM     14  C   UNL     1       7.327   5.914  17.922  0.00  0.00    +0.000 C 
ATOM     15  C   UNL     1       7.747   5.657  19.377  0.00  0.00    +0.000 C 
ENDBRANCH  12  14
BRANCH  12  16
ATOM     16  C   UNL     1       5.680   4.852  16.179  0.00  0.00    +0.000 C 
ATOM     17  C   UNL     1       5.205   5.960  15.234  0.00  0.00    +0.000 C 
ATOM     18  C   UNL     1       6.959   4.227  15.599  0.00  0.00    +0.000 C 
ENDBRANCH  12  16
ENDBRANCH   1  12
TORSDOF 4
ENDMDL
MODEL 5
REMARK VINA RESULT:      -6.1      3.897      5.691
REMARK  Name = 
REMARK  8 active torsions:
REMARK  status: ('A' for Active; 'I' for Inactive)
REMARK    1  A    between atoms: C_1  and  C_2
REMARK    2  A    between atoms: C_2  and  C_3
REMARK    3  A    between atoms: C_2  and  C_4
REMARK    4  A    between atoms: C_4  and  N_5
REMARK    5  A    between atoms: C_4  and  C_15
REMARK    6  A    between atoms: C_6  and  C_8
REMARK    7  A    between atoms: C_15  and  C_16
REMARK    8  A    between atoms: C_15  and  C_17
REMARK                            x       y       z     vdW  Elec       q    Type
REMARK                         _______ _______ _______ _____ _____    ______ ____
ROOT
ATOM      1  N   UNL     1       2.409   4.803  19.452  0.00  0.00    +0.000 N 
ATOM      2  C   UNL     1       3.173   5.950  19.430  0.00  0.00    +0.000 C 
ATOM      3  O   UNL     1       4.397   5.959  19.481  0.00  0.00    +0.000 OA
ATOM      4  H   UNL     1       1.415   4.870  19.318  0.00  0.00    +0.000 HD
ENDROOT
BRANCH   2   5
ATOM      5  C   UNL     1       2.416   7.231  19.317  0.00  0.00    +0.000 A 
ATOM      6  C   UNL     1       1.715   7.778  20.401  0.00  0.00    +0.000 A 
ATOM      7  C   UNL     1       1.025   8.985  20.255  0.00  0.00    +0.000 A 
ATOM      8  C   UNL     1       1.049   9.652  19.032  0.00  0.00    +0.000 A 
ATOM      9 BR   UNL     1       0.128  11.292  18.845  0.00  0.00    +0.000 Br
ATOM     10  C   UNL     1       1.756   9.127  17.952  0.00  0.00    +0.000 A 
ATOM     11  C   UNL     1       2.442   7.917  18.095  0.00  0.00    +0.000 A 
ENDBRANCH   2   5
BRANCH   1  12
ATOM     12  C   UNL     1       2.967   3.463  19.651  0.00  0.00    +0.000 C 
BRANCH  12  14
ATOM     13  C   UNL     1       3.662   1.395  18.260  0.00  0.00    +0.000 C 
ATOM     14  C   UNL     1       3.542   2.923  18.307  0.00  0.00    +0.000 C 
ATOM     15  C   UNL     1       2.718   3.414  17.107  0.00  0.00    +0.000 C 
ENDBRANCH  12  14
BRANCH  12  16
ATOM     16  C   UNL     1       1.879   2.553  20.301  0.00  0.00    +0.000 C 
ATOM     17  C   UNL     1       1.853   2.670  21.828  0.00  0.00    +0.000 C 
ATOM     18  C   UNL     1       0.475   2.871  19.760  0.00  0.00    +0.000 C 
ENDBRANCH  12  16
ENDBRANCH   1  12
TORSDOF 4
ENDMDL
MODEL 6
REMARK VINA RESULT:      -6.1      0.298      1.207
REMARK  Name = 
REMARK  8 active torsions:
REMARK  status: ('A' for Active; 'I' for Inactive)
REMARK    1  A    between atoms: C_1  and  C_2
REMARK    2  A    between atoms: C_2  and  C_3
REMARK    3  A    between atoms: C_2  and  C_4
REMARK    4  A    between atoms: C_4  and  N_5
REMARK    5  A    between atoms: C_4  and  C_15
REMARK    6  A    between atoms: C_6  and  C_8
REMARK    7  A    between atoms: C_15  and  C_16
REMARK    8  A    between atoms: C_15  and  C_17
REMARK                            x       y       z     vdW  Elec       q    Type
REMARK                         _______ _______ _______ _____ _____    ______ ____
ROOT
ATOM      1  N   UNL     1       3.626   4.934  18.370  0.00  0.00    +0.000 N 
ATOM      2  C   UNL     1       4.978   4.674  18.300  0.00  0.00    +0.000 C 
ATOM      3  O   UNL     1       5.689   4.479  19.279  0.00  0.00    +0.000 OA
ATOM      4  H   UNL     1       3.092   4.996  17.520  0.00  0.00    +0.000 HD
ENDROOT
BRANCH   2   5
ATOM      5  C   UNL     1       5.558   4.617  16.927  0.00  0.00    +0.000 A 
ATOM      6  C   UNL     1       6.927   4.808  16.689  0.00  0.00    +0.000 A 
ATOM      7  C   UNL     1       7.431   4.740  15.388  0.00  0.00    +0.000 A 
ATOM      8  C   UNL     1       6.571   4.465  14.326  0.00  0.00    +0.000 A 
ATOM      9 BR   UNL     1       7.261   4.357  12.571  0.00  0.00    +0.000 Br
ATOM     10  C   UNL     1       5.211   4.257  14.551  0.00  0.00    +0.000 A 
ATOM     11  C   UNL     1       4.705   4.331  15.852  0.00  0.00    +0.000 A 
ENDBRANCH   2   5
BRANCH   1  12
ATOM     12  C   UNL     1       2.901   5.118  19.630  0.00  0.00    +0.000 C 
BRANCH  12  14
ATOM     13  C   UNL     1       1.327   3.559  18.295  0.00  0.00    +0.000 C 
ATOM     14  C   UNL     1       1.626   4.222  19.644  0.00  0.00    +0.000 C 
ATOM     15  C   UNL     1       1.705   3.151  20.742  0.00  0.00    +0.000 C 
ENDBRANCH  12  14
BRANCH  12  16
ATOM     16  C   UNL     1       2.625   6.639  19.837  0.00  0.00    +0.000 C 
ATOM     17  C   UNL     1       2.427   7.384  18.513  0.00  0.00    +0.000 C 
ATOM     18  C   UNL     1       1.393   6.878  20.724  0.00  0.00    +0.000 C 
ENDBRANCH  12  16
ENDBRANCH   1  12
TORSDOF 4
ENDMDL
MODEL 7
REMARK VINA RESULT:      -6.1      3.523      5.661
REMARK  Name = 
REMARK  8 active torsions:
REMARK  status: ('A' for Active; 'I' for Inactive)
REMARK    1  A    between atoms: C_1  and  C_2
REMARK    2  A    between atoms: C_2  and  C_3
REMARK    3  A    between atoms: C_2  and  C_4
REMARK    4  A    between atoms: C_4  and  N_5
REMARK    5  A    between atoms: C_4  and  C_15
REMARK    6  A    between atoms: C_6  and  C_8
REMARK    7  A    between atoms: C_15  and  C_16
REMARK    8  A    between atoms: C_15  and  C_17
REMARK                            x       y       z     vdW  Elec       q    Type
REMARK                         _______ _______ _______ _____ _____    ______ ____
ROOT
ATOM      1  N   UNL     1       2.438   4.923  19.119  0.00  0.00    +0.000 N 
ATOM      2  C   UNL     1       3.181   6.070  19.292  0.00  0.00    +0.000 C 
ATOM      3  O   UNL     1       4.386   6.078  19.516  0.00  0.00    +0.000 OA
ATOM      4  H   UNL     1       1.471   4.997  18.852  0.00  0.00    +0.000 HD
ENDROOT
BRANCH   2   5
ATOM      5  C   UNL     1       2.431   7.354  19.171  0.00  0.00    +0.000 A 
ATOM      6  C   UNL     1       2.361   8.063  17.963  0.00  0.00    +0.000 A 
ATOM      7  C   UNL     1       1.640   9.258  17.891  0.00  0.00    +0.000 A 
ATOM      8  C   UNL     1       0.977   9.736  19.019  0.00  0.00    +0.000 A 
ATOM      9 BR   UNL     1      -0.010  11.344  18.910  0.00  0.00    +0.000 Br
ATOM     10  C   UNL     1       1.025   9.032  20.221  0.00  0.00    +0.000 A 
ATOM     11  C   UNL     1       1.751   7.839  20.297  0.00  0.00    +0.000 A 
ENDBRANCH   2   5
BRANCH   1  12
ATOM     12  C   UNL     1       2.981   3.572  19.291  0.00  0.00    +0.000 C 
BRANCH  12  14
ATOM     13  C   UNL     1       4.245   3.643  17.036  0.00  0.00    +0.000 C 
ATOM     14  C   UNL     1       3.211   2.911  17.900  0.00  0.00    +0.000 C 
ATOM     15  C   UNL     1       3.606   1.433  18.039  0.00  0.00    +0.000 C 
ENDBRANCH  12  14
BRANCH  12  16
ATOM     16  C   UNL     1       2.041   2.767  20.242  0.00  0.00    +0.000 C 
ATOM     17  C   UNL     1       2.143   3.233  21.698  0.00  0.00    +0.000 C 
ATOM     18  C   UNL     1       0.572   2.857  19.799  0.00  0.00    +0.000 C 
ENDBRANCH  12  16
ENDBRANCH   1  12
TORSDOF 4
ENDMDL
MODEL 8
REMARK VINA RESULT:      -6.1      0.866      1.491
REMARK  Name = 
REMARK  8 active torsions:
REMARK  status: ('A' for Active; 'I' for Inactive)
REMARK    1  A    between atoms: C_1  and  C_2
REMARK    2  A    between atoms: C_2  and  C_3
REMARK    3  A    between atoms: C_2  and  C_4
REMARK    4  A    between atoms: C_4  and  N_5
REMARK    5  A    between atoms: C_4  and  C_15
REMARK    6  A    between atoms: C_6  and  C_8
REMARK    7  A    between atoms: C_15  and  C_16
REMARK    8  A    between atoms: C_15  and  C_17
REMARK                            x       y       z     vdW  Elec       q    Type
REMARK                         _______ _______ _______ _____ _____    ______ ____
ROOT
ATOM      1  N   UNL     1       3.859   4.132  18.448  0.00  0.00    +0.000 N 
ATOM      2  C   UNL     1       5.203   4.416  18.335  0.00  0.00    +0.000 C 
ATOM      3  O   UNL     1       5.948   4.591  19.291  0.00  0.00    +0.000 OA
ATOM      4  H   UNL     1       3.329   3.915  17.621  0.00  0.00    +0.000 HD
ENDROOT
BRANCH   2   5
ATOM      5  C   UNL     1       5.736   4.484  16.943  0.00  0.00    +0.000 A 
ATOM      6  C   UNL     1       4.926   4.244  15.824  0.00  0.00    +0.000 A 
ATOM      7  C   UNL     1       5.463   4.327  14.536  0.00  0.00    +0.000 A 
ATOM      8  C   UNL     1       6.805   4.663  14.366  0.00  0.00    +0.000 A 
ATOM      9 BR   UNL     1       7.521   4.789  12.623  0.00  0.00    +0.000 Br
ATOM     10  C   UNL     1       7.616   4.920  15.470  0.00  0.00    +0.000 A 
ATOM     11  C   UNL     1       7.081   4.833  16.759  0.00  0.00    +0.000 A 
ENDBRANCH   2   5
BRANCH   1  12
ATOM     12  C   UNL     1       3.140   4.115  19.725  0.00  0.00    +0.000 C 
BRANCH  12  14
ATOM     13  C   UNL     1       2.263   2.512  21.556  0.00  0.00    +0.000 C 
ATOM     14  C   UNL     1       2.820   2.646  20.134  0.00  0.00    +0.000 C 
ATOM     15  C   UNL     1       1.859   1.982  19.137  0.00  0.00    +0.000 C 
ENDBRANCH  12  14
BRANCH  12  16
ATOM     16  C   UNL     1       1.889   5.042  19.613  0.00  0.00    +0.000 C 
ATOM     17  C   UNL     1       1.849   6.106  20.714  0.00  0.00    +0.000 C 
ATOM     18  C   UNL     1       1.823   5.745  18.248  0.00  0.00    +0.000 C 
ENDBRANCH  12  16
ENDBRANCH   1  12
TORSDOF 4
ENDMDL
MODEL 9
REMARK VINA RESULT:      -6.1      3.408      6.184
REMARK  Name = 
REMARK  8 active torsions:
REMARK  status: ('A' for Active; 'I' for Inactive)
REMARK    1  A    between atoms: C_1  and  C_2
REMARK    2  A    between atoms: C_2  and  C_3
REMARK    3  A    between atoms: C_2  and  C_4
REMARK    4  A    between atoms: C_4  and  N_5
REMARK    5  A    between atoms: C_4  and  C_15
REMARK    6  A    between atoms: C_6  and  C_8
REMARK    7  A    between atoms: C_15  and  C_16
REMARK    8  A    between atoms: C_15  and  C_17
REMARK                            x       y       z     vdW  Elec       q    Type
REMARK                         _______ _______ _______ _____ _____    ______ ____
ROOT
ATOM      1  N   UNL     1       3.686   5.830  17.861  0.00  0.00    +0.000 N 
ATOM      2  C   UNL     1       3.198   6.180  19.102  0.00  0.00    +0.000 C 
ATOM      3  O   UNL     1       3.425   5.553  20.129  0.00  0.00    +0.000 OA
ATOM      4  H   UNL     1       3.529   6.442  17.079  0.00  0.00    +0.000 HD
ENDROOT
BRANCH   2   5
ATOM      5  C   UNL     1       2.362   7.415  19.146  0.00  0.00    +0.000 A 
ATOM      6  C   UNL     1       1.756   7.862  20.329  0.00  0.00    +0.000 A 
ATOM      7  C   UNL     1       0.988   9.029  20.329  0.00  0.00    +0.000 A 
ATOM      8  C   UNL     1       0.838   9.758  19.151  0.00  0.00    +0.000 A 
ATOM      9 BR   UNL     1      -0.188  11.345  19.160  0.00  0.00    +0.000 Br
ATOM     10  C   UNL     1       1.449   9.334  17.972  0.00  0.00    +0.000 A 
ATOM     11  C   UNL     1       2.213   8.164  17.970  0.00  0.00    +0.000 A 
ENDBRANCH   2   5
BRANCH   1  12
ATOM     12  C   UNL     1       4.446   4.603  17.607  0.00  0.00    +0.000 C 
BRANCH  12  14
ATOM     13  C   UNL     1       5.749   3.708  15.560  0.00  0.00    +0.000 C 
ATOM     14  C   UNL     1       5.545   4.872  16.536  0.00  0.00    +0.000 C 
ATOM     15  C   UNL     1       5.261   6.162  15.753  0.00  0.00    +0.000 C 
ENDBRANCH  12  14
BRANCH  12  16
ATOM     16  C   UNL     1       3.450   3.460  17.239  0.00  0.00    +0.000 C 
ATOM     17  C   UNL     1       3.598   2.237  18.149  0.00  0.00    +0.000 C 
ATOM     18  C   UNL     1       1.990   3.938  17.293  0.00  0.00    +0.000 C 
ENDBRANCH  12  16
ENDBRANCH   1  12
TORSDOF 4
ENDMDL
